CHEMBL4217935
     RDKit          3D

  0  0  0  0  0  0  0  0  0  0999 V3000
M  V30 BEGIN CTAB
M  V30 COUNTS 55 59 0 0 0
M  V30 BEGIN ATOM
M  V30 1 N 4.644749 -2.117057 3.729342 0
M  V30 2 C 3.226204 -1.848383 3.917381 0 CFG=2
M  V30 3 C 2.460165 -3.022626 3.373232 0
M  V30 4 C 2.597070 -3.039833 1.868435 0
M  V30 5 N 2.051638 -1.868789 1.339524 0
M  V30 6 C 1.938915 -1.733228 -0.078491 0
M  V30 7 C 1.403573 -0.411266 -0.486111 0
M  V30 8 C 2.181361 0.629222 -0.985921 0
M  V30 9 C 1.389759 1.727948 -1.254497 0
M  V30 10 N 0.151116 1.334277 -0.913473 0
M  V30 11 N -0.948400 2.062683 -0.992586 0
M  V30 12 C -2.140352 1.564560 -0.615169 0
M  V30 13 C -3.325412 2.397745 -0.718868 0
M  V30 14 C -3.190183 3.700345 -1.224320 0
M  V30 15 C -4.229523 4.588207 -1.375082 0
M  V30 16 C -5.502602 4.199387 -1.013496 0
M  V30 17 C -5.647956 2.921413 -0.515400 0
M  V30 18 N -4.589350 2.123887 -0.401691 0
M  V30 19 N -2.181019 0.304180 -0.155351 0
M  V30 20 C -1.068068 -0.486980 -0.056405 0
M  V30 21 N -1.120068 -1.810951 0.427625 0
M  V30 22 C -1.545557 -2.891910 -0.419071 0
M  V30 23 C -1.923161 -2.655169 -1.738565 0
M  V30 24 C -2.347476 -3.654083 -2.596486 0
M  V30 25 N -2.403809 -4.929045 -2.145503 0
M  V30 26 C -2.037026 -5.154952 -0.866110 0
M  V30 27 C -1.604373 -4.192609 0.034914 0
M  V30 28 F -1.252852 -4.498759 1.300346 0
M  V30 29 C 0.113062 0.072539 -0.453493 0
M  V30 30 C 1.896222 -0.722319 2.124124 0
M  V30 31 C 2.898014 -0.561497 3.239524 0 CFG=1
M  V30 32 O 2.377474 0.382254 4.135435 0
M  V30 33 H 5.089865 -1.415738 3.093482 0
M  V30 34 H 4.831424 -3.065672 3.365010 0
M  V30 35 H 3.057823 -1.710918 5.006417 0
M  V30 36 H 1.372079 -2.835160 3.589360 0
M  V30 37 H 2.810471 -3.960004 3.852195 0
M  V30 38 H 3.691492 -3.184593 1.631581 0
M  V30 39 H 2.018978 -3.930332 1.481355 0
M  V30 40 H 1.315435 -2.583661 -0.403670 0
M  V30 41 H 2.947408 -1.842901 -0.542000 0
M  V30 42 H 3.259573 0.657714 -1.167838 0
M  V30 43 H 1.714184 2.679346 -1.647240 0
M  V30 44 H -2.186684 4.041468 -1.523784 0
M  V30 45 H -4.015766 5.572494 -1.778550 0
M  V30 46 H -6.331520 4.881707 -1.123871 0
M  V30 47 H -6.613018 2.555640 -0.213453 0
M  V30 48 H -0.855447 -2.063007 1.406248 0
M  V30 49 H -1.897269 -1.667499 -2.145893 0
M  V30 50 H -2.632178 -3.445787 -3.604463 0
M  V30 51 H -2.060331 -6.171804 -0.438972 0
M  V30 52 H 1.892704 0.240493 1.573272 0
M  V30 53 H 0.897992 -0.784152 2.631394 0
M  V30 54 H 3.812319 -0.090781 2.777798 0
M  V30 55 H 1.553414 0.773023 3.805077 0
M  V30 END ATOM
M  V30 BEGIN BOND
M  V30 1 1 1 2
M  V30 2 1 2 3
M  V30 3 1 3 4
M  V30 4 1 4 5
M  V30 5 1 5 6
M  V30 6 1 6 7
M  V30 7 1 7 8
M  V30 8 2 8 9
M  V30 9 1 9 10
M  V30 10 1 10 11
M  V30 11 2 11 12
M  V30 12 1 12 13
M  V30 13 2 13 14
M  V30 14 1 14 15
M  V30 15 2 15 16
M  V30 16 1 16 17
M  V30 17 2 17 18
M  V30 18 1 12 19
M  V30 19 2 19 20
M  V30 20 1 20 21
M  V30 21 1 21 22
M  V30 22 2 22 23
M  V30 23 1 23 24
M  V30 24 2 24 25
M  V30 25 1 25 26
M  V30 26 2 26 27
M  V30 27 1 27 28
M  V30 28 1 20 29
M  V30 29 1 5 30
M  V30 30 1 30 31
M  V30 31 1 31 32
M  V30 32 1 31 2
M  V30 33 2 29 7
M  V30 34 1 29 10
M  V30 35 1 18 13
M  V30 36 1 27 22
M  V30 37 1 1 33
M  V30 38 1 1 34
M  V30 39 1 2 35 CFG=1
M  V30 40 1 3 36
M  V30 41 1 3 37
M  V30 42 1 4 38
M  V30 43 1 4 39
M  V30 44 1 6 40
M  V30 45 1 6 41
M  V30 46 1 8 42
M  V30 47 1 9 43
M  V30 48 1 14 44
M  V30 49 1 15 45
M  V30 50 1 16 46
M  V30 51 1 17 47
M  V30 52 1 21 48
M  V30 53 1 23 49
M  V30 54 1 24 50
M  V30 55 1 26 51
M  V30 56 1 30 52
M  V30 57 1 30 53
M  V30 58 1 31 54 CFG=3
M  V30 59 1 32 55
M  V30 END BOND
M  V30 END CTAB
M  END
>  <Dataset>  (1) 
ChEMBL_Kinases

>  <Ligand_Instance>  (1) 
nan

>  <PDB_ID>  (1) 
nan

>  <Standardized_SMILES>  (1) 
N[C@@H]1CCN(Cc2ccn3nc(-c4ccccn4)nc(Nc4ccncc4F)c23)C[C@H]1O

>  <Name>  (1) 
nan

>  <Pocket>  (1) 
nan

>  <ATP_Site>  (1) 
nan

>  <Peripheral>  (1) 
nan

>  <Num_H_Atoms_ProtBoundConf>  (1) 
nan

>  <Num_Resolved_Atoms>  (1) 
nan

>  <Num_Not_Resolved_Atoms>  (1) 
nan

$$$$
CHEMBL4777775
     RDKit          3D

  0  0  0  0  0  0  0  0  0  0999 V3000
M  V30 BEGIN CTAB
M  V30 COUNTS 65 72 0 0 0
M  V30 BEGIN ATOM
M  V30 1 C 2.039266 -1.592841 -3.191720 0
M  V30 2 O 1.504977 -1.267070 -1.956832 0
M  V30 3 C 0.291801 -0.545932 -2.044542 0 CFG=2
M  V30 4 C 0.512861 0.868074 -1.660138 0 CFG=2
M  V30 5 N 1.833986 0.960255 -0.965218 0
M  V30 6 C 2.323048 0.477306 0.310928 0
M  V30 7 C 2.787127 1.678704 -1.751885 0
M  V30 8 C 4.192812 1.936069 -1.329274 0
M  V30 9 O 2.521617 2.171658 -2.900409 0
M  V30 10 C -0.533496 1.573095 -0.933391 0
M  V30 11 C -1.853167 0.859226 -0.791947 0 CFG=1
M  V30 12 O -1.906753 -0.350322 -1.337605 0
M  V30 13 C -0.857789 -1.202871 -1.448411 0 CFG=1
M  V30 14 C -1.453510 -2.306380 -2.382632 0
M  V30 15 N -0.595149 -1.908039 -0.168883 0
M  V30 16 C -0.020914 -3.093005 0.076681 0
M  V30 17 C 0.519351 -3.949766 -0.871260 0
M  V30 18 C 1.090264 -5.156967 -0.508312 0
M  V30 19 C 1.107117 -5.490382 0.850125 0
M  V30 20 C 0.551343 -4.587805 1.729347 0
M  V30 21 C -0.018296 -3.395042 1.420011 0
M  V30 22 C -0.611738 -2.364052 2.049479 0
M  V30 23 C -0.896459 -2.118538 3.368119 0
M  V30 24 C -1.536192 -0.969701 3.773017 0
M  V30 25 C -1.864619 -0.093412 2.775897 0
M  V30 26 C -2.476750 1.128111 2.763163 0
M  V30 27 C -3.023060 1.990655 3.663934 0
M  V30 28 C -3.604057 3.210973 3.403409 0
M  V30 29 C -3.647482 3.628731 2.071309 0
M  V30 30 C -3.112589 2.805283 1.104645 0
M  V30 31 C -2.541569 1.580489 1.462444 0
M  V30 32 N -1.986228 0.677940 0.645645 0
M  V30 33 C -1.585670 -0.323832 1.446943 0
M  V30 34 C -0.945698 -1.488416 1.076989 0
M  V30 35 C -1.726727 -0.932659 5.186733 0
M  V30 36 O -2.239228 -0.124454 5.985054 0
M  V30 37 N -1.165964 -2.141458 5.688002 0
M  V30 38 C -0.656295 -2.871805 4.581796 0
M  V30 39 O -0.121797 -3.969239 4.826225 0
M  V30 40 H 2.997668 -2.160209 -3.101510 0
M  V30 41 H 1.379934 -2.174611 -3.846839 0
M  V30 42 H 2.316144 -0.679392 -3.777863 0
M  V30 43 H 0.152927 -0.529741 -3.179157 0
M  V30 44 H 0.770236 1.440488 -2.622082 0
M  V30 45 H 2.684251 1.333925 0.963259 0
M  V30 46 H 1.622177 -0.189624 0.820937 0
M  V30 47 H 3.254898 -0.147659 0.168884 0
M  V30 48 H 4.805090 1.128509 -1.784058 0
M  V30 49 H 4.585774 2.884025 -1.726794 0
M  V30 50 H 4.308034 1.851784 -0.230602 0
M  V30 51 H -0.760676 2.560079 -1.441920 0
M  V30 52 H -0.094934 1.911644 0.042657 0
M  V30 53 H -2.704010 1.522251 -1.123732 0
M  V30 54 H -1.733078 -3.175153 -1.766135 0
M  V30 55 H -2.457417 -1.970477 -2.793539 0
M  V30 56 H -0.865232 -2.468400 -3.268699 0
M  V30 57 H 0.536709 -3.756013 -1.904224 0
M  V30 58 H 1.515714 -5.838356 -1.224410 0
M  V30 59 H 1.545732 -6.423789 1.155461 0
M  V30 60 H 0.595462 -4.898445 2.743264 0
M  V30 61 H -3.019938 1.728871 4.692149 0
M  V30 62 H -4.020018 3.846530 4.173237 0
M  V30 63 H -4.088365 4.571881 1.802008 0
M  V30 64 H -3.157225 3.145857 0.096012 0
M  V30 65 H -1.145293 -2.424364 6.721053 0
M  V30 END ATOM
M  V30 BEGIN BOND
M  V30 1 1 1 2
M  V30 2 1 2 3
M  V30 3 1 3 4
M  V30 4 1 4 5
M  V30 5 1 5 6
M  V30 6 1 5 7
M  V30 7 1 7 8
M  V30 8 2 7 9
M  V30 9 1 4 10
M  V30 10 1 10 11
M  V30 11 1 11 12
M  V30 12 1 12 13
M  V30 13 1 13 14 CFG=3
M  V30 14 1 13 15
M  V30 15 1 15 16
M  V30 16 2 16 17
M  V30 17 1 17 18
M  V30 18 2 18 19
M  V30 19 1 19 20
M  V30 20 2 20 21
M  V30 21 1 21 22
M  V30 22 2 22 23
M  V30 23 1 23 24
M  V30 24 2 24 25
M  V30 25 1 25 26
M  V30 26 2 26 27
M  V30 27 1 27 28
M  V30 28 2 28 29
M  V30 29 1 29 30
M  V30 30 2 30 31
M  V30 31 1 31 32
M  V30 32 1 32 33
M  V30 33 2 33 34
M  V30 34 1 24 35
M  V30 35 2 35 36
M  V30 36 1 35 37
M  V30 37 1 37 38
M  V30 38 2 38 39
M  V30 39 1 13 3
M  V30 40 1 34 15
M  V30 41 1 32 11
M  V30 42 1 21 16
M  V30 43 1 34 22
M  V30 44 1 38 23
M  V30 45 1 33 25
M  V30 46 1 31 26
M  V30 47 1 1 40
M  V30 48 1 1 41
M  V30 49 1 1 42
M  V30 50 1 3 43 CFG=3
M  V30 51 1 4 44 CFG=3
M  V30 52 1 6 45
M  V30 53 1 6 46
M  V30 54 1 6 47
M  V30 55 1 8 48
M  V30 56 1 8 49
M  V30 57 1 8 50
M  V30 58 1 10 51
M  V30 59 1 10 52
M  V30 60 1 11 53 CFG=3
M  V30 61 1 14 54
M  V30 62 1 14 55
M  V30 63 1 14 56
M  V30 64 1 17 57
M  V30 65 1 18 58
M  V30 66 1 19 59
M  V30 67 1 20 60
M  V30 68 1 27 61
M  V30 69 1 28 62
M  V30 70 1 29 63
M  V30 71 1 30 64
M  V30 72 1 37 65
M  V30 END BOND
M  V30 END CTAB
M  END
>  <Dataset>  (2) 
ChEMBL_Kinases

>  <Ligand_Instance>  (2) 
nan

>  <PDB_ID>  (2) 
nan

>  <Standardized_SMILES>  (2) 
CO[C@@H]1[C@H](N(C)C(C)=O)C[C@H]2O[C@]1(C)n1c3ccccc3c3c4c(c5c6ccccc6n2c5c31)C(=O)NC4=O

>  <Name>  (2) 
nan

>  <Pocket>  (2) 
nan

>  <ATP_Site>  (2) 
nan

>  <Peripheral>  (2) 
nan

>  <Num_H_Atoms_ProtBoundConf>  (2) 
nan

>  <Num_Resolved_Atoms>  (2) 
nan

>  <Num_Not_Resolved_Atoms>  (2) 
nan

$$$$
CHEMBL4776846
     RDKit          3D

  0  0  0  0  0  0  0  0  0  0999 V3000
M  V30 BEGIN CTAB
M  V30 COUNTS 46 49 0 0 0
M  V30 BEGIN ATOM
M  V30 1 C -3.045812 -6.285114 2.406432 0
M  V30 2 O -2.820678 -6.258276 1.011249 0
M  V30 3 C -2.187159 -5.201084 0.376121 0
M  V30 4 C -1.718955 -4.082430 1.036308 0
M  V30 5 C -1.087719 -3.026341 0.410882 0
M  V30 6 C -0.908261 -3.081555 -0.958069 0
M  V30 7 C -0.271722 -2.072999 -1.782945 0
M  V30 8 O -0.075115 -2.065687 -3.019968 0
M  V30 9 N 0.231951 -0.887454 -1.186789 0
M  V30 10 C 0.892889 0.318436 -1.529189 0
M  V30 11 C 0.203800 1.600838 -1.252988 0
M  V30 12 C 1.220080 2.573749 -0.683946 0
M  V30 13 N 1.642008 2.030819 0.618021 0
M  V30 14 C 1.346540 2.799023 1.772682 0
M  V30 15 N 0.676779 3.957106 1.643524 0
M  V30 16 C 0.366178 4.724799 2.700470 0
M  V30 17 N 0.705108 4.385278 3.961503 0
M  V30 18 C 1.377164 3.240129 4.175111 0
M  V30 19 N 1.848190 2.639913 5.282546 0
M  V30 20 N 2.448614 1.501608 4.897544 0
M  V30 21 C 2.355995 1.387589 3.563169 0
M  V30 22 C 1.678532 2.478680 3.068371 0
M  V30 23 C 2.301851 0.771733 0.495167 0
M  V30 24 C 2.318814 0.368873 -0.987851 0
M  V30 25 C -1.356725 -4.179886 -1.679225 0
M  V30 26 C -1.989085 -5.218040 -0.986975 0
M  V30 27 H -3.279031 -5.271741 2.816383 0
M  V30 28 H -3.939863 -6.913041 2.644490 0
M  V30 29 H -2.187746 -6.735211 2.935679 0
M  V30 30 H -1.842751 -4.006727 2.107494 0
M  V30 31 H -0.720462 -2.148870 0.922376 0
M  V30 32 H 0.175022 -0.677636 -0.156516 0
M  V30 33 H 1.058350 0.298125 -2.636198 0
M  V30 34 H -0.622815 1.588022 -0.534044 0
M  V30 35 H -0.204235 2.099984 -2.158853 0
M  V30 36 H 0.724007 3.579755 -0.553035 0
M  V30 37 H 2.064548 2.771020 -1.357259 0
M  V30 38 H -0.180321 5.635510 2.427274 0
M  V30 39 H 1.711958 3.076077 6.229369 0
M  V30 40 H 2.754564 0.573984 3.019481 0
M  V30 41 H 1.755604 -0.065568 0.979063 0
M  V30 42 H 3.389094 0.802292 0.745303 0
M  V30 43 H 2.667019 -0.684908 -1.000420 0
M  V30 44 H 2.998473 0.978569 -1.576356 0
M  V30 45 H -1.249478 -4.292262 -2.756938 0
M  V30 46 H -2.336904 -6.073550 -1.560546 0
M  V30 END ATOM
M  V30 BEGIN BOND
M  V30 1 1 1 2
M  V30 2 1 2 3
M  V30 3 2 3 4
M  V30 4 1 4 5
M  V30 5 2 5 6
M  V30 6 1 6 7
M  V30 7 2 7 8
M  V30 8 1 7 9
M  V30 9 1 9 10
M  V30 10 1 10 11
M  V30 11 1 11 12
M  V30 12 1 12 13
M  V30 13 1 13 14
M  V30 14 2 14 15
M  V30 15 1 15 16
M  V30 16 2 16 17
M  V30 17 1 17 18
M  V30 18 1 18 19
M  V30 19 1 19 20
M  V30 20 2 20 21
M  V30 21 1 21 22
M  V30 22 1 13 23
M  V30 23 1 23 24
M  V30 24 1 6 25
M  V30 25 2 25 26
M  V30 26 1 26 3
M  V30 27 1 24 10
M  V30 28 1 22 14
M  V30 29 2 22 18
M  V30 30 1 1 27
M  V30 31 1 1 28
M  V30 32 1 1 29
M  V30 33 1 4 30
M  V30 34 1 5 31
M  V30 35 1 9 32
M  V30 36 1 10 33
M  V30 37 1 11 34
M  V30 38 1 11 35
M  V30 39 1 12 36
M  V30 40 1 12 37
M  V30 41 1 16 38
M  V30 42 1 19 39
M  V30 43 1 21 40
M  V30 44 1 23 41
M  V30 45 1 23 42
M  V30 46 1 24 43
M  V30 47 1 24 44
M  V30 48 1 25 45
M  V30 49 1 26 46
M  V30 END BOND
M  V30 END CTAB
M  END
>  <Dataset>  (3) 
ChEMBL_Kinases

>  <Ligand_Instance>  (3) 
nan

>  <PDB_ID>  (3) 
nan

>  <Standardized_SMILES>  (3) 
COc1ccc(C(=O)NC2CCN(c3ncnc4[nH]ncc34)CC2)cc1

>  <Name>  (3) 
nan

>  <Pocket>  (3) 
nan

>  <ATP_Site>  (3) 
nan

>  <Peripheral>  (3) 
nan

>  <Num_H_Atoms_ProtBoundConf>  (3) 
nan

>  <Num_Resolved_Atoms>  (3) 
nan

>  <Num_Not_Resolved_Atoms>  (3) 
nan

$$$$
CHEMBL4776921
     RDKit          3D

  0  0  0  0  0  0  0  0  0  0999 V3000
M  V30 BEGIN CTAB
M  V30 COUNTS 54 58 0 0 0
M  V30 BEGIN ATOM
M  V30 1 C -0.612657 0.287725 4.472411 0
M  V30 2 O 0.279429 0.730616 3.456378 0
M  V30 3 C 1.581154 0.251551 3.449103 0
M  V30 4 C 2.030785 -0.638284 4.396223 0
M  V30 5 C 3.320807 -1.154026 4.442746 0
M  V30 6 C 4.208441 -0.729817 3.453389 0
M  V30 7 C 3.755976 0.159052 2.508917 0
M  V30 8 F 4.670016 0.540107 1.563235 0
M  V30 9 C 2.464286 0.665360 2.475577 0
M  V30 10 C 2.073309 1.608526 1.429915 0
M  V30 11 C 1.556413 1.104629 0.261992 0
M  V30 12 C 1.153922 1.920834 -0.795520 0
M  V30 13 C 1.292273 3.297499 -0.635078 0
M  V30 14 C 1.814217 3.769266 0.548787 0
M  V30 15 N 2.193552 2.954025 1.551100 0
M  V30 16 C 0.832574 3.886141 -1.800795 0
M  V30 17 N 0.434316 2.891708 -2.626379 0
M  V30 18 N 0.624942 1.718377 -2.029123 0
M  V30 19 C 0.376814 0.375704 -2.454908 0
M  V30 20 C 1.163941 -0.220522 -3.422967 0
M  V30 21 C 0.804853 -1.519251 -3.731439 0
M  V30 22 N -0.229483 -2.139713 -3.129799 0
M  V30 23 C -0.987888 -1.562376 -2.195696 0
M  V30 24 N -2.087674 -2.176995 -1.534433 0
M  V30 25 C -2.891345 -1.517266 -0.521918 0
M  V30 26 C -3.636157 -2.588873 0.275352 0
M  V30 27 N -2.677825 -3.623176 0.600699 0
M  V30 28 C -3.089807 -4.466846 1.676549 0
M  V30 29 C -2.185454 -4.318192 -0.545082 0
M  V30 30 C -2.518484 -3.536726 -1.809518 0
M  V30 31 C -0.689613 -0.264997 -1.835074 0
M  V30 32 H -0.794977 -0.813321 4.346220 0
M  V30 33 H -0.110195 0.452652 5.442133 0
M  V30 34 H -1.571237 0.831460 4.373206 0
M  V30 35 H 1.346779 -0.979390 5.177233 0
M  V30 36 H 3.589937 -1.856839 5.232775 0
M  V30 37 H 5.198088 -1.128546 3.493096 0
M  V30 38 H 1.452674 0.031003 0.146754 0
M  V30 39 H 1.899135 4.844862 0.619034 0
M  V30 40 H 0.805685 4.951558 -1.995308 0
M  V30 41 H 1.993155 0.306875 -3.890979 0
M  V30 42 H 1.373540 -2.062765 -4.484691 0
M  V30 43 H -2.275084 -0.972074 0.219582 0
M  V30 44 H -3.627092 -0.848012 -1.007469 0
M  V30 45 H -4.541325 -2.933176 -0.223080 0
M  V30 46 H -3.956051 -2.103886 1.220333 0
M  V30 47 H -3.927111 -3.979068 2.221876 0
M  V30 48 H -2.221369 -4.517438 2.396978 0
M  V30 49 H -3.326704 -5.505733 1.411190 0
M  V30 50 H -2.488495 -5.382489 -0.607409 0
M  V30 51 H -1.058935 -4.274999 -0.474781 0
M  V30 52 H -3.622009 -3.559002 -1.933606 0
M  V30 53 H -1.995397 -3.969250 -2.685670 0
M  V30 54 H -1.277685 0.240064 -1.083359 0
M  V30 END ATOM
M  V30 BEGIN BOND
M  V30 1 1 1 2
M  V30 2 1 2 3
M  V30 3 2 3 4
M  V30 4 1 4 5
M  V30 5 2 5 6
M  V30 6 1 6 7
M  V30 7 1 7 8
M  V30 8 2 7 9
M  V30 9 1 9 10
M  V30 10 2 10 11
M  V30 11 1 11 12
M  V30 12 2 12 13
M  V30 13 1 13 14
M  V30 14 2 14 15
M  V30 15 1 13 16
M  V30 16 2 16 17
M  V30 17 1 17 18
M  V30 18 1 18 19
M  V30 19 2 19 20
M  V30 20 1 20 21
M  V30 21 2 21 22
M  V30 22 1 22 23
M  V30 23 1 23 24
M  V30 24 1 24 25
M  V30 25 1 25 26
M  V30 26 1 26 27
M  V30 27 1 27 28
M  V30 28 1 27 29
M  V30 29 1 29 30
M  V30 30 2 23 31
M  V30 31 1 9 3
M  V30 32 1 15 10
M  V30 33 1 31 19
M  V30 34 1 18 12
M  V30 35 1 30 24
M  V30 36 1 1 32
M  V30 37 1 1 33
M  V30 38 1 1 34
M  V30 39 1 4 35
M  V30 40 1 5 36
M  V30 41 1 6 37
M  V30 42 1 11 38
M  V30 43 1 14 39
M  V30 44 1 16 40
M  V30 45 1 20 41
M  V30 46 1 21 42
M  V30 47 1 25 43
M  V30 48 1 25 44
M  V30 49 1 26 45
M  V30 50 1 26 46
M  V30 51 1 28 47
M  V30 52 1 28 48
M  V30 53 1 28 49
M  V30 54 1 29 50
M  V30 55 1 29 51
M  V30 56 1 30 52
M  V30 57 1 30 53
M  V30 58 1 31 54
M  V30 END BOND
M  V30 END CTAB
M  END
>  <Dataset>  (4) 
ChEMBL_Kinases

>  <Ligand_Instance>  (4) 
nan

>  <PDB_ID>  (4) 
nan

>  <Standardized_SMILES>  (4) 
COc1cccc(F)c1-c1cc2c(cn1)cnn2-c1ccnc(N2CCN(C)CC2)c1

>  <Name>  (4) 
nan

>  <Pocket>  (4) 
nan

>  <ATP_Site>  (4) 
nan

>  <Peripheral>  (4) 
nan

>  <Num_H_Atoms_ProtBoundConf>  (4) 
nan

>  <Num_Resolved_Atoms>  (4) 
nan

>  <Num_Not_Resolved_Atoms>  (4) 
nan

$$$$
CHEMBL4776996
     RDKit          3D

  0  0  0  0  0  0  0  0  0  0999 V3000
M  V30 BEGIN CTAB
M  V30 COUNTS 37 39 0 0 0
M  V30 BEGIN ATOM
M  V30 1 C -0.701695 -5.111553 -0.460719 0
M  V30 2 O 0.011669 -3.918825 -0.322036 0
M  V30 3 C 1.326296 -3.693139 -0.645734 0
M  V30 4 C 1.933630 -4.817651 -1.156346 0
M  V30 5 C 3.249249 -4.827171 -1.549468 0
M  V30 6 C 3.966208 -3.662690 -1.420013 0
M  V30 7 C 3.312369 -2.572941 -0.905822 0
M  V30 8 C 2.000388 -2.503672 -0.496221 0
M  V30 9 C 1.345303 -1.328880 0.043350 0
M  V30 10 O 2.178493 -0.411345 0.065665 0
M  V30 11 C -0.038198 -1.297740 0.463078 0
M  V30 12 C -0.615909 -0.228890 0.948537 0
M  V30 13 N 0.062472 0.993266 1.106260 0
M  V30 14 C -0.467607 2.205953 1.619854 0
M  V30 15 C 0.241034 3.379820 1.754416 0
M  V30 16 C -0.345389 4.517461 2.262689 0
M  V30 17 C 0.411596 5.738483 2.396777 0
M  V30 18 N 1.045090 6.724203 2.505595 0
M  V30 19 C -1.668522 4.512143 2.653813 0
M  V30 20 C -2.444686 3.354651 2.544103 0
M  V30 21 C -1.784933 2.260792 2.026928 0
M  V30 22 N -2.556733 1.072930 1.907009 0
M  V30 23 C -2.004969 -0.144684 1.385532 0
M  V30 24 O -2.735678 -1.189071 1.295573 0
M  V30 25 H -1.725053 -5.062257 -0.056756 0
M  V30 26 H -0.796953 -5.358774 -1.551448 0
M  V30 27 H -0.138291 -5.955511 -0.000708 0
M  V30 28 H 1.431384 -5.777041 -1.289359 0
M  V30 29 H 3.746414 -5.688303 -1.950008 0
M  V30 30 H 4.993795 -3.633134 -1.716191 0
M  V30 31 H 3.937176 -1.673985 -0.827051 0
M  V30 32 H -0.766587 -2.083234 0.448489 0
M  V30 33 H 1.055574 1.103353 0.843851 0
M  V30 34 H 1.286108 3.371489 1.441808 0
M  V30 35 H -2.114465 5.408054 3.049373 0
M  V30 36 H -3.482218 3.302505 2.836706 0
M  V30 37 H -3.548716 1.038965 2.191444 0
M  V30 END ATOM
M  V30 BEGIN BOND
M  V30 1 1 1 2
M  V30 2 1 2 3
M  V30 3 2 3 4
M  V30 4 1 4 5
M  V30 5 2 5 6
M  V30 6 1 6 7
M  V30 7 2 7 8
M  V30 8 1 8 9
M  V30 9 2 9 10
M  V30 10 1 9 11
M  V30 11 2 11 12
M  V30 12 1 12 13
M  V30 13 1 13 14
M  V30 14 2 14 15
M  V30 15 1 15 16
M  V30 16 1 16 17
M  V30 17 3 17 18
M  V30 18 2 16 19
M  V30 19 1 19 20
M  V30 20 2 20 21
M  V30 21 1 21 22
M  V30 22 1 22 23
M  V30 23 2 23 24
M  V30 24 1 8 3
M  V30 25 1 23 12
M  V30 26 1 21 14
M  V30 27 1 1 25
M  V30 28 1 1 26
M  V30 29 1 1 27
M  V30 30 1 4 28
M  V30 31 1 5 29
M  V30 32 1 6 30
M  V30 33 1 7 31
M  V30 34 1 11 32
M  V30 35 1 13 33
M  V30 36 1 15 34
M  V30 37 1 19 35
M  V30 38 1 20 36
M  V30 39 1 22 37
M  V30 END BOND
M  V30 END CTAB
M  END
>  <Dataset>  (5) 
ChEMBL_Kinases

>  <Ligand_Instance>  (5) 
nan

>  <PDB_ID>  (5) 
nan

>  <Standardized_SMILES>  (5) 
COc1ccccc1C(=O)/C=C1\Nc2cc(C#N)ccc2NC1=O

>  <Name>  (5) 
nan

>  <Pocket>  (5) 
nan

>  <ATP_Site>  (5) 
nan

>  <Peripheral>  (5) 
nan

>  <Num_H_Atoms_ProtBoundConf>  (5) 
nan

>  <Num_Resolved_Atoms>  (5) 
nan

>  <Num_Not_Resolved_Atoms>  (5) 
nan

$$$$
CHEMBL4777003
     RDKit          3D

  0  0  0  0  0  0  0  0  0  0999 V3000
M  V30 BEGIN CTAB
M  V30 COUNTS 45 47 0 0 0
M  V30 BEGIN ATOM
M  V30 1 C 4.487513 -3.924131 1.131398 0
M  V30 2 C 3.272726 -3.007784 0.844494 0
M  V30 3 C 2.090450 -3.947821 0.755387 0
M  V30 4 C 3.100039 -2.168736 2.051864 0
M  V30 5 O 2.063425 -1.275974 2.048777 0
M  V30 6 C 3.593673 -2.335414 -0.433352 0
M  V30 7 N 2.647036 -1.409372 -0.967646 0
M  V30 8 C 2.327590 -0.119967 -0.453599 0
M  V30 9 N 3.250309 0.661768 -0.035725 0
M  V30 10 C 2.875326 1.885980 0.446172 0
M  V30 11 O 3.682453 2.770912 0.897440 0
M  V30 12 C 1.444921 2.160849 0.426268 0
M  V30 13 C 0.677063 3.173441 0.787178 0
M  V30 14 C -0.790019 3.160578 0.639727 0
M  V30 15 C -1.517183 4.303940 0.287401 0
M  V30 16 S -3.263753 3.620751 0.277518 0
M  V30 17 C -2.660469 1.940610 0.749058 0
M  V30 18 C -3.570077 0.787646 0.939941 0
M  V30 19 C -3.007871 -0.421814 1.286960 0
M  V30 20 C -3.830798 -1.510901 1.470847 0
M  V30 21 C -5.175011 -1.383286 1.310367 0
M  V30 22 C -5.718272 -0.157065 0.961109 0
M  V30 23 C -4.930923 0.946496 0.770062 0
M  V30 24 O -5.488950 2.168437 0.420298 0
M  V30 25 N -1.541254 2.073311 0.829513 0
M  V30 26 S 0.712728 0.661104 -0.290119 0
M  V30 27 H 4.389041 -4.751491 0.396136 0
M  V30 28 H 5.371210 -3.296517 0.895873 0
M  V30 29 H 4.451377 -4.265575 2.188120 0
M  V30 30 H 1.145338 -3.340818 0.715203 0
M  V30 31 H 2.167995 -4.672260 -0.078601 0
M  V30 32 H 2.063144 -4.525653 1.701595 0
M  V30 33 H 4.042743 -1.585597 2.284866 0
M  V30 34 H 2.959097 -2.804464 2.974917 0
M  V30 35 H 2.286808 -0.521100 2.646810 0
M  V30 36 H 3.801289 -3.109058 -1.230571 0
M  V30 37 H 4.574344 -1.792313 -0.280284 0
M  V30 38 H 2.090548 -1.675565 -1.846205 0
M  V30 39 H 1.236546 4.006475 1.199014 0
M  V30 40 H -1.131752 5.280933 0.090117 0
M  V30 41 H -1.932563 -0.480106 1.404423 0
M  V30 42 H -3.309499 -2.438490 1.747143 0
M  V30 43 H -5.750182 -2.282660 1.471144 0
M  V30 44 H -6.791181 -0.138275 0.854562 0
M  V30 45 H -5.566140 2.365971 -0.565455 0
M  V30 END ATOM
M  V30 BEGIN BOND
M  V30 1 1 1 2
M  V30 2 1 2 3
M  V30 3 1 2 4
M  V30 4 1 4 5
M  V30 5 1 2 6
M  V30 6 1 6 7
M  V30 7 1 7 8
M  V30 8 2 8 9
M  V30 9 1 9 10
M  V30 10 2 10 11
M  V30 11 1 10 12
M  V30 12 2 12 13
M  V30 13 1 13 14
M  V30 14 2 14 15
M  V30 15 1 15 16
M  V30 16 1 16 17
M  V30 17 1 17 18
M  V30 18 2 18 19
M  V30 19 1 19 20
M  V30 20 2 20 21
M  V30 21 1 21 22
M  V30 22 2 22 23
M  V30 23 1 23 24
M  V30 24 2 17 25
M  V30 25 1 12 26
M  V30 26 1 26 8
M  V30 27 1 25 14
M  V30 28 1 23 18
M  V30 29 1 1 27
M  V30 30 1 1 28
M  V30 31 1 1 29
M  V30 32 1 3 30
M  V30 33 1 3 31
M  V30 34 1 3 32
M  V30 35 1 4 33
M  V30 36 1 4 34
M  V30 37 1 5 35
M  V30 38 1 6 36
M  V30 39 1 6 37
M  V30 40 1 7 38
M  V30 41 1 13 39
M  V30 42 1 15 40
M  V30 43 1 19 41
M  V30 44 1 20 42
M  V30 45 1 21 43
M  V30 46 1 22 44
M  V30 47 1 24 45
M  V30 END BOND
M  V30 END CTAB
M  END
>  <Dataset>  (6) 
ChEMBL_Kinases

>  <Ligand_Instance>  (6) 
nan

>  <PDB_ID>  (6) 
nan

>  <Standardized_SMILES>  (6) 
CC(C)(CO)CNC1=NC(=O)/C(=C/c2csc(-c3ccccc3O)n2)S1

>  <Name>  (6) 
nan

>  <Pocket>  (6) 
nan

>  <ATP_Site>  (6) 
nan

>  <Peripheral>  (6) 
nan

>  <Num_H_Atoms_ProtBoundConf>  (6) 
nan

>  <Num_Resolved_Atoms>  (6) 
nan

>  <Num_Not_Resolved_Atoms>  (6) 
nan

$$$$
CHEMBL4777061
     RDKit          3D

  0  0  0  0  0  0  0  0  0  0999 V3000
M  V30 BEGIN CTAB
M  V30 COUNTS 46 49 0 0 0
M  V30 BEGIN ATOM
M  V30 1 N -0.188957 -7.916972 1.903593 0
M  V30 2 C -0.360397 -7.362112 0.909413 0
M  V30 3 N -0.556335 -6.675059 -0.285454 0
M  V30 4 C 0.488189 -6.304246 -1.212338 0
M  V30 5 C 0.588570 -4.824025 -1.303120 0
M  V30 6 C -0.530908 -4.146384 -1.085950 0
M  V30 7 C -0.431112 -2.697675 -1.175142 0
M  V30 8 C -1.510745 -1.858764 -0.974283 0
M  V30 9 C -1.480592 -0.483983 -1.044592 0
M  V30 10 C -0.279090 0.125378 -1.339518 0
M  V30 11 C -0.064608 1.591935 -1.454998 0
M  V30 12 C 0.312063 2.133696 -0.110937 0
M  V30 13 O 0.391606 1.341518 0.862343 0
M  V30 14 N 0.573437 3.518326 0.054605 0
M  V30 15 C 0.935866 4.107241 1.296366 0
M  V30 16 C 1.109430 3.537432 2.538585 0
M  V30 17 C 1.464036 4.506759 3.454718 0
M  V30 18 C 1.736420 4.261951 4.910484 0
M  V30 19 C 1.022313 3.085633 5.544131 0
M  V30 20 C 2.449290 2.912102 5.198523 0
M  V30 21 N 1.498615 5.650332 2.746604 0
M  V30 22 N 1.190417 5.412131 1.491021 0
M  V30 23 C 0.806806 -0.699358 -1.542424 0
M  V30 24 N 0.716652 -2.039287 -1.460410 0
M  V30 25 C -1.847759 -4.723493 -0.766899 0
M  V30 26 C -1.844516 -6.229219 -0.776177 0
M  V30 27 H 0.219195 -6.760082 -2.195864 0
M  V30 28 H 1.441201 -6.785046 -0.909347 0
M  V30 29 H 1.528085 -4.318592 -1.535086 0
M  V30 30 H -2.496430 -2.286598 -0.735663 0
M  V30 31 H -2.324389 0.146617 -0.886447 0
M  V30 32 H -1.047856 2.028742 -1.702074 0
M  V30 33 H 0.729277 1.829663 -2.163260 0
M  V30 34 H 0.486128 4.103849 -0.797690 0
M  V30 35 H 0.993290 2.505638 2.781518 0
M  V30 36 H 2.011422 5.095649 5.558630 0
M  V30 37 H 0.770466 3.112261 6.613193 0
M  V30 38 H 0.290719 2.572339 4.911531 0
M  V30 39 H 3.262391 2.921848 5.920451 0
M  V30 40 H 2.685963 2.280695 4.303156 0
M  V30 41 H 1.742312 6.575366 3.179425 0
M  V30 42 H 1.781398 -0.296402 -1.777424 0
M  V30 43 H -2.647152 -4.363337 -1.470114 0
M  V30 44 H -2.083887 -4.408922 0.289809 0
M  V30 45 H -1.973198 -6.670526 -1.787373 0
M  V30 46 H -2.669330 -6.553488 -0.087614 0
M  V30 END ATOM
M  V30 BEGIN BOND
M  V30 1 3 1 2
M  V30 2 1 2 3
M  V30 3 1 3 4
M  V30 4 1 4 5
M  V30 5 2 5 6
M  V30 6 1 6 7
M  V30 7 2 7 8
M  V30 8 1 8 9
M  V30 9 2 9 10
M  V30 10 1 10 11
M  V30 11 1 11 12
M  V30 12 2 12 13
M  V30 13 1 12 14
M  V30 14 1 14 15
M  V30 15 1 15 16
M  V30 16 2 16 17
M  V30 17 1 17 18
M  V30 18 1 18 19
M  V30 19 1 19 20
M  V30 20 1 17 21
M  V30 21 1 21 22
M  V30 22 1 10 23
M  V30 23 2 23 24
M  V30 24 1 6 25
M  V30 25 1 25 26
M  V30 26 1 26 3
M  V30 27 1 24 7
M  V30 28 2 22 15
M  V30 29 1 20 18
M  V30 30 1 4 27
M  V30 31 1 4 28
M  V30 32 1 5 29
M  V30 33 1 8 30
M  V30 34 1 9 31
M  V30 35 1 11 32
M  V30 36 1 11 33
M  V30 37 1 14 34
M  V30 38 1 16 35
M  V30 39 1 18 36
M  V30 40 1 19 37
M  V30 41 1 19 38
M  V30 42 1 20 39
M  V30 43 1 20 40
M  V30 44 1 21 41
M  V30 45 1 23 42
M  V30 46 1 25 43
M  V30 47 1 25 44
M  V30 48 1 26 45
M  V30 49 1 26 46
M  V30 END BOND
M  V30 END CTAB
M  END
>  <Dataset>  (7) 
ChEMBL_Kinases

>  <Ligand_Instance>  (7) 
nan

>  <PDB_ID>  (7) 
nan

>  <Standardized_SMILES>  (7) 
N#CN1CC=C(c2ccc(CC(=O)Nc3cc(C4CC4)[nH]n3)cn2)CC1

>  <Name>  (7) 
nan

>  <Pocket>  (7) 
nan

>  <ATP_Site>  (7) 
nan

>  <Peripheral>  (7) 
nan

>  <Num_H_Atoms_ProtBoundConf>  (7) 
nan

>  <Num_Resolved_Atoms>  (7) 
nan

>  <Num_Not_Resolved_Atoms>  (7) 
nan

$$$$
CHEMBL4777071
     RDKit          3D

  0  0  0  0  0  0  0  0  0  0999 V3000
M  V30 BEGIN CTAB
M  V30 COUNTS 39 41 0 0 0
M  V30 BEGIN ATOM
M  V30 1 C -1.732178 -6.214091 4.068281 0
M  V30 2 O -1.222299 -5.472927 2.987317 0
M  V30 3 C -0.583502 -4.254955 3.096300 0
M  V30 4 C -0.137970 -3.650636 1.932919 0
M  V30 5 C 0.518819 -2.417377 1.948789 0
M  V30 6 C 0.935490 -1.896672 0.636359 0
M  V30 7 C 1.552116 -2.673654 -0.323296 0
M  V30 8 N 1.805260 -1.893491 -1.415089 0
M  V30 9 N 1.363197 -0.661256 -1.155801 0
M  V30 10 C 1.384676 0.451301 -1.912786 0
M  V30 11 C 0.853685 1.643694 -1.418670 0
M  V30 12 O 0.807453 2.861683 -2.083077 0
M  V30 13 C 1.355287 2.915039 -3.407823 0
M  V30 14 C 0.310612 1.627790 -0.128917 0
M  V30 15 N -0.246901 2.817071 0.429622 0
M  V30 16 C -1.356706 3.448524 -0.242813 0
M  V30 17 C 0.497419 3.144712 1.652660 0
M  V30 18 N 0.297370 0.489298 0.625124 0
M  V30 19 C 0.823359 -0.631799 0.097520 0
M  V30 20 C 0.727365 -1.787375 3.159068 0
M  V30 21 C 0.264384 -2.430922 4.289364 0
M  V30 22 N -0.368643 -3.617846 4.282765 0
M  V30 23 H -1.477592 -7.293809 3.867181 0
M  V30 24 H -1.292223 -5.948718 5.047903 0
M  V30 25 H -2.846838 -6.205388 4.106495 0
M  V30 26 H -0.310674 -4.163419 0.975967 0
M  V30 27 H 1.790742 -3.736639 -0.210690 0
M  V30 28 H 1.795459 0.505402 -2.915076 0
M  V30 29 H 0.795601 2.241939 -4.100284 0
M  V30 30 H 2.408754 2.610480 -3.439362 0
M  V30 31 H 1.218497 3.936950 -3.829411 0
M  V30 32 H -2.090698 2.672207 -0.512717 0
M  V30 33 H -0.993722 4.033816 -1.115920 0
M  V30 34 H -1.894080 4.164603 0.410417 0
M  V30 35 H 1.590651 3.145475 1.454673 0
M  V30 36 H 0.270720 2.329840 2.371546 0
M  V30 37 H 0.126898 4.075064 2.128702 0
M  V30 38 H 1.229179 -0.851816 3.137406 0
M  V30 39 H 0.417996 -1.952904 5.251471 0
M  V30 END ATOM
M  V30 BEGIN BOND
M  V30 1 1 1 2
M  V30 2 1 2 3
M  V30 3 2 3 4
M  V30 4 1 4 5
M  V30 5 1 5 6
M  V30 6 1 6 7
M  V30 7 2 7 8
M  V30 8 1 8 9
M  V30 9 1 9 10
M  V30 10 2 10 11
M  V30 11 1 11 12
M  V30 12 1 12 13
M  V30 13 1 11 14
M  V30 14 1 14 15
M  V30 15 1 15 16
M  V30 16 1 15 17
M  V30 17 2 14 18
M  V30 18 1 18 19
M  V30 19 2 5 20
M  V30 20 1 20 21
M  V30 21 2 21 22
M  V30 22 1 22 3
M  V30 23 2 19 6
M  V30 24 1 19 9
M  V30 25 1 1 23
M  V30 26 1 1 24
M  V30 27 1 1 25
M  V30 28 1 4 26
M  V30 29 1 7 27
M  V30 30 1 10 28
M  V30 31 1 13 29
M  V30 32 1 13 30
M  V30 33 1 13 31
M  V30 34 1 16 32
M  V30 35 1 16 33
M  V30 36 1 16 34
M  V30 37 1 17 35
M  V30 38 1 17 36
M  V30 39 1 17 37
M  V30 40 1 20 38
M  V30 41 1 21 39
M  V30 END BOND
M  V30 END CTAB
M  END
>  <Dataset>  (8) 
ChEMBL_Kinases

>  <Ligand_Instance>  (8) 
nan

>  <PDB_ID>  (8) 
nan

>  <Standardized_SMILES>  (8) 
COc1cc(-c2cnn3cc(OC)c(N(C)C)nc23)ccn1

>  <Name>  (8) 
nan

>  <Pocket>  (8) 
nan

>  <ATP_Site>  (8) 
nan

>  <Peripheral>  (8) 
nan

>  <Num_H_Atoms_ProtBoundConf>  (8) 
nan

>  <Num_Resolved_Atoms>  (8) 
nan

>  <Num_Not_Resolved_Atoms>  (8) 
nan

$$$$
CHEMBL4777114
     RDKit          3D

  0  0  0  0  0  0  0  0  0  0999 V3000
M  V30 BEGIN CTAB
M  V30 COUNTS 45 48 0 0 0
M  V30 BEGIN ATOM
M  V30 1 O -0.384446 -3.136696 1.582864 0
M  V30 2 C 0.378744 -4.021809 2.018257 0
M  V30 3 N 1.704126 -4.035595 1.508391 0
M  V30 4 C 2.260002 -3.141228 0.546460 0
M  V30 5 C 3.545206 -3.139544 0.039547 0
M  V30 6 N 3.641993 -2.133119 -0.834952 0
M  V30 7 N 2.481497 -1.480911 -0.920536 0
M  V30 8 C 2.215816 -0.328543 -1.773774 0
M  V30 9 C 1.798325 0.921586 -1.415692 0
M  V30 10 C 1.630352 1.812395 -2.446592 0
M  V30 11 C 1.180719 3.190605 -2.157239 0
M  V30 12 O 1.015065 4.031703 -3.061875 0
M  V30 13 N 0.901066 3.676390 -0.850558 0
M  V30 14 C 0.464789 5.015652 -0.575888 0
M  V30 15 C 1.131370 5.673139 0.631321 0
M  V30 16 N 0.194120 4.945402 1.466863 0
M  V30 17 C -0.736350 4.987151 0.352876 0
M  V30 18 C 1.884841 1.403156 -3.733738 0
M  V30 19 S 2.404038 -0.399881 -3.426632 0
M  V30 20 C 1.643633 -2.084006 -0.089751 0
M  V30 21 N -0.051096 -4.973637 2.978358 0
M  V30 22 C -1.430928 -4.757810 3.341715 0
M  V30 23 C -1.676697 -3.907573 4.409995 0
M  V30 24 C -3.007969 -3.692346 4.769210 0
M  V30 25 C -4.036497 -4.317975 4.067756 0
M  V30 26 C -3.709477 -5.155958 3.008942 0
M  V30 27 C -2.422767 -5.393648 2.625077 0
M  V30 28 Cl -2.085918 -6.458589 1.285031 0
M  V30 29 H 2.329532 -4.788474 1.888106 0
M  V30 30 H 4.327203 -3.858165 0.329201 0
M  V30 31 H 1.635914 1.106689 -0.363848 0
M  V30 32 H 1.018666 3.023767 -0.039899 0
M  V30 33 H 0.348918 5.680533 -1.441702 0
M  V30 34 H 0.953612 6.756433 0.613704 0
M  V30 35 H 2.159180 5.342359 0.847303 0
M  V30 36 H 0.525347 3.985042 1.690065 0
M  V30 37 H -1.345823 4.072921 0.332363 0
M  V30 38 H -1.308672 5.931003 0.413757 0
M  V30 39 H 1.797820 1.980554 -4.618956 0
M  V30 40 H 0.645805 -1.744740 0.020764 0
M  V30 41 H 0.600470 -5.709616 3.333708 0
M  V30 42 H -0.886367 -3.417076 4.961074 0
M  V30 43 H -3.282414 -3.041175 5.593399 0
M  V30 44 H -5.090393 -4.170916 4.323297 0
M  V30 45 H -4.533522 -5.620453 2.492374 0
M  V30 END ATOM
M  V30 BEGIN BOND
M  V30 1 2 1 2
M  V30 2 1 2 3
M  V30 3 1 3 4
M  V30 4 1 4 5
M  V30 5 2 5 6
M  V30 6 1 6 7
M  V30 7 1 7 8
M  V30 8 2 8 9
M  V30 9 1 9 10
M  V30 10 1 10 11
M  V30 11 2 11 12
M  V30 12 1 11 13
M  V30 13 1 13 14
M  V30 14 1 14 15
M  V30 15 1 15 16
M  V30 16 1 16 17
M  V30 17 2 10 18
M  V30 18 1 18 19
M  V30 19 1 7 20
M  V30 20 1 2 21
M  V30 21 1 21 22
M  V30 22 2 22 23
M  V30 23 1 23 24
M  V30 24 2 24 25
M  V30 25 1 25 26
M  V30 26 2 26 27
M  V30 27 1 27 28
M  V30 28 2 20 4
M  V30 29 1 27 22
M  V30 30 1 19 8
M  V30 31 1 17 14
M  V30 32 1 3 29
M  V30 33 1 5 30
M  V30 34 1 9 31
M  V30 35 1 13 32
M  V30 36 1 14 33
M  V30 37 1 15 34
M  V30 38 1 15 35
M  V30 39 1 16 36
M  V30 40 1 17 37
M  V30 41 1 17 38
M  V30 42 1 18 39
M  V30 43 1 20 40
M  V30 44 1 21 41
M  V30 45 1 23 42
M  V30 46 1 24 43
M  V30 47 1 25 44
M  V30 48 1 26 45
M  V30 END BOND
M  V30 END CTAB
M  END
>  <Dataset>  (9) 
ChEMBL_Kinases

>  <Ligand_Instance>  (9) 
nan

>  <PDB_ID>  (9) 
nan

>  <Standardized_SMILES>  (9) 
O=C(Nc1cnn(-c2cc(C(=O)NC3CNC3)cs2)c1)Nc1ccccc1Cl

>  <Name>  (9) 
nan

>  <Pocket>  (9) 
nan

>  <ATP_Site>  (9) 
nan

>  <Peripheral>  (9) 
nan

>  <Num_H_Atoms_ProtBoundConf>  (9) 
nan

>  <Num_Resolved_Atoms>  (9) 
nan

>  <Num_Not_Resolved_Atoms>  (9) 
nan

$$$$
CHEMBL4777157
     RDKit          3D

  0  0  0  0  0  0  0  0  0  0999 V3000
M  V30 BEGIN CTAB
M  V30 COUNTS 52 55 0 0 0
M  V30 BEGIN ATOM
M  V30 1 N 0.769720 -5.598864 1.073391 0
M  V30 2 C 2.104333 -5.084677 0.728398 0
M  V30 3 C 2.443614 -4.062845 1.774786 0
M  V30 4 C 3.568000 -3.133845 1.376071 0
M  V30 5 C 3.327106 -2.409417 0.089353 0
M  V30 6 C 3.106892 -0.933865 0.274584 0
M  V30 7 O 3.890302 -0.098676 -0.285459 0
M  V30 8 N 2.015205 -0.502420 1.081006 0
M  V30 9 C 1.765268 0.885681 1.286354 0
M  V30 10 C 1.493836 1.695498 0.088698 0
M  V30 11 C 0.346440 1.358898 -0.750901 0
M  V30 12 N -0.956565 1.380774 -0.208920 0
M  V30 13 C -1.649414 2.544436 -0.273973 0
M  V30 14 O -1.128635 3.557039 -0.802801 0
M  V30 15 C -2.921420 2.676578 0.220104 0
M  V30 16 C -3.577822 3.886021 0.125695 0
M  V30 17 C -4.857318 3.957393 0.641523 0
M  V30 18 F -5.489755 5.151995 0.541621 0
M  V30 19 C -5.503426 2.886483 1.240875 0
M  V30 20 C -4.817499 1.687474 1.319660 0
M  V30 21 C -3.546992 1.602108 0.811888 0
M  V30 22 N -2.882507 0.466535 0.880236 0
M  V30 23 C -3.200180 -0.721547 1.376831 0
M  V30 24 S -4.524739 -1.307013 2.112350 0
M  V30 25 N -2.174986 -1.572791 1.206220 0
M  V30 26 N -1.201015 -0.891761 0.588824 0
M  V30 27 C -1.638385 0.380602 0.383728 0
M  V30 28 C 2.082450 -2.957885 -0.546917 0
M  V30 29 C 2.102029 -4.469270 -0.635751 0
M  V30 30 H 0.738057 -5.785187 2.101374 0
M  V30 31 H 0.072459 -4.825731 0.884487 0
M  V30 32 H 2.824664 -5.928176 0.703619 0
M  V30 33 H 2.822919 -4.596105 2.690256 0
M  V30 34 H 1.525912 -3.568922 2.089646 0
M  V30 35 H 4.460751 -3.782931 1.254778 0
M  V30 36 H 3.764649 -2.482757 2.245747 0
M  V30 37 H 4.204813 -2.540045 -0.607248 0
M  V30 38 H 1.414315 -1.242981 1.510203 0
M  V30 39 H 2.644024 1.290739 1.830460 0
M  V30 40 H 0.917031 1.035283 1.999284 0
M  V30 41 H 1.430147 2.773763 0.377249 0
M  V30 42 H 2.398906 1.673585 -0.576427 0
M  V30 43 H 0.491655 0.340863 -1.220227 0
M  V30 44 H 0.371208 2.042738 -1.644939 0
M  V30 45 H -3.120184 4.751870 -0.331680 0
M  V30 46 H -6.497457 3.050917 1.608267 0
M  V30 47 H -5.387907 0.915583 1.795676 0
M  V30 48 H -1.977898 -2.575587 1.429828 0
M  V30 49 H 2.002251 -2.535326 -1.562524 0
M  V30 50 H 1.229056 -2.704915 0.101508 0
M  V30 51 H 2.936150 -4.824813 -1.276157 0
M  V30 52 H 1.154283 -4.751049 -1.136967 0
M  V30 END ATOM
M  V30 BEGIN BOND
M  V30 1 1 1 2
M  V30 2 1 2 3
M  V30 3 1 3 4
M  V30 4 1 4 5
M  V30 5 1 5 6
M  V30 6 2 6 7
M  V30 7 1 6 8
M  V30 8 1 8 9
M  V30 9 1 9 10
M  V30 10 1 10 11
M  V30 11 1 11 12
M  V30 12 1 12 13
M  V30 13 2 13 14
M  V30 14 1 13 15
M  V30 15 2 15 16
M  V30 16 1 16 17
M  V30 17 1 17 18
M  V30 18 2 17 19
M  V30 19 1 19 20
M  V30 20 2 20 21
M  V30 21 1 21 22
M  V30 22 1 22 23
M  V30 23 2 23 24
M  V30 24 1 23 25
M  V30 25 1 25 26
M  V30 26 2 26 27
M  V30 27 1 5 28
M  V30 28 1 28 29
M  V30 29 1 29 2
M  V30 30 1 27 12
M  V30 31 1 21 15
M  V30 32 1 27 22
M  V30 33 1 1 30
M  V30 34 1 1 31
M  V30 35 1 2 32
M  V30 36 1 3 33
M  V30 37 1 3 34
M  V30 38 1 4 35
M  V30 39 1 4 36
M  V30 40 1 5 37
M  V30 41 1 8 38
M  V30 42 1 9 39
M  V30 43 1 9 40
M  V30 44 1 10 41
M  V30 45 1 10 42
M  V30 46 1 11 43
M  V30 47 1 11 44
M  V30 48 1 16 45
M  V30 49 1 19 46
M  V30 50 1 20 47
M  V30 51 1 25 48
M  V30 52 1 28 49
M  V30 53 1 28 50
M  V30 54 1 29 51
M  V30 55 1 29 52
M  V30 END BOND
M  V30 END CTAB
M  END
>  <Dataset>  (10) 
ChEMBL_Kinases

>  <Ligand_Instance>  (10) 
nan

>  <PDB_ID>  (10) 
nan

>  <Standardized_SMILES>  (10) 
NC1CCC(C(=O)NCCCn2c(=O)c3cc(F)ccc3n3c(=S)[nH]nc23)CC1

>  <Name>  (10) 
nan

>  <Pocket>  (10) 
nan

>  <ATP_Site>  (10) 
nan

>  <Peripheral>  (10) 
nan

>  <Num_H_Atoms_ProtBoundConf>  (10) 
nan

>  <Num_Resolved_Atoms>  (10) 
nan

>  <Num_Not_Resolved_Atoms>  (10) 
nan

$$$$
CHEMBL4224693
     RDKit          3D

  0  0  0  0  0  0  0  0  0  0999 V3000
M  V30 BEGIN CTAB
M  V30 COUNTS 54 57 0 0 0
M  V30 BEGIN ATOM
M  V30 1 C 4.246130 1.605320 1.736607 0
M  V30 2 C 4.568763 0.299738 1.049424 0
M  V30 3 C 5.637442 -0.405611 1.814411 0
M  V30 4 N 4.958202 0.541767 -0.346409 0
M  V30 5 C 4.054020 1.066682 -1.297068 0
M  V30 6 C 4.412007 1.318541 -2.625483 0
M  V30 7 C 3.489202 1.822767 -3.536998 0
M  V30 8 C 2.217196 2.054704 -3.057725 0
M  V30 9 C 1.141240 2.546129 -3.763607 0
M  V30 10 N 0.107838 2.609883 -2.909231 0
M  V30 11 N 0.467207 2.189779 -1.709642 0
M  V30 12 C -0.143601 2.018101 -0.428149 0
M  V30 13 C 0.010312 2.891712 0.636621 0
M  V30 14 N -0.572845 2.686283 1.835794 0
M  V30 15 C -1.344123 1.567240 1.991427 0
M  V30 16 C -1.520272 0.674589 0.951764 0
M  V30 17 C -2.342951 -0.530203 1.076258 0
M  V30 18 C -2.445685 -1.335073 -0.055486 0
M  V30 19 C -3.211050 -2.510549 -0.009530 0
M  V30 20 C -3.873930 -2.881809 1.169311 0
M  V30 21 C -4.685050 -4.119106 1.172478 0
M  V30 22 O -4.839034 -4.712842 0.076929 0
M  V30 23 N -5.228425 -4.547985 2.414717 0
M  V30 24 S -6.142714 -6.008263 2.243928 0
M  V30 25 C -5.136109 -7.455613 2.464178 0
M  V30 26 O -7.237931 -5.966241 3.305668 0
M  V30 27 O -6.814822 -6.118585 0.910127 0
M  V30 28 C -3.739950 -2.051887 2.259618 0
M  V30 29 C -2.991542 -0.892360 2.230579 0
M  V30 30 N -0.916458 0.920776 -0.231698 0
M  V30 31 C 1.781943 1.834242 -1.765725 0
M  V30 32 C 2.761675 1.335839 -0.934168 0
M  V30 33 H 3.274277 1.569888 2.285300 0
M  V30 34 H 4.992193 1.826586 2.553500 0
M  V30 35 H 4.212538 2.472426 1.067926 0
M  V30 36 H 3.632955 -0.332079 0.957704 0
M  V30 37 H 5.410086 -1.476096 2.002213 0
M  V30 38 H 5.791581 0.102545 2.787091 0
M  V30 39 H 6.604791 -0.394231 1.238504 0
M  V30 40 H 5.943336 0.303302 -0.598078 0
M  V30 41 H 5.444208 1.100854 -2.896753 0
M  V30 42 H 3.773963 2.014734 -4.560266 0
M  V30 43 H 1.095128 2.835148 -4.803692 0
M  V30 44 H 0.653531 3.741477 0.363388 0
M  V30 45 H -1.802239 1.411107 2.945570 0
M  V30 46 H -1.974122 -1.124860 -0.997134 0
M  V30 47 H -3.278855 -3.134955 -0.917711 0
M  V30 48 H -5.119221 -4.084907 3.334684 0
M  V30 49 H -5.719504 -8.294650 2.912297 0
M  V30 50 H -4.730738 -7.842546 1.503179 0
M  V30 51 H -4.309106 -7.235070 3.174336 0
M  V30 52 H -4.229599 -2.290292 3.190247 0
M  V30 53 H -2.920005 -0.279324 3.107218 0
M  V30 54 H 2.479076 1.139527 0.090257 0
M  V30 END ATOM
M  V30 BEGIN BOND
M  V30 1 1 1 2
M  V30 2 1 2 3
M  V30 3 1 2 4
M  V30 4 1 4 5
M  V30 5 2 5 6
M  V30 6 1 6 7
M  V30 7 2 7 8
M  V30 8 1 8 9
M  V30 9 2 9 10
M  V30 10 1 10 11
M  V30 11 1 11 12
M  V30 12 2 12 13
M  V30 13 1 13 14
M  V30 14 2 14 15
M  V30 15 1 15 16
M  V30 16 1 16 17
M  V30 17 2 17 18
M  V30 18 1 18 19
M  V30 19 2 19 20
M  V30 20 1 20 21
M  V30 21 2 21 22
M  V30 22 1 21 23
M  V30 23 1 23 24
M  V30 24 1 24 25
M  V30 25 2 24 26
M  V30 26 2 24 27
M  V30 27 1 20 28
M  V30 28 2 28 29
M  V30 29 2 16 30
M  V30 30 1 11 31
M  V30 31 2 31 32
M  V30 32 1 32 5
M  V30 33 1 31 8
M  V30 34 1 30 12
M  V30 35 1 29 17
M  V30 36 1 1 33
M  V30 37 1 1 34
M  V30 38 1 1 35
M  V30 39 1 2 36
M  V30 40 1 3 37
M  V30 41 1 3 38
M  V30 42 1 3 39
M  V30 43 1 4 40
M  V30 44 1 6 41
M  V30 45 1 7 42
M  V30 46 1 9 43
M  V30 47 1 13 44
M  V30 48 1 15 45
M  V30 49 1 18 46
M  V30 50 1 19 47
M  V30 51 1 23 48
M  V30 52 1 25 49
M  V30 53 1 25 50
M  V30 54 1 25 51
M  V30 55 1 28 52
M  V30 56 1 29 53
M  V30 57 1 32 54
M  V30 END BOND
M  V30 END CTAB
M  END
>  <Dataset>  (11) 
ChEMBL_Kinases

>  <Ligand_Instance>  (11) 
nan

>  <PDB_ID>  (11) 
nan

>  <Standardized_SMILES>  (11) 
CC(C)Nc1ccc2cnn(-c3cncc(-c4ccc(C(=O)NS(C)(=O)=O)cc4)n3)c2c1

>  <Name>  (11) 
nan

>  <Pocket>  (11) 
nan

>  <ATP_Site>  (11) 
nan

>  <Peripheral>  (11) 
nan

>  <Num_H_Atoms_ProtBoundConf>  (11) 
nan

>  <Num_Resolved_Atoms>  (11) 
nan

>  <Num_Not_Resolved_Atoms>  (11) 
nan

$$$$
CHEMBL4777194
     RDKit          3D

  0  0  0  0  0  0  0  0  0  0999 V3000
M  V30 BEGIN CTAB
M  V30 COUNTS 62 66 0 0 0
M  V30 BEGIN ATOM
M  V30 1 C 5.762007 -2.573174 4.753656 0
M  V30 2 C 6.209520 -2.048962 3.454911 0
M  V30 3 O 7.011403 -2.763913 2.770384 0
M  V30 4 C 5.759130 -0.753186 2.951441 0
M  V30 5 C 4.887348 0.079358 3.640564 0
M  V30 6 C 4.474661 1.299683 3.146585 0
M  V30 7 C 4.935675 1.731917 1.916018 0
M  V30 8 S 4.467314 3.266970 1.206615 0
M  V30 9 O 4.207073 4.222294 2.354651 0
M  V30 10 O 5.587310 3.798317 0.389927 0
M  V30 11 N 3.072333 3.157405 0.234818 0
M  V30 12 C 1.776755 2.763817 0.669829 0
M  V30 13 C 1.176099 3.232589 1.844004 0
M  V30 14 C -0.098119 2.801332 2.205742 0
M  V30 15 C -0.763814 1.905887 1.393933 0
M  V30 16 C -2.101346 1.460074 1.783678 0
M  V30 17 N -2.896160 0.597463 1.122343 0
M  V30 18 C -4.062160 0.420923 1.778923 0
M  V30 19 C -5.009448 -0.497197 1.154864 0
M  V30 20 C -6.314217 -0.077345 0.939074 0
M  V30 21 C -7.194247 -0.977024 0.341172 0
M  V30 22 N -6.838988 -2.224059 -0.033259 0
M  V30 23 C -5.589006 -2.627255 0.173108 0
M  V30 24 N -4.993336 -3.891126 -0.138811 0
M  V30 25 C -4.391695 -4.020492 -1.421561 0
M  V30 26 C -4.397946 -2.960846 -2.303494 0
M  V30 27 C -3.819398 -3.055861 -3.560748 0
M  V30 28 C -3.223557 -4.259317 -3.920311 0
M  V30 29 O -2.680802 -4.218010 -5.209984 0
M  V30 30 C -1.313717 -3.784892 -5.268668 0
M  V30 31 F -1.320850 -2.498119 -4.726745 0
M  V30 32 F -0.823737 -3.782583 -6.545744 0
M  V30 33 F -0.578699 -4.567722 -4.392833 0
M  V30 34 C -3.197084 -5.344830 -3.063290 0
M  V30 35 C -3.787406 -5.190559 -1.828952 0
M  V30 36 C -4.648751 -1.786187 0.765968 0
M  V30 37 N -3.957571 1.205273 2.868157 0
M  V30 38 O -2.786447 1.809832 2.846951 0
M  V30 39 C -0.217811 1.412515 0.226178 0
M  V30 40 C 1.044933 1.857389 -0.106151 0
M  V30 41 C 5.815458 0.915161 1.197307 0
M  V30 42 C 6.219254 -0.317011 1.718506 0
M  V30 43 H 5.810722 -3.685649 4.741481 0
M  V30 44 H 6.418095 -2.253308 5.594082 0
M  V30 45 H 4.703673 -2.258398 4.906685 0
M  V30 46 H 4.515973 -0.248625 4.611831 0
M  V30 47 H 3.792882 1.935234 3.701081 0
M  V30 48 H 3.091785 3.388320 -0.802832 0
M  V30 49 H 1.774492 3.929375 2.412277 0
M  V30 50 H -0.504532 3.208466 3.134554 0
M  V30 51 H -6.676785 0.919148 1.215567 0
M  V30 52 H -8.213786 -0.680474 0.160611 0
M  V30 53 H -4.972886 -4.711317 0.505635 0
M  V30 54 H -4.866313 -2.029971 -2.007943 0
M  V30 55 H -3.869736 -2.177730 -4.187292 0
M  V30 56 H -2.716941 -6.225401 -3.428431 0
M  V30 57 H -3.766415 -6.038408 -1.160406 0
M  V30 58 H -3.602285 -2.018588 0.978896 0
M  V30 59 H -0.754483 0.714810 -0.392187 0
M  V30 60 H 1.497159 1.486878 -1.016353 0
M  V30 61 H 6.230984 1.164835 0.227053 0
M  V30 62 H 6.907251 -0.959961 1.160641 0
M  V30 END ATOM
M  V30 BEGIN BOND
M  V30 1 1 1 2
M  V30 2 2 2 3
M  V30 3 1 2 4
M  V30 4 2 4 5
M  V30 5 1 5 6
M  V30 6 2 6 7
M  V30 7 1 7 8
M  V30 8 2 8 9
M  V30 9 2 8 10
M  V30 10 1 8 11
M  V30 11 1 11 12
M  V30 12 2 12 13
M  V30 13 1 13 14
M  V30 14 2 14 15
M  V30 15 1 15 16
M  V30 16 2 16 17
M  V30 17 1 17 18
M  V30 18 1 18 19
M  V30 19 2 19 20
M  V30 20 1 20 21
M  V30 21 2 21 22
M  V30 22 1 22 23
M  V30 23 1 23 24
M  V30 24 1 24 25
M  V30 25 2 25 26
M  V30 26 1 26 27
M  V30 27 2 27 28
M  V30 28 1 28 29
M  V30 29 1 29 30
M  V30 30 1 30 31
M  V30 31 1 30 32
M  V30 32 1 30 33
M  V30 33 1 28 34
M  V30 34 2 34 35
M  V30 35 2 23 36
M  V30 36 2 18 37
M  V30 37 1 37 38
M  V30 38 1 15 39
M  V30 39 2 39 40
M  V30 40 1 7 41
M  V30 41 2 41 42
M  V30 42 1 42 4
M  V30 43 1 40 12
M  V30 44 1 38 16
M  V30 45 1 36 19
M  V30 46 1 35 25
M  V30 47 1 1 43
M  V30 48 1 1 44
M  V30 49 1 1 45
M  V30 50 1 5 46
M  V30 51 1 6 47
M  V30 52 1 11 48
M  V30 53 1 13 49
M  V30 54 1 14 50
M  V30 55 1 20 51
M  V30 56 1 21 52
M  V30 57 1 24 53
M  V30 58 1 26 54
M  V30 59 1 27 55
M  V30 60 1 34 56
M  V30 61 1 35 57
M  V30 62 1 36 58
M  V30 63 1 39 59
M  V30 64 1 40 60
M  V30 65 1 41 61
M  V30 66 1 42 62
M  V30 END BOND
M  V30 END CTAB
M  END
>  <Dataset>  (12) 
ChEMBL_Kinases

>  <Ligand_Instance>  (12) 
nan

>  <PDB_ID>  (12) 
nan

>  <Standardized_SMILES>  (12) 
CC(=O)c1ccc(S(=O)(=O)Nc2ccc(-c3nc(-c4ccnc(Nc5ccc(OC(F)(F)F)cc5)c4)no3)cc2)cc1

>  <Name>  (12) 
nan

>  <Pocket>  (12) 
nan

>  <ATP_Site>  (12) 
nan

>  <Peripheral>  (12) 
nan

>  <Num_H_Atoms_ProtBoundConf>  (12) 
nan

>  <Num_Resolved_Atoms>  (12) 
nan

>  <Num_Not_Resolved_Atoms>  (12) 
nan

$$$$
CHEMBL4777264
     RDKit          3D

  0  0  0  0  0  0  0  0  0  0999 V3000
M  V30 BEGIN CTAB
M  V30 COUNTS 50 54 0 0 0
M  V30 BEGIN ATOM
M  V30 1 C 2.094463 -4.194514 3.000368 0
M  V30 2 S 3.142041 -3.915325 1.601170 0
M  V30 3 O 4.586856 -4.017241 2.013717 0
M  V30 4 O 2.915688 -5.034900 0.612064 0
M  V30 5 N 2.866254 -2.428844 0.815657 0
M  V30 6 C 3.031904 -1.157896 1.430627 0
M  V30 7 C 3.329588 -1.071892 2.771801 0
M  V30 8 C 3.493098 0.168565 3.383478 0
M  V30 9 C 3.347449 1.285116 2.604292 0
M  V30 10 C 3.050876 1.290792 1.257166 0
M  V30 11 C 2.897875 2.494637 0.466399 0
M  V30 12 O 3.893556 3.215032 0.732393 0
M  V30 13 C 1.932166 2.987826 -0.473416 0
M  V30 14 N 2.231355 4.082145 -1.193608 0
M  V30 15 N 1.180040 4.352785 -1.993053 0
M  V30 16 C 0.188887 3.464183 -1.819948 0
M  V30 17 N -1.028435 3.320261 -2.368337 0
M  V30 18 C -1.835520 2.316290 -1.991702 0
M  V30 19 C -1.351738 1.447609 -1.018430 0
M  V30 20 C -2.184972 0.337807 -0.561526 0
M  V30 21 C -3.538556 0.602153 -0.581203 0
M  V30 22 C -4.511471 -0.312371 -0.185817 0
M  V30 23 C -4.063478 -1.560859 0.251036 0
M  V30 24 C -2.711751 -1.830943 0.272952 0
M  V30 25 C -1.768490 -0.902484 -0.125922 0
M  V30 26 O -2.181709 -3.054526 0.696019 0
M  V30 27 C -3.014883 -4.099845 1.165304 0
M  V30 28 C -4.431114 -3.944084 0.635645 0
M  V30 29 O -4.873257 -2.595408 0.681022 0
M  V30 30 C -0.114394 1.566205 -0.438901 0
M  V30 31 C 0.672390 2.606995 -0.858522 0
M  V30 32 C 2.904264 0.023767 0.726704 0
M  V30 33 F 2.611152 -0.091169 -0.590935 0
M  V30 34 H 2.720340 -4.131999 3.919512 0
M  V30 35 H 1.612163 -5.186004 2.898713 0
M  V30 36 H 1.321221 -3.393202 3.005363 0
M  V30 37 H 2.547873 -2.411622 -0.200873 0
M  V30 38 H 3.452328 -1.916303 3.410478 0
M  V30 39 H 3.725611 0.241774 4.432307 0
M  V30 40 H 3.478089 2.257194 3.094330 0
M  V30 41 H 1.214356 5.179336 -2.644265 0
M  V30 42 H -2.817316 2.213513 -2.446266 0
M  V30 43 H -3.962500 1.539095 -0.903783 0
M  V30 44 H -5.565751 -0.147423 -0.186687 0
M  V30 45 H -0.699548 -1.054181 -0.131868 0
M  V30 46 H -2.983687 -4.228697 2.266114 0
M  V30 47 H -2.626601 -5.039879 0.720127 0
M  V30 48 H -5.121786 -4.600403 1.160962 0
M  V30 49 H -4.415341 -4.219925 -0.457313 0
M  V30 50 H 0.261934 0.907421 0.315924 0
M  V30 END ATOM
M  V30 BEGIN BOND
M  V30 1 1 1 2
M  V30 2 2 2 3
M  V30 3 2 2 4
M  V30 4 1 2 5
M  V30 5 1 5 6
M  V30 6 2 6 7
M  V30 7 1 7 8
M  V30 8 2 8 9
M  V30 9 1 9 10
M  V30 10 1 10 11
M  V30 11 2 11 12
M  V30 12 1 11 13
M  V30 13 2 13 14
M  V30 14 1 14 15
M  V30 15 1 15 16
M  V30 16 2 16 17
M  V30 17 1 17 18
M  V30 18 2 18 19
M  V30 19 1 19 20
M  V30 20 2 20 21
M  V30 21 1 21 22
M  V30 22 2 22 23
M  V30 23 1 23 24
M  V30 24 2 24 25
M  V30 25 1 24 26
M  V30 26 1 26 27
M  V30 27 1 27 28
M  V30 28 1 28 29
M  V30 29 1 19 30
M  V30 30 2 30 31
M  V30 31 2 10 32
M  V30 32 1 32 33
M  V30 33 1 32 6
M  V30 34 1 31 13
M  V30 35 1 31 16
M  V30 36 1 25 20
M  V30 37 1 29 23
M  V30 38 1 1 34
M  V30 39 1 1 35
M  V30 40 1 1 36
M  V30 41 1 5 37
M  V30 42 1 7 38
M  V30 43 1 8 39
M  V30 44 1 9 40
M  V30 45 1 15 41
M  V30 46 1 18 42
M  V30 47 1 21 43
M  V30 48 1 22 44
M  V30 49 1 25 45
M  V30 50 1 27 46
M  V30 51 1 27 47
M  V30 52 1 28 48
M  V30 53 1 28 49
M  V30 54 1 30 50
M  V30 END BOND
M  V30 END CTAB
M  END
>  <Dataset>  (13) 
ChEMBL_Kinases

>  <Ligand_Instance>  (13) 
nan

>  <PDB_ID>  (13) 
nan

>  <Standardized_SMILES>  (13) 
CS(=O)(=O)Nc1cccc(C(=O)c2n[nH]c3ncc(-c4ccc5c(c4)OCCO5)cc23)c1F

>  <Name>  (13) 
nan

>  <Pocket>  (13) 
nan

>  <ATP_Site>  (13) 
nan

>  <Peripheral>  (13) 
nan

>  <Num_H_Atoms_ProtBoundConf>  (13) 
nan

>  <Num_Resolved_Atoms>  (13) 
nan

>  <Num_Not_Resolved_Atoms>  (13) 
nan

$$$$
CHEMBL4218994
     RDKit          3D

  0  0  0  0  0  0  0  0  0  0999 V3000
M  V30 BEGIN CTAB
M  V30 COUNTS 53 57 0 0 0
M  V30 BEGIN ATOM
M  V30 1 O 1.953587 1.803393 -0.410499 0
M  V30 2 C 1.181863 0.874435 -0.077916 0
M  V30 3 N 1.518567 -0.525447 -0.213781 0
M  V30 4 C 2.802762 -0.874300 -0.754003 0
M  V30 5 C 3.963402 -0.416349 0.079103 0
M  V30 6 N 4.104285 -0.955983 1.364612 0
M  V30 7 C 3.138506 -0.586420 2.334599 0
M  V30 8 C 3.451956 0.871041 2.696127 0
M  V30 9 C 4.898111 0.996433 2.330477 0
M  V30 10 C 5.328459 -0.388119 1.953017 0
M  V30 11 C -0.109002 1.276377 0.468624 0
M  V30 12 C -0.392452 2.622913 0.558571 0
M  V30 13 C -1.593303 3.133248 1.067133 0
M  V30 14 C -2.559837 2.254342 1.508388 0
M  V30 15 C -2.285562 0.905753 1.422446 0
M  V30 16 C -3.243118 -0.108526 1.862966 0
M  V30 17 C -3.944379 -0.018218 3.059771 0
M  V30 18 N -4.719222 -1.121568 3.120730 0
M  V30 19 C -4.500522 -1.850823 2.012509 0
M  V30 20 C -5.015337 -3.054783 1.559968 0
M  V30 21 C -4.644852 -3.654119 0.349518 0
M  V30 22 C -3.712714 -2.951359 -0.378546 0
M  V30 23 C -3.274097 -3.490327 -1.636407 0
M  V30 24 C -2.395644 -3.058752 -2.554083 0
M  V30 25 C -2.139144 -3.761998 -3.698718 0
M  V30 26 C -2.919935 -5.015909 -3.802650 0
M  V30 27 S -3.914047 -5.030144 -2.262565 0
M  V30 28 N -3.207278 -1.782830 0.051797 0
M  V30 29 N -3.583949 -1.240639 1.211699 0
M  V30 30 C -1.091795 0.417822 0.916169 0
M  V30 31 H 0.846757 -1.279354 0.072855 0
M  V30 32 H 2.873593 -2.005134 -0.812324 0
M  V30 33 H 2.911964 -0.537978 -1.818022 0
M  V30 34 H 4.899411 -0.679753 -0.513475 0
M  V30 35 H 3.926684 0.716950 0.157506 0
M  V30 36 H 2.087868 -0.652128 2.071493 0
M  V30 37 H 3.250016 -1.195754 3.281372 0
M  V30 38 H 2.793657 1.587097 2.193145 0
M  V30 39 H 3.342954 1.000736 3.806141 0
M  V30 40 H 5.030494 1.750751 1.512779 0
M  V30 41 H 5.490717 1.316183 3.222273 0
M  V30 42 H 5.579712 -0.915302 2.898122 0
M  V30 43 H 6.145365 -0.322322 1.235397 0
M  V30 44 H 0.310995 3.405517 0.233964 0
M  V30 45 H -1.769702 4.212373 1.116623 0
M  V30 46 H -3.495469 2.583278 1.906825 0
M  V30 47 H -3.918878 0.745042 3.819844 0
M  V30 48 H -5.742212 -3.533412 2.201706 0
M  V30 49 H -5.094622 -4.596555 0.069932 0
M  V30 50 H -1.892508 -2.124751 -2.352760 0
M  V30 51 H -1.447467 -3.470042 -4.472984 0
M  V30 52 H -2.738435 -5.654674 -4.760542 0
M  V30 53 H -0.900137 -0.633892 0.858679 0
M  V30 END ATOM
M  V30 BEGIN BOND
M  V30 1 2 1 2
M  V30 2 1 2 3
M  V30 3 1 3 4
M  V30 4 1 4 5
M  V30 5 1 5 6
M  V30 6 1 6 7
M  V30 7 1 7 8
M  V30 8 1 8 9
M  V30 9 1 9 10
M  V30 10 1 2 11
M  V30 11 2 11 12
M  V30 12 1 12 13
M  V30 13 2 13 14
M  V30 14 1 14 15
M  V30 15 1 15 16
M  V30 16 2 16 17
M  V30 17 1 17 18
M  V30 18 2 18 19
M  V30 19 1 19 20
M  V30 20 2 20 21
M  V30 21 1 21 22
M  V30 22 1 22 23
M  V30 23 2 23 24
M  V30 24 1 24 25
M  V30 25 2 25 26
M  V30 26 1 26 27
M  V30 27 2 22 28
M  V30 28 1 28 29
M  V30 29 2 15 30
M  V30 30 1 10 6
M  V30 31 1 30 11
M  V30 32 1 29 16
M  V30 33 1 29 19
M  V30 34 1 27 23
M  V30 35 1 3 31
M  V30 36 1 4 32
M  V30 37 1 4 33
M  V30 38 1 5 34
M  V30 39 1 5 35
M  V30 40 1 7 36
M  V30 41 1 7 37
M  V30 42 1 8 38
M  V30 43 1 8 39
M  V30 44 1 9 40
M  V30 45 1 9 41
M  V30 46 1 10 42
M  V30 47 1 10 43
M  V30 48 1 12 44
M  V30 49 1 13 45
M  V30 50 1 14 46
M  V30 51 1 17 47
M  V30 52 1 20 48
M  V30 53 1 21 49
M  V30 54 1 24 50
M  V30 55 1 25 51
M  V30 56 1 26 52
M  V30 57 1 30 53
M  V30 END BOND
M  V30 END CTAB
M  END
>  <Dataset>  (14) 
ChEMBL_Kinases

>  <Ligand_Instance>  (14) 
nan

>  <PDB_ID>  (14) 
nan

>  <Standardized_SMILES>  (14) 
O=C(NCCN1CCCC1)c1cccc(-c2cnc3ccc(-c4cccs4)nn23)c1

>  <Name>  (14) 
nan

>  <Pocket>  (14) 
nan

>  <ATP_Site>  (14) 
nan

>  <Peripheral>  (14) 
nan

>  <Num_H_Atoms_ProtBoundConf>  (14) 
nan

>  <Num_Resolved_Atoms>  (14) 
nan

>  <Num_Not_Resolved_Atoms>  (14) 
nan

$$$$
CHEMBL4777342
     RDKit          3D

  0  0  0  0  0  0  0  0  0  0999 V3000
M  V30 BEGIN CTAB
M  V30 COUNTS 42 45 0 0 0
M  V30 BEGIN ATOM
M  V30 1 C -1.844826 -3.206352 4.895455 0
M  V30 2 N -1.339896 -2.621440 3.666803 0
M  V30 3 C -0.577684 -1.514900 3.681171 0
M  V30 4 C -0.258651 -1.211644 2.358496 0
M  V30 5 N 0.505767 -0.164043 1.757048 0
M  V30 6 C 1.863734 0.045751 1.415911 0
M  V30 7 O 2.672396 -0.858188 1.697271 0
M  V30 8 C 2.285842 1.277149 0.756404 0
M  V30 9 C 3.259484 1.125558 -0.242974 0
M  V30 10 N 3.561197 2.330616 -0.799410 0
M  V30 11 N 2.805502 3.260932 -0.183814 0
M  V30 12 C 2.661549 4.587029 -0.307107 0
M  V30 13 C 1.763372 5.282652 0.490014 0
M  V30 14 C 0.993433 4.592257 1.440886 0
M  V30 15 N 1.164453 3.245579 1.541305 0
M  V30 16 C 2.057993 2.629127 0.731497 0
M  V30 17 C -0.882712 -2.214540 1.574070 0
M  V30 18 C -0.739192 -2.230303 0.099565 0
M  V30 19 C -1.214116 -1.029713 -0.458616 0
M  V30 20 C -1.181733 -0.756428 -1.811202 0
M  V30 21 Cl -1.759126 0.725711 -2.549634 0
M  V30 22 C -0.646616 -1.757102 -2.605817 0
M  V30 23 C -0.174496 -2.945176 -2.100366 0
M  V30 24 C -0.208183 -3.213081 -0.747778 0
M  V30 25 O 0.201721 -4.321755 -0.043814 0
M  V30 26 C 0.742555 -5.492999 -0.600316 0
M  V30 27 F 2.133136 -5.391203 -0.363257 0
M  V30 28 F 0.218572 -6.655243 -0.110912 0
M  V30 29 N -1.525236 -3.043914 2.418749 0
M  V30 30 H -1.891748 -2.403308 5.689603 0
M  V30 31 H -2.901547 -3.485531 4.746623 0
M  V30 32 H -1.222607 -3.999484 5.315383 0
M  V30 33 H -0.188328 -0.838744 4.417287 0
M  V30 34 H -0.128208 0.652074 1.550817 0
M  V30 35 H 3.825535 0.278110 -0.659672 0
M  V30 36 H 3.270970 5.102274 -1.066121 0
M  V30 37 H 1.686001 6.344266 0.363054 0
M  V30 38 H 0.280805 5.116113 2.082886 0
M  V30 39 H -1.653298 -0.197256 0.082770 0
M  V30 40 H -0.565236 -1.668294 -3.663466 0
M  V30 41 H 0.234160 -3.730936 -2.711826 0
M  V30 42 H 0.580154 -5.436168 -1.715250 0
M  V30 END ATOM
M  V30 BEGIN BOND
M  V30 1 1 1 2
M  V30 2 1 2 3
M  V30 3 2 3 4
M  V30 4 1 4 5
M  V30 5 1 5 6
M  V30 6 2 6 7
M  V30 7 1 6 8
M  V30 8 1 8 9
M  V30 9 2 9 10
M  V30 10 1 10 11
M  V30 11 1 11 12
M  V30 12 2 12 13
M  V30 13 1 13 14
M  V30 14 2 14 15
M  V30 15 1 15 16
M  V30 16 1 4 17
M  V30 17 1 17 18
M  V30 18 2 18 19
M  V30 19 1 19 20
M  V30 20 1 20 21
M  V30 21 2 20 22
M  V30 22 1 22 23
M  V30 23 2 23 24
M  V30 24 1 24 25
M  V30 25 1 25 26
M  V30 26 1 26 27
M  V30 27 1 26 28
M  V30 28 2 17 29
M  V30 29 1 29 2
M  V30 30 2 16 8
M  V30 31 1 24 18
M  V30 32 1 16 11
M  V30 33 1 1 30
M  V30 34 1 1 31
M  V30 35 1 1 32
M  V30 36 1 3 33
M  V30 37 1 5 34
M  V30 38 1 9 35
M  V30 39 1 12 36
M  V30 40 1 13 37
M  V30 41 1 14 38
M  V30 42 1 19 39
M  V30 43 1 22 40
M  V30 44 1 23 41
M  V30 45 1 26 42
M  V30 END BOND
M  V30 END CTAB
M  END
>  <Dataset>  (15) 
ChEMBL_Kinases

>  <Ligand_Instance>  (15) 
nan

>  <PDB_ID>  (15) 
nan

>  <Standardized_SMILES>  (15) 
Cn1cc(NC(=O)c2cnn3cccnc23)c(-c2cc(Cl)ccc2OC(F)F)n1

>  <Name>  (15) 
nan

>  <Pocket>  (15) 
nan

>  <ATP_Site>  (15) 
nan

>  <Peripheral>  (15) 
nan

>  <Num_H_Atoms_ProtBoundConf>  (15) 
nan

>  <Num_Resolved_Atoms>  (15) 
nan

>  <Num_Not_Resolved_Atoms>  (15) 
nan

$$$$
CHEMBL4777354
     RDKit          3D

  0  0  0  0  0  0  0  0  0  0999 V3000
M  V30 BEGIN CTAB
M  V30 COUNTS 37 40 0 0 0
M  V30 BEGIN ATOM
M  V30 1 F 0.828483 -4.982086 4.932182 0
M  V30 2 C 0.819588 -4.854769 3.560611 0
M  V30 3 F -0.273162 -5.447580 2.959106 0
M  V30 4 O 2.040345 -5.321783 2.970596 0
M  V30 5 C 2.360003 -4.468087 1.900306 0
M  V30 6 C 3.220220 -4.595874 0.806038 0
M  V30 7 C 3.327674 -3.562704 -0.105075 0
M  V30 8 C 2.592795 -2.402411 0.054437 0
M  V30 9 N 2.633708 -1.290414 -0.865442 0
M  V30 10 C 1.939395 -0.076373 -0.614300 0
M  V30 11 N 2.542135 1.072491 -0.343739 0
M  V30 12 C 1.876204 2.197923 -0.104546 0
M  V30 13 C 0.494276 2.226230 -0.127013 0
M  V30 14 C -0.192290 3.490679 0.116516 0
M  V30 15 F -1.082902 3.446824 1.187980 0
M  V30 16 F 0.775196 4.420982 0.566904 0
M  V30 17 F -0.706779 4.076440 -1.009074 0
M  V30 18 C -0.141412 1.041722 -0.403816 0
M  V30 19 N -1.538361 0.923338 -0.426084 0
M  V30 20 C -2.789005 1.589263 -0.263226 0
M  V30 21 C -4.112075 0.905015 -0.309613 0
M  V30 22 C -3.533005 1.224874 1.020764 0
M  V30 23 N 0.613916 -0.045719 -0.633169 0
M  V30 24 C 1.763929 -2.333650 1.149525 0
M  V30 25 C 1.608660 -3.322673 2.094270 0
M  V30 26 O 0.842739 -3.472940 3.262402 0
M  V30 27 H 3.802801 -5.480916 0.651886 0
M  V30 28 H 3.991278 -3.639904 -0.968735 0
M  V30 29 H 3.172855 -1.344494 -1.737768 0
M  V30 30 H 2.446860 3.104663 0.112445 0
M  V30 31 H -1.866833 -0.064353 -0.659265 0
M  V30 32 H -2.850725 2.645772 -0.613776 0
M  V30 33 H -4.990322 1.489178 -0.608187 0
M  V30 34 H -4.157621 -0.152753 -0.647117 0
M  V30 35 H -3.868400 2.097523 1.589002 0
M  V30 36 H -3.152559 0.381934 1.626501 0
M  V30 37 H 1.160036 -1.431790 1.321446 0
M  V30 END ATOM
M  V30 BEGIN BOND
M  V30 1 1 1 2
M  V30 2 1 2 3
M  V30 3 1 2 4
M  V30 4 1 4 5
M  V30 5 2 5 6
M  V30 6 1 6 7
M  V30 7 2 7 8
M  V30 8 1 8 9
M  V30 9 1 9 10
M  V30 10 2 10 11
M  V30 11 1 11 12
M  V30 12 2 12 13
M  V30 13 1 13 14
M  V30 14 1 14 15
M  V30 15 1 14 16
M  V30 16 1 14 17
M  V30 17 1 13 18
M  V30 18 1 18 19
M  V30 19 1 19 20
M  V30 20 1 20 21
M  V30 21 1 21 22
M  V30 22 2 18 23
M  V30 23 1 8 24
M  V30 24 2 24 25
M  V30 25 1 25 26
M  V30 26 1 26 2
M  V30 27 1 25 5
M  V30 28 1 23 10
M  V30 29 1 22 20
M  V30 30 1 6 27
M  V30 31 1 7 28
M  V30 32 1 9 29
M  V30 33 1 12 30
M  V30 34 1 19 31
M  V30 35 1 20 32
M  V30 36 1 21 33
M  V30 37 1 21 34
M  V30 38 1 22 35
M  V30 39 1 22 36
M  V30 40 1 24 37
M  V30 END BOND
M  V30 END CTAB
M  END
>  <Dataset>  (16) 
ChEMBL_Kinases

>  <Ligand_Instance>  (16) 
nan

>  <PDB_ID>  (16) 
nan

>  <Standardized_SMILES>  (16) 
FC1(F)Oc2ccc(Nc3ncc(C(F)(F)F)c(NC4CC4)n3)cc2O1

>  <Name>  (16) 
nan

>  <Pocket>  (16) 
nan

>  <ATP_Site>  (16) 
nan

>  <Peripheral>  (16) 
nan

>  <Num_H_Atoms_ProtBoundConf>  (16) 
nan

>  <Num_Resolved_Atoms>  (16) 
nan

>  <Num_Not_Resolved_Atoms>  (16) 
nan

$$$$
CHEMBL4777515
     RDKit          3D

  0  0  0  0  0  0  0  0  0  0999 V3000
M  V30 BEGIN CTAB
M  V30 COUNTS 63 67 0 0 0
M  V30 BEGIN ATOM
M  V30 1 O 1.354202 -0.894854 3.348055 0
M  V30 2 C 1.336527 -1.674625 4.327086 0
M  V30 3 C 2.623064 -2.017784 3.666383 0
M  V30 4 C 2.861429 -1.206796 2.461858 0
M  V30 5 C 3.520099 -0.001120 2.731664 0
M  V30 6 C 3.797611 0.833422 1.681867 0
M  V30 7 C 3.439104 0.495895 0.400065 0
M  V30 8 C 2.790705 -0.667487 0.059683 0
M  V30 9 O 2.306169 -1.288322 -1.048764 0
M  V30 10 C 2.365380 -0.718138 -2.366127 0
M  V30 11 C 1.531919 0.512874 -2.445335 0
M  V30 12 C 1.524036 1.302611 -3.702300 0
M  V30 13 C 1.050779 0.630524 -4.931915 0
M  V30 14 C 1.901735 -0.524287 -5.326451 0
M  V30 15 C 2.129877 -0.416224 -6.851480 0
M  V30 16 N 0.872004 -0.313400 -7.521742 0
M  V30 17 C 0.215511 0.968052 -7.245372 0
M  V30 18 C 0.894081 1.637920 -6.073238 0
M  V30 19 C 2.518455 -1.501151 1.138542 0
M  V30 20 N 0.814637 -2.252013 5.481009 0
M  V30 21 C -0.492878 -1.659031 5.851633 0
M  V30 22 N -1.540608 -2.041296 5.491731 0
M  V30 23 C -2.740062 -1.544803 5.792162 0
M  V30 24 C -3.963012 -2.139630 5.291908 0
M  V30 25 C -4.042819 -3.378005 4.638396 0
M  V30 26 N -5.294044 -3.681212 4.260961 0
M  V30 27 C -6.105725 -2.684655 4.631415 0
M  V30 28 N -7.423494 -2.463774 4.502753 0
M  V30 29 C -8.007394 -1.347531 4.963742 0
M  V30 30 C -7.215997 -0.382557 5.599022 0
M  V30 31 F -7.834525 0.734674 6.053718 0
M  V30 32 C -5.869854 -0.637272 5.716036 0
M  V30 33 C -5.282190 -1.777041 5.245010 0
M  V30 34 C -2.685623 -0.416271 6.657704 0
M  V30 35 S -0.821623 -0.229328 6.921193 0
M  V30 36 H 2.498289 -3.098318 3.357544 0
M  V30 37 H 3.480190 -2.036766 4.357970 0
M  V30 38 H 3.852529 0.379418 3.681158 0
M  V30 39 H 4.298234 1.784850 1.766135 0
M  V30 40 H 3.659032 1.108292 -0.440386 0
M  V30 41 H 3.435119 -0.551287 -2.563603 0
M  V30 42 H 1.942775 -1.543643 -3.018064 0
M  V30 43 H 0.429096 0.188961 -2.231363 0
M  V30 44 H 1.707406 1.154901 -1.541352 0
M  V30 45 H 2.603417 1.675149 -3.840185 0
M  V30 46 H 0.888659 2.236631 -3.594342 0
M  V30 47 H 0.021132 0.213190 -4.686655 0
M  V30 48 H 2.893928 -0.570258 -4.859938 0
M  V30 49 H 1.371275 -1.492518 -5.219062 0
M  V30 50 H 2.586969 -1.391631 -7.146740 0
M  V30 51 H 2.863250 0.367484 -7.066429 0
M  V30 52 H 0.912563 -0.502143 -8.532510 0
M  V30 53 H -0.823143 0.731861 -7.006590 0
M  V30 54 H 0.309483 1.586029 -8.148213 0
M  V30 55 H 0.246747 2.472136 -5.761761 0
M  V30 56 H 1.892013 1.991426 -6.346851 0
M  V30 57 H 2.017928 -2.484902 1.173031 0
M  V30 58 H 1.373299 -2.993867 5.926367 0
M  V30 59 H -3.210133 -4.072079 4.426913 0
M  V30 60 H -5.598894 -4.543785 3.762900 0
M  V30 61 H -9.080403 -1.194417 4.844974 0
M  V30 62 H -5.349419 0.154959 6.200505 0
M  V30 63 H -3.404284 0.240397 7.125967 0
M  V30 END ATOM
M  V30 BEGIN BOND
M  V30 1 2 1 2
M  V30 2 1 2 3
M  V30 3 1 3 4
M  V30 4 2 4 5
M  V30 5 1 5 6
M  V30 6 2 6 7
M  V30 7 1 7 8
M  V30 8 1 8 9
M  V30 9 1 9 10
M  V30 10 1 10 11
M  V30 11 1 11 12
M  V30 12 1 12 13
M  V30 13 1 13 14
M  V30 14 1 14 15
M  V30 15 1 15 16
M  V30 16 1 16 17
M  V30 17 1 17 18
M  V30 18 2 8 19
M  V30 19 1 2 20
M  V30 20 1 20 21
M  V30 21 2 21 22
M  V30 22 1 22 23
M  V30 23 1 23 24
M  V30 24 2 24 25
M  V30 25 1 25 26
M  V30 26 1 26 27
M  V30 27 2 27 28
M  V30 28 1 28 29
M  V30 29 2 29 30
M  V30 30 1 30 31
M  V30 31 1 30 32
M  V30 32 2 32 33
M  V30 33 2 23 34
M  V30 34 1 34 35
M  V30 35 1 19 4
M  V30 36 1 35 21
M  V30 37 1 18 13
M  V30 38 1 33 24
M  V30 39 1 33 27
M  V30 40 1 3 36
M  V30 41 1 3 37
M  V30 42 1 5 38
M  V30 43 1 6 39
M  V30 44 1 7 40
M  V30 45 1 10 41
M  V30 46 1 10 42
M  V30 47 1 11 43
M  V30 48 1 11 44
M  V30 49 1 12 45
M  V30 50 1 12 46
M  V30 51 1 13 47
M  V30 52 1 14 48
M  V30 53 1 14 49
M  V30 54 1 15 50
M  V30 55 1 15 51
M  V30 56 1 16 52
M  V30 57 1 17 53
M  V30 58 1 17 54
M  V30 59 1 18 55
M  V30 60 1 18 56
M  V30 61 1 19 57
M  V30 62 1 20 58
M  V30 63 1 25 59
M  V30 64 1 26 60
M  V30 65 1 29 61
M  V30 66 1 32 62
M  V30 67 1 34 63
M  V30 END BOND
M  V30 END CTAB
M  END
>  <Dataset>  (17) 
ChEMBL_Kinases

>  <Ligand_Instance>  (17) 
nan

>  <PDB_ID>  (17) 
nan

>  <Standardized_SMILES>  (17) 
O=C(Cc1cccc(OCCCC2CCNCC2)c1)Nc1nc(-c2c[nH]c3ncc(F)cc23)cs1

>  <Name>  (17) 
nan

>  <Pocket>  (17) 
nan

>  <ATP_Site>  (17) 
nan

>  <Peripheral>  (17) 
nan

>  <Num_H_Atoms_ProtBoundConf>  (17) 
nan

>  <Num_Resolved_Atoms>  (17) 
nan

>  <Num_Not_Resolved_Atoms>  (17) 
nan

$$$$
CHEMBL4777530
     RDKit          3D

  0  0  0  0  0  0  0  0  0  0999 V3000
M  V30 BEGIN CTAB
M  V30 COUNTS 32 34 0 0 0
M  V30 BEGIN ATOM
M  V30 1 O 3.393538 0.484981 2.576638 0
M  V30 2 C 2.622717 -0.474281 2.256763 0
M  V30 3 N 2.933151 -1.808860 2.700622 0
M  V30 4 C 2.050056 -2.832494 2.320363 0
M  V30 5 C 2.349550 -4.093663 2.743734 0
M  V30 6 C 1.513122 -5.135103 2.396715 0
M  V30 7 C 0.398191 -4.866497 1.630871 0
M  V30 8 C 0.133543 -3.587838 1.226699 0
M  V30 9 C 0.934907 -2.525569 1.547364 0
M  V30 10 N 0.702891 -1.198726 1.155327 0
M  V30 11 C 1.500758 -0.065244 1.460692 0
M  V30 12 C 1.245336 1.176485 1.069122 0
M  V30 13 C 0.092758 1.421266 0.283463 0
M  V30 14 O 0.605431 2.590955 0.398686 0
M  V30 15 C -1.029343 1.780041 -0.503493 0
M  V30 16 C -1.834820 0.698562 -0.823047 0
M  V30 17 C -2.975897 0.821906 -1.579079 0
M  V30 18 C -3.254707 2.089617 -1.990580 0
M  V30 19 C -2.547886 3.233023 -1.745784 0
M  V30 20 Cl -2.951634 4.836695 -2.299156 0
M  V30 21 C -1.438174 3.006273 -0.990963 0
M  V30 22 H 3.788685 -1.910207 3.269106 0
M  V30 23 H 3.223859 -4.312866 3.345866 0
M  V30 24 H 1.740489 -6.131165 2.725201 0
M  V30 25 H -0.227234 -5.708923 1.383053 0
M  V30 26 H -0.737663 -3.414186 0.634902 0
M  V30 27 H -0.145445 -1.101641 0.592246 0
M  V30 28 H 2.069715 1.780435 1.488403 0
M  V30 29 H -1.808781 -0.385101 -0.607732 0
M  V30 30 H -3.709680 0.098030 -1.918088 0
M  V30 31 H -4.137970 2.328934 -2.602158 0
M  V30 32 H -0.801575 3.860865 -0.738383 0
M  V30 END ATOM
M  V30 BEGIN BOND
M  V30 1 2 1 2
M  V30 2 1 2 3
M  V30 3 1 3 4
M  V30 4 2 4 5
M  V30 5 1 5 6
M  V30 6 2 6 7
M  V30 7 1 7 8
M  V30 8 2 8 9
M  V30 9 1 9 10
M  V30 10 1 10 11
M  V30 11 2 11 12
M  V30 12 1 12 13
M  V30 13 2 13 14
M  V30 14 1 13 15
M  V30 15 2 15 16
M  V30 16 1 16 17
M  V30 17 2 17 18
M  V30 18 1 18 19
M  V30 19 1 19 20
M  V30 20 2 19 21
M  V30 21 1 11 2
M  V30 22 1 21 15
M  V30 23 1 9 4
M  V30 24 1 3 22
M  V30 25 1 5 23
M  V30 26 1 6 24
M  V30 27 1 7 25
M  V30 28 1 8 26
M  V30 29 1 10 27
M  V30 30 1 12 28
M  V30 31 1 16 29
M  V30 32 1 17 30
M  V30 33 1 18 31
M  V30 34 1 21 32
M  V30 END BOND
M  V30 END CTAB
M  END
>  <Dataset>  (18) 
ChEMBL_Kinases

>  <Ligand_Instance>  (18) 
nan

>  <PDB_ID>  (18) 
nan

>  <Standardized_SMILES>  (18) 
O=C1Nc2ccccc2N/C1=C\C(=O)c1cccc(Cl)c1

>  <Name>  (18) 
nan

>  <Pocket>  (18) 
nan

>  <ATP_Site>  (18) 
nan

>  <Peripheral>  (18) 
nan

>  <Num_H_Atoms_ProtBoundConf>  (18) 
nan

>  <Num_Resolved_Atoms>  (18) 
nan

>  <Num_Not_Resolved_Atoms>  (18) 
nan

$$$$
CHEMBL4777564
     RDKit          3D

  0  0  0  0  0  0  0  0  0  0999 V3000
M  V30 BEGIN CTAB
M  V30 COUNTS 44 47 0 0 0
M  V30 BEGIN ATOM
M  V30 1 O -0.140802 -2.682298 0.544829 0
M  V30 2 C 0.752494 -2.050325 -0.070438 0
M  V30 3 N 2.105724 -2.263232 0.254205 0
M  V30 4 C 2.671680 -3.128903 1.223963 0
M  V30 5 C 2.000154 -3.964219 2.073331 0
M  V30 6 C 2.600897 -4.789100 3.001759 0
M  V30 7 C 3.977631 -4.790365 3.100797 0
M  V30 8 C 4.673597 -3.954176 2.252227 0
M  V30 9 C 4.041806 -3.146336 1.339892 0
M  V30 10 Cl 5.026269 -2.110689 0.297592 0
M  V30 11 N 0.261166 -1.168589 -1.052150 0
M  V30 12 C -1.172227 -1.082798 -1.245967 0
M  V30 13 C -1.670705 0.229175 -1.734628 0
M  V30 14 C -0.807190 1.418850 -1.527009 0
M  V30 15 N -1.234818 2.288184 -0.434199 0
M  V30 16 C -1.285539 1.838983 0.910501 0
M  V30 17 N -0.949255 0.603399 1.313893 0
M  V30 18 C -0.997706 0.179163 2.587171 0
M  V30 19 N -1.410790 1.027578 3.571370 0
M  V30 20 C -1.768743 2.285253 3.269165 0
M  V30 21 N -2.203881 3.321835 3.990073 0
M  V30 22 N -2.419090 4.363895 3.176308 0
M  V30 23 C -2.114736 3.985143 1.906573 0
M  V30 24 C -1.694522 2.652031 1.944505 0
M  V30 25 C 0.656498 1.114558 -1.457359 0
M  V30 26 C 0.971144 -0.279800 -1.956232 0
M  V30 27 H 2.717241 -1.667018 -0.342646 0
M  V30 28 H 0.938643 -4.004968 2.041772 0
M  V30 29 H 2.023944 -5.427366 3.646234 0
M  V30 30 H 4.539491 -5.400978 3.796374 0
M  V30 31 H 5.753225 -3.919941 2.292062 0
M  V30 32 H -1.407700 -1.854630 -2.045162 0
M  V30 33 H -1.734396 -1.461656 -0.363969 0
M  V30 34 H -2.667984 0.389320 -1.232382 0
M  V30 35 H -1.897360 0.150073 -2.835378 0
M  V30 36 H -0.916927 2.083421 -2.443754 0
M  V30 37 H -1.531015 3.301225 -0.580307 0
M  V30 38 H -0.714840 -0.832142 2.864550 0
M  V30 39 H -2.362925 3.344849 5.040253 0
M  V30 40 H -2.182590 4.604281 1.007627 0
M  V30 41 H 1.293060 1.837520 -2.026181 0
M  V30 42 H 1.019396 1.167377 -0.403138 0
M  V30 43 H 0.614194 -0.443732 -2.990447 0
M  V30 44 H 2.045373 -0.433670 -1.828093 0
M  V30 END ATOM
M  V30 BEGIN BOND
M  V30 1 2 1 2
M  V30 2 1 2 3
M  V30 3 1 3 4
M  V30 4 2 4 5
M  V30 5 1 5 6
M  V30 6 2 6 7
M  V30 7 1 7 8
M  V30 8 2 8 9
M  V30 9 1 9 10
M  V30 10 1 2 11
M  V30 11 1 11 12
M  V30 12 1 12 13
M  V30 13 1 13 14
M  V30 14 1 14 15
M  V30 15 1 15 16
M  V30 16 2 16 17
M  V30 17 1 17 18
M  V30 18 2 18 19
M  V30 19 1 19 20
M  V30 20 1 20 21
M  V30 21 1 21 22
M  V30 22 2 22 23
M  V30 23 1 23 24
M  V30 24 1 14 25
M  V30 25 1 25 26
M  V30 26 1 9 4
M  V30 27 1 26 11
M  V30 28 1 24 16
M  V30 29 2 24 20
M  V30 30 1 3 27
M  V30 31 1 5 28
M  V30 32 1 6 29
M  V30 33 1 7 30
M  V30 34 1 8 31
M  V30 35 1 12 32
M  V30 36 1 12 33
M  V30 37 1 13 34
M  V30 38 1 13 35
M  V30 39 1 14 36
M  V30 40 1 15 37
M  V30 41 1 18 38
M  V30 42 1 21 39
M  V30 43 1 23 40
M  V30 44 1 25 41
M  V30 45 1 25 42
M  V30 46 1 26 43
M  V30 47 1 26 44
M  V30 END BOND
M  V30 END CTAB
M  END
>  <Dataset>  (19) 
ChEMBL_Kinases

>  <Ligand_Instance>  (19) 
nan

>  <PDB_ID>  (19) 
nan

>  <Standardized_SMILES>  (19) 
O=C(Nc1ccccc1Cl)N1CCC(Nc2ncnc3[nH]ncc23)CC1

>  <Name>  (19) 
nan

>  <Pocket>  (19) 
nan

>  <ATP_Site>  (19) 
nan

>  <Peripheral>  (19) 
nan

>  <Num_H_Atoms_ProtBoundConf>  (19) 
nan

>  <Num_Resolved_Atoms>  (19) 
nan

>  <Num_Not_Resolved_Atoms>  (19) 
nan

$$$$
CHEMBL4777570
     RDKit          3D

  0  0  0  0  0  0  0  0  0  0999 V3000
M  V30 BEGIN CTAB
M  V30 COUNTS 48 50 0 0 0
M  V30 BEGIN ATOM
M  V30 1 N 4.492873 -3.417345 -2.465942 0
M  V30 2 S 3.995363 -4.899715 -1.762991 0
M  V30 3 O 3.388124 -5.713073 -2.899317 0
M  V30 4 O 5.171519 -5.716947 -1.296736 0
M  V30 5 C 2.769176 -4.724095 -0.518861 0
M  V30 6 C 3.148563 -3.903343 0.654202 0
M  V30 7 C 3.508942 -2.488120 0.431470 0
M  V30 8 C 2.461381 -1.654717 -0.135306 0
M  V30 9 O 1.413394 -2.321310 -0.277830 0
M  V30 10 N 2.542396 -0.315864 -0.488495 0
M  V30 11 C 1.638105 0.640710 -1.023274 0
M  V30 12 C 0.496393 1.064693 -0.177072 0
M  V30 13 C -0.430121 0.017100 0.286879 0
M  V30 14 N -1.564871 0.626221 1.050353 0
M  V30 15 C -2.689659 1.005133 0.416627 0
M  V30 16 O -2.776014 0.839914 -0.834290 0
M  V30 17 C -3.706657 1.560046 1.157252 0
M  V30 18 C -4.872834 1.958982 0.538818 0
M  V30 19 C -5.878455 2.512796 1.303700 0
M  V30 20 F -7.005719 2.889967 0.654346 0
M  V30 21 C -5.777783 2.693478 2.688044 0
M  V30 22 C -4.600524 2.285535 3.280068 0
M  V30 23 C -3.599090 1.734356 2.520458 0
M  V30 24 N -2.473441 1.345592 3.095501 0
M  V30 25 C -2.057572 1.370202 4.348907 0
M  V30 26 S -2.730638 1.882581 5.736687 0
M  V30 27 N -0.820196 0.847886 4.393534 0
M  V30 28 N -0.423309 0.482718 3.184975 0
M  V30 29 C -1.476983 0.802987 2.376679 0
M  V30 30 H 3.727155 -2.746952 -2.475549 0
M  V30 31 H 5.402121 -3.063436 -2.177840 0
M  V30 32 H 1.792404 -4.455801 -0.999207 0
M  V30 33 H 2.552890 -5.763173 -0.105951 0
M  V30 34 H 3.993146 -4.449528 1.168803 0
M  V30 35 H 2.319782 -3.962109 1.394075 0
M  V30 36 H 3.731865 -2.054049 1.455285 0
M  V30 37 H 4.434919 -2.320956 -0.132332 0
M  V30 38 H 3.528710 -0.003570 -0.285594 0
M  V30 39 H 2.245048 1.574012 -1.226803 0
M  V30 40 H 1.256188 0.288830 -2.048996 0
M  V30 41 H 0.925187 1.613444 0.734082 0
M  V30 42 H -0.079158 1.882756 -0.730075 0
M  V30 43 H -0.844861 -0.567957 -0.533213 0
M  V30 44 H 0.020076 -0.680336 1.035914 0
M  V30 45 H -5.012553 1.843457 -0.545276 0
M  V30 46 H -6.645226 3.145883 3.191262 0
M  V30 47 H -4.600217 2.456311 4.337716 0
M  V30 48 H -0.145815 0.689596 5.200038 0
M  V30 END ATOM
M  V30 BEGIN BOND
M  V30 1 1 1 2
M  V30 2 2 2 3
M  V30 3 2 2 4
M  V30 4 1 2 5
M  V30 5 1 5 6
M  V30 6 1 6 7
M  V30 7 1 7 8
M  V30 8 2 8 9
M  V30 9 1 8 10
M  V30 10 1 10 11
M  V30 11 1 11 12
M  V30 12 1 12 13
M  V30 13 1 13 14
M  V30 14 1 14 15
M  V30 15 2 15 16
M  V30 16 1 15 17
M  V30 17 2 17 18
M  V30 18 1 18 19
M  V30 19 1 19 20
M  V30 20 2 19 21
M  V30 21 1 21 22
M  V30 22 2 22 23
M  V30 23 1 23 24
M  V30 24 1 24 25
M  V30 25 2 25 26
M  V30 26 1 25 27
M  V30 27 1 27 28
M  V30 28 2 28 29
M  V30 29 1 29 14
M  V30 30 1 23 17
M  V30 31 1 29 24
M  V30 32 1 1 30
M  V30 33 1 1 31
M  V30 34 1 5 32
M  V30 35 1 5 33
M  V30 36 1 6 34
M  V30 37 1 6 35
M  V30 38 1 7 36
M  V30 39 1 7 37
M  V30 40 1 10 38
M  V30 41 1 11 39
M  V30 42 1 11 40
M  V30 43 1 12 41
M  V30 44 1 12 42
M  V30 45 1 13 43
M  V30 46 1 13 44
M  V30 47 1 18 45
M  V30 48 1 21 46
M  V30 49 1 22 47
M  V30 50 1 27 48
M  V30 END BOND
M  V30 END CTAB
M  END
>  <Dataset>  (20) 
ChEMBL_Kinases

>  <Ligand_Instance>  (20) 
nan

>  <PDB_ID>  (20) 
nan

>  <Standardized_SMILES>  (20) 
NS(=O)(=O)CCCC(=O)NCCCn1c(=O)c2cc(F)ccc2n2c(=S)[nH]nc12

>  <Name>  (20) 
nan

>  <Pocket>  (20) 
nan

>  <ATP_Site>  (20) 
nan

>  <Peripheral>  (20) 
nan

>  <Num_H_Atoms_ProtBoundConf>  (20) 
nan

>  <Num_Resolved_Atoms>  (20) 
nan

>  <Num_Not_Resolved_Atoms>  (20) 
nan

$$$$
CHEMBL4777592
     RDKit          3D

  0  0  0  0  0  0  0  0  0  0999 V3000
M  V30 BEGIN CTAB
M  V30 COUNTS 60 63 0 0 0
M  V30 BEGIN ATOM
M  V30 1 C 4.988840 -1.459046 -0.323254 0
M  V30 2 C 5.752548 -0.527536 0.608844 0
M  V30 3 C 4.859112 0.458748 1.165294 0
M  V30 4 O 4.003296 -0.125070 0.462198 0
M  V30 5 N 4.586913 1.551331 1.976158 0
M  V30 6 C 3.485900 2.377186 2.341241 0
M  V30 7 C 2.809817 3.171996 1.311974 0
M  V30 8 C 2.139478 2.538512 0.170244 0
M  V30 9 C 1.542815 3.623976 -0.720633 0
M  V30 10 C 0.069277 3.729740 -0.705120 0
M  V30 11 C -0.538023 3.371228 0.641396 0
M  V30 12 N -0.112576 2.023096 0.978333 0
M  V30 13 C -0.901598 1.179974 1.817179 0
M  V30 14 S -1.167742 1.457215 3.487528 0
M  V30 15 N -2.235280 -0.059852 3.734411 0
M  V30 16 C -2.253355 -0.596577 2.482635 0
M  V30 17 C -2.939946 -1.761519 2.221487 0
M  V30 18 C -2.943860 -2.307496 0.939191 0
M  V30 19 C -3.655858 -3.532694 0.598649 0
M  V30 20 C -4.834246 -3.895739 1.218302 0
M  V30 21 C -5.405308 -5.061221 0.814963 0
M  V30 22 C -4.828782 -5.832678 -0.161975 0
M  V30 23 N -5.523575 -7.014060 -0.476407 0
M  V30 24 C -3.632044 -5.497936 -0.815195 0
M  V30 25 O -3.239978 -6.426071 -1.765791 0
M  V30 26 C -2.042026 -6.257814 -2.538412 0
M  V30 27 C -3.103455 -4.326397 -0.375868 0
M  V30 28 C -2.250332 -1.663244 -0.062118 0
M  V30 29 N -1.594721 -0.526743 0.246805 0
M  V30 30 C -1.566838 0.027328 1.462342 0
M  V30 31 C 1.114517 1.507681 0.444369 0
M  V30 32 H 5.682523 -2.209630 -0.741632 0
M  V30 33 H 4.201708 -1.998995 0.207621 0
M  V30 34 H 4.542998 -0.928282 -1.184475 0
M  V30 35 H 6.607817 -0.091127 0.056937 0
M  V30 36 H 6.155484 -1.182277 1.406449 0
M  V30 37 H 5.582670 1.683170 2.358181 0
M  V30 38 H 3.912508 3.093841 3.103434 0
M  V30 39 H 2.805297 1.740887 2.960659 0
M  V30 40 H 2.092821 3.917317 1.784081 0
M  V30 41 H 3.595727 3.871763 0.879395 0
M  V30 42 H 2.911601 2.047918 -0.508446 0
M  V30 43 H 1.981474 4.626450 -0.439431 0
M  V30 44 H 1.849405 3.511444 -1.792757 0
M  V30 45 H -0.438177 3.143516 -1.510489 0
M  V30 46 H -0.211057 4.802093 -0.902065 0
M  V30 47 H -0.289324 4.112527 1.410356 0
M  V30 48 H -1.639184 3.378869 0.503490 0
M  V30 49 H -3.503483 -2.327322 2.926614 0
M  V30 50 H -5.191306 -3.210192 1.971802 0
M  V30 51 H -6.330831 -5.349927 1.302884 0
M  V30 52 H -6.047472 -7.881294 -0.478745 0
M  V30 53 H -5.558121 -7.173649 -1.527774 0
M  V30 54 H -1.198380 -6.773786 -2.016522 0
M  V30 55 H -1.823963 -5.174220 -2.589645 0
M  V30 56 H -2.231907 -6.686945 -3.551740 0
M  V30 57 H -2.174921 -4.078590 -0.895007 0
M  V30 58 H -2.224085 -2.052200 -1.079353 0
M  V30 59 H 0.830026 1.076880 -0.565325 0
M  V30 60 H 1.483854 0.620481 0.997604 0
M  V30 END ATOM
M  V30 BEGIN BOND
M  V30 1 1 1 2
M  V30 2 1 2 3
M  V30 3 2 3 4
M  V30 4 1 3 5
M  V30 5 1 5 6
M  V30 6 1 6 7
M  V30 7 1 7 8
M  V30 8 1 8 9
M  V30 9 1 9 10
M  V30 10 1 10 11
M  V30 11 1 11 12
M  V30 12 1 12 13
M  V30 13 1 13 14
M  V30 14 1 14 15
M  V30 15 2 15 16
M  V30 16 1 16 17
M  V30 17 2 17 18
M  V30 18 1 18 19
M  V30 19 2 19 20
M  V30 20 1 20 21
M  V30 21 2 21 22
M  V30 22 1 22 23
M  V30 23 1 22 24
M  V30 24 1 24 25
M  V30 25 1 25 26
M  V30 26 2 24 27
M  V30 27 1 18 28
M  V30 28 2 28 29
M  V30 29 1 29 30
M  V30 30 1 12 31
M  V30 31 1 31 8
M  V30 32 2 30 13
M  V30 33 1 30 16
M  V30 34 1 27 19
M  V30 35 1 1 32
M  V30 36 1 1 33
M  V30 37 1 1 34
M  V30 38 1 2 35
M  V30 39 1 2 36
M  V30 40 1 5 37
M  V30 41 1 6 38
M  V30 42 1 6 39
M  V30 43 1 7 40
M  V30 44 1 7 41
M  V30 45 1 8 42
M  V30 46 1 9 43
M  V30 47 1 9 44
M  V30 48 1 10 45
M  V30 49 1 10 46
M  V30 50 1 11 47
M  V30 51 1 11 48
M  V30 52 1 17 49
M  V30 53 1 20 50
M  V30 54 1 21 51
M  V30 55 1 23 52
M  V30 56 1 23 53
M  V30 57 1 26 54
M  V30 58 1 26 55
M  V30 59 1 26 56
M  V30 60 1 27 57
M  V30 61 1 28 58
M  V30 62 1 31 59
M  V30 63 1 31 60
M  V30 END BOND
M  V30 END CTAB
M  END
>  <Dataset>  (21) 
ChEMBL_Kinases

>  <Ligand_Instance>  (21) 
nan

>  <PDB_ID>  (21) 
nan

>  <Standardized_SMILES>  (21) 
CCC(=O)NCCC1CCCN(c2snc3cc(-c4ccc(N)c(OC)c4)cnc23)C1

>  <Name>  (21) 
nan

>  <Pocket>  (21) 
nan

>  <ATP_Site>  (21) 
nan

>  <Peripheral>  (21) 
nan

>  <Num_H_Atoms_ProtBoundConf>  (21) 
nan

>  <Num_Resolved_Atoms>  (21) 
nan

>  <Num_Not_Resolved_Atoms>  (21) 
nan

$$$$
CHEMBL422468
     RDKit          3D

  0  0  0  0  0  0  0  0  0  0999 V3000
M  V30 BEGIN CTAB
M  V30 COUNTS 79 79 0 0 0
M  V30 BEGIN ATOM
M  V30 1 C 5.518711 1.210263 6.263592 0
M  V30 2 C 4.908295 0.289984 5.206705 0
M  V30 3 C 3.523995 -0.098276 5.625384 0
M  V30 4 C 2.898236 -1.010224 4.601441 0
M  V30 5 C 2.788163 -0.374995 3.241381 0
M  V30 6 C 2.146129 -1.398892 2.328858 0
M  V30 7 C 1.970696 -0.911501 0.930651 0
M  V30 8 C 1.099436 0.318567 0.800725 0
M  V30 9 C 0.990345 0.722616 -0.625869 0
M  V30 10 C 1.257495 1.756410 -1.427480 0
M  V30 11 C 1.859728 2.957042 -0.832796 0
M  V30 12 C 1.060717 4.182547 -1.061581 0
M  V30 13 C -0.322777 4.295852 -0.580442 0
M  V30 14 C -1.353048 3.370116 -1.151832 0
M  V30 15 C -2.719366 3.657548 -0.539105 0
M  V30 16 C -3.811089 2.781918 -1.052846 0
M  V30 17 C -3.513100 1.346240 -0.746527 0
M  V30 18 C -4.616975 0.410743 -1.248487 0
M  V30 19 C -4.181991 -0.949027 -0.867868 0
M  V30 20 C -3.918886 -2.016913 -1.563324 0
M  V30 21 C -3.482008 -3.411083 -1.290857 0
M  V30 22 C -2.581883 -3.638163 -2.504925 0 CFG=2
M  V30 23 C -2.315357 -5.073713 -2.635201 0
M  V30 24 C -1.128759 -5.650211 -2.520567 0
M  V30 25 C -0.960290 -7.111598 -2.669059 0
M  V30 26 O -2.032520 -7.740796 -2.910497 0
M  V30 27 O 0.303964 -7.632113 -2.535074 0
M  V30 28 C 0.655240 -8.994348 -2.643582 0
M  V30 29 C -1.328313 -2.811160 -2.367788 0
M  V30 30 O -0.569469 -2.779453 -3.507765 0
M  V30 31 O -3.366914 -3.085201 -3.536127 0
M  V30 32 C -4.040000 -1.989561 -3.014713 0
M  V30 33 O -4.637680 -1.146102 -3.728982 0
M  V30 34 H 4.819947 2.039883 6.387805 0
M  V30 35 H 6.497860 1.555960 5.887095 0
M  V30 36 H 5.661256 0.584153 7.168255 0
M  V30 37 H 5.564935 -0.592345 5.090655 0
M  V30 38 H 4.945303 0.847460 4.245210 0
M  V30 39 H 3.569480 -0.548892 6.620341 0
M  V30 40 H 2.915437 0.836744 5.733968 0
M  V30 41 H 1.885865 -1.272189 5.015107 0
M  V30 42 H 3.448767 -1.969518 4.573898 0
M  V30 43 H 2.188977 0.538730 3.365045 0
M  V30 44 H 3.789071 -0.118434 2.884864 0
M  V30 45 H 1.228075 -1.779204 2.787856 0
M  V30 46 H 2.856180 -2.250572 2.289612 0
M  V30 47 H 2.948596 -0.785083 0.435300 0
M  V30 48 H 1.451539 -1.735544 0.374833 0
M  V30 49 H 1.639353 1.131689 1.328918 0
M  V30 50 H 0.133270 0.201779 1.289385 0
M  V30 51 H 0.535923 -0.176128 -1.078941 0
M  V30 52 H 1.014115 1.649028 -2.471966 0
M  V30 53 H 2.853853 3.130502 -1.341991 0
M  V30 54 H 2.110199 2.799984 0.252625 0
M  V30 55 H 1.688635 5.050665 -0.692654 0
M  V30 56 H 1.098424 4.365542 -2.198262 0
M  V30 57 H -0.638743 5.379046 -0.737830 0
M  V30 58 H -0.403812 4.178141 0.543703 0
M  V30 59 H -1.468318 3.678968 -2.241180 0
M  V30 60 H -1.118687 2.319070 -1.162766 0
M  V30 61 H -2.638275 3.542180 0.545700 0
M  V30 62 H -2.949699 4.739186 -0.714768 0
M  V30 63 H -4.748840 3.067660 -0.501012 0
M  V30 64 H -4.019870 2.940652 -2.130824 0
M  V30 65 H -3.249975 1.184400 0.300047 0
M  V30 66 H -2.619032 1.044239 -1.366526 0
M  V30 67 H -5.564721 0.641985 -0.681572 0
M  V30 68 H -4.755604 0.603638 -2.303965 0
M  V30 69 H -4.054466 -1.089498 0.217464 0
M  V30 70 H -4.289030 -4.140938 -1.302573 0
M  V30 71 H -2.933907 -3.521841 -0.346610 0
M  V30 72 H -3.203246 -5.674695 -2.844804 0
M  V30 73 H -0.280497 -5.002683 -2.312388 0
M  V30 74 H -0.202450 -9.674971 -2.701775 0
M  V30 75 H 1.291244 -9.114955 -3.544183 0
M  V30 76 H 1.350216 -9.244509 -1.788208 0
M  V30 77 H -1.694480 -1.760839 -2.179515 0
M  V30 78 H -0.768587 -3.192394 -1.515480 0
M  V30 79 H -0.264552 -1.858852 -3.709535 0
M  V30 END ATOM
M  V30 BEGIN BOND
M  V30 1 1 1 2
M  V30 2 1 2 3
M  V30 3 1 3 4
M  V30 4 1 4 5
M  V30 5 1 5 6
M  V30 6 1 6 7
M  V30 7 1 7 8
M  V30 8 1 8 9
M  V30 9 2 9 10
M  V30 10 1 10 11
M  V30 11 1 11 12
M  V30 12 1 12 13
M  V30 13 1 13 14
M  V30 14 1 14 15
M  V30 15 1 15 16
M  V30 16 1 16 17
M  V30 17 1 17 18
M  V30 18 1 18 19
M  V30 19 2 19 20
M  V30 20 1 20 21
M  V30 21 1 21 22
M  V30 22 1 22 23
M  V30 23 2 23 24
M  V30 24 1 24 25
M  V30 25 2 25 26
M  V30 26 1 25 27
M  V30 27 1 27 28
M  V30 28 1 22 29 CFG=1
M  V30 29 1 29 30
M  V30 30 1 22 31
M  V30 31 1 31 32
M  V30 32 2 32 33
M  V30 33 1 32 20
M  V30 34 1 1 34
M  V30 35 1 1 35
M  V30 36 1 1 36
M  V30 37 1 2 37
M  V30 38 1 2 38
M  V30 39 1 3 39
M  V30 40 1 3 40
M  V30 41 1 4 41
M  V30 42 1 4 42
M  V30 43 1 5 43
M  V30 44 1 5 44
M  V30 45 1 6 45
M  V30 46 1 6 46
M  V30 47 1 7 47
M  V30 48 1 7 48
M  V30 49 1 8 49
M  V30 50 1 8 50
M  V30 51 1 9 51
M  V30 52 1 10 52
M  V30 53 1 11 53
M  V30 54 1 11 54
M  V30 55 1 12 55
M  V30 56 1 12 56
M  V30 57 1 13 57
M  V30 58 1 13 58
M  V30 59 1 14 59
M  V30 60 1 14 60
M  V30 61 1 15 61
M  V30 62 1 15 62
M  V30 63 1 16 63
M  V30 64 1 16 64
M  V30 65 1 17 65
M  V30 66 1 17 66
M  V30 67 1 18 67
M  V30 68 1 18 68
M  V30 69 1 19 69
M  V30 70 1 21 70
M  V30 71 1 21 71
M  V30 72 1 23 72
M  V30 73 1 24 73
M  V30 74 1 28 74
M  V30 75 1 28 75
M  V30 76 1 28 76
M  V30 77 1 29 77
M  V30 78 1 29 78
M  V30 79 1 30 79
M  V30 END BOND
M  V30 END CTAB
M  END
>  <Dataset>  (22) 
ChEMBL_Kinases

>  <Ligand_Instance>  (22) 
nan

>  <PDB_ID>  (22) 
nan

>  <Standardized_SMILES>  (22) 
CCCCCCCC/C=C\CCCCCCCC/C=C1/C[C@](/C=C/C(=O)OC)(CO)OC1=O

>  <Name>  (22) 
nan

>  <Pocket>  (22) 
nan

>  <ATP_Site>  (22) 
nan

>  <Peripheral>  (22) 
nan

>  <Num_H_Atoms_ProtBoundConf>  (22) 
nan

>  <Num_Resolved_Atoms>  (22) 
nan

>  <Num_Not_Resolved_Atoms>  (22) 
nan

$$$$
CHEMBL422215
     RDKit          3D

  0  0  0  0  0  0  0  0  0  0999 V3000
M  V30 BEGIN CTAB
M  V30 COUNTS 62 62 0 0 0
M  V30 BEGIN ATOM
M  V30 1 C 1.392315 -5.299049 1.671622 0
M  V30 2 C 1.397712 -4.387755 0.469035 0
M  V30 3 C 0.828143 -3.037022 0.935155 0
M  V30 4 C 1.752195 -2.566252 2.020172 0
M  V30 5 C 1.410263 -1.274229 2.662209 0
M  V30 6 C 1.366790 -0.131768 1.700856 0
M  V30 7 C 2.676517 -0.019827 1.008264 0
M  V30 8 C 2.881208 1.110415 0.088937 0
M  V30 9 C 1.992726 1.327499 -1.061697 0
M  V30 10 C 1.888140 0.183249 -2.013963 0
M  V30 11 C 1.149744 0.595417 -3.227917 0
M  V30 12 C -0.219922 1.117477 -3.208329 0
M  V30 13 C -1.320724 0.251432 -2.789314 0
M  V30 14 C -1.358494 -0.248365 -1.437474 0
M  V30 15 C -2.304099 0.115098 -0.534071 0
M  V30 16 C -3.348289 1.091878 -0.979804 0
M  V30 17 O -3.895772 1.485605 -2.065414 0
M  V30 18 O -3.899100 1.795644 0.120438 0
M  V30 19 C -3.038869 1.412894 1.215412 0 CFG=1
M  V30 20 C -3.755382 1.583116 2.531264 0
M  V30 21 O -4.108459 2.925270 2.652345 0
M  V30 22 C -2.843805 -0.052084 0.840459 0 CFG=2
M  V30 23 O -2.058878 -0.777595 1.722890 0
M  V30 24 C -2.582768 -1.911974 2.380706 0
M  V30 25 C -2.275625 -2.988706 3.337200 0
M  V30 26 O -3.798098 -2.128492 2.045738 0
M  V30 27 H 1.281206 -6.363295 1.345996 0
M  V30 28 H 2.361994 -5.170666 2.194722 0
M  V30 29 H 0.587131 -5.032167 2.411630 0
M  V30 30 H 0.810149 -4.786087 -0.375049 0
M  V30 31 H 2.433706 -4.268949 0.130363 0
M  V30 32 H -0.179530 -3.154902 1.355819 0
M  V30 33 H 0.829379 -2.325744 0.061182 0
M  V30 34 H 1.675210 -3.359234 2.830665 0
M  V30 35 H 2.809648 -2.617876 1.663359 0
M  V30 36 H 2.214091 -1.095275 3.442966 0
M  V30 37 H 0.450101 -1.397956 3.212593 0
M  V30 38 H 1.230500 0.792960 2.304292 0
M  V30 39 H 0.515004 -0.302482 1.015900 0
M  V30 40 H 3.482487 0.029153 1.796605 0
M  V30 41 H 2.910967 -0.972603 0.468882 0
M  V30 42 H 3.934716 1.000758 -0.338577 0
M  V30 43 H 2.980838 2.094434 0.648726 0
M  V30 44 H 2.397841 2.214500 -1.636393 0
M  V30 45 H 0.949559 1.605241 -0.761578 0
M  V30 46 H 1.458314 -0.724355 -1.588075 0
M  V30 47 H 2.928001 -0.082819 -2.354521 0
M  V30 48 H 1.195501 -0.341316 -3.913499 0
M  V30 49 H 1.825754 1.289938 -3.875289 0
M  V30 50 H -0.437804 1.581236 -4.249501 0
M  V30 51 H -0.242971 2.105631 -2.592220 0
M  V30 52 H -1.190193 -0.722949 -3.447962 0
M  V30 53 H -2.319344 0.569698 -3.190157 0
M  V30 54 H -0.762227 -0.937965 -0.875020 0
M  V30 55 H -2.130422 2.012036 1.112757 0
M  V30 56 H -3.028990 1.380016 3.343259 0
M  V30 57 H -4.606801 0.907146 2.594460 0
M  V30 58 H -3.548954 3.440531 3.262572 0
M  V30 59 H -3.876427 -0.475833 0.735913 0
M  V30 60 H -2.978345 -2.964648 4.201685 0
M  V30 61 H -1.267811 -2.916338 3.798125 0
M  V30 62 H -2.420926 -4.003937 2.864362 0
M  V30 END ATOM
M  V30 BEGIN BOND
M  V30 1 1 1 2
M  V30 2 1 2 3
M  V30 3 1 3 4
M  V30 4 1 4 5
M  V30 5 1 5 6
M  V30 6 1 6 7
M  V30 7 1 7 8
M  V30 8 1 8 9
M  V30 9 1 9 10
M  V30 10 1 10 11
M  V30 11 1 11 12
M  V30 12 1 12 13
M  V30 13 1 13 14
M  V30 14 2 14 15
M  V30 15 1 15 16
M  V30 16 2 16 17
M  V30 17 1 16 18
M  V30 18 1 18 19
M  V30 19 1 19 20
M  V30 20 1 20 21
M  V30 21 1 19 22
M  V30 22 1 22 23
M  V30 23 1 23 24
M  V30 24 1 24 25
M  V30 25 2 24 26
M  V30 26 1 22 15
M  V30 27 1 1 27
M  V30 28 1 1 28
M  V30 29 1 1 29
M  V30 30 1 2 30
M  V30 31 1 2 31
M  V30 32 1 3 32
M  V30 33 1 3 33
M  V30 34 1 4 34
M  V30 35 1 4 35
M  V30 36 1 5 36
M  V30 37 1 5 37
M  V30 38 1 6 38
M  V30 39 1 6 39
M  V30 40 1 7 40
M  V30 41 1 7 41
M  V30 42 1 8 42
M  V30 43 1 8 43
M  V30 44 1 9 44
M  V30 45 1 9 45
M  V30 46 1 10 46
M  V30 47 1 10 47
M  V30 48 1 11 48
M  V30 49 1 11 49
M  V30 50 1 12 50
M  V30 51 1 12 51
M  V30 52 1 13 52
M  V30 53 1 13 53
M  V30 54 1 14 54
M  V30 55 1 19 55 CFG=1
M  V30 56 1 20 56
M  V30 57 1 20 57
M  V30 58 1 21 58
M  V30 59 1 22 59 CFG=3
M  V30 60 1 25 60
M  V30 61 1 25 61
M  V30 62 1 25 62
M  V30 END BOND
M  V30 END CTAB
M  END
>  <Dataset>  (23) 
ChEMBL_Kinases

>  <Ligand_Instance>  (23) 
nan

>  <PDB_ID>  (23) 
nan

>  <Standardized_SMILES>  (23) 
CCCCCCCCCCCCC/C=C1\C(=O)O[C@@H](CO)[C@@H]1OC(C)=O

>  <Name>  (23) 
nan

>  <Pocket>  (23) 
nan

>  <ATP_Site>  (23) 
nan

>  <Peripheral>  (23) 
nan

>  <Num_H_Atoms_ProtBoundConf>  (23) 
nan

>  <Num_Resolved_Atoms>  (23) 
nan

>  <Num_Not_Resolved_Atoms>  (23) 
nan

$$$$
CHEMBL4777642
     RDKit          3D

  0  0  0  0  0  0  0  0  0  0999 V3000
M  V30 BEGIN CTAB
M  V30 COUNTS 68 72 0 0 0
M  V30 BEGIN ATOM
M  V30 1 C 1.026520 3.704408 5.038645 0
M  V30 2 O 2.099783 2.920934 4.544583 0
M  V30 3 C 2.102312 1.545422 4.646602 0
M  V30 4 O 1.027891 1.238764 5.223317 0
M  V30 5 C 3.040606 0.551714 4.239618 0
M  V30 6 S 2.627825 -1.152247 4.601691 0
M  V30 7 C 4.164909 -1.853445 3.866380 0
M  V30 8 C 4.854089 -0.711102 3.409473 0
M  V30 9 C 4.238429 0.490923 3.623706 0
M  V30 10 N 4.802891 1.734331 3.230627 0
M  V30 11 C 4.221086 2.630903 2.295503 0
M  V30 12 N 3.093052 2.382260 1.634639 0
M  V30 13 C 2.498500 3.180050 0.747835 0
M  V30 14 N 1.309729 2.911999 0.046682 0
M  V30 15 C 0.479643 1.768090 0.113464 0
M  V30 16 C 0.684383 0.688274 0.923665 0
M  V30 17 C -0.106906 -0.436497 1.008895 0
M  V30 18 C -1.225833 -0.505137 0.205197 0
M  V30 19 N -2.128123 -1.607078 0.187575 0
M  V30 20 C -3.318733 -1.749427 -0.644422 0
M  V30 21 C -2.827840 -2.588859 -1.831702 0
M  V30 22 C -2.153383 -3.778703 -1.249327 0
M  V30 23 N -2.377328 -5.021412 -1.898726 0
M  V30 24 C -3.712662 -5.481719 -1.998308 0
M  V30 25 C -3.884776 -6.195391 -3.321071 0
M  V30 26 C -2.503397 -6.222721 -3.934505 0
M  V30 27 C -1.724907 -5.186694 -3.159041 0
M  V30 28 C -2.464542 -3.967805 0.243107 0
M  V30 29 C -1.957577 -2.779802 1.039386 0
M  V30 30 C -1.474408 0.563233 -0.630628 0
M  V30 31 C -0.660071 1.675656 -0.690609 0
M  V30 32 O -0.951090 2.733942 -1.552217 0
M  V30 33 C -2.082706 2.724334 -2.399763 0
M  V30 34 N 3.148604 4.319776 0.551759 0
M  V30 35 C 4.285465 4.694077 1.146471 0
M  V30 36 C 4.853152 3.828362 2.052878 0
M  V30 37 F 6.002888 4.174793 2.674174 0
M  V30 38 H 0.085699 3.317397 4.591055 0
M  V30 39 H 0.904011 3.583425 6.138658 0
M  V30 40 H 1.118314 4.744079 4.724962 0
M  V30 41 H 4.544361 -2.894910 3.759620 0
M  V30 42 H 5.813687 -0.825485 2.921832 0
M  V30 43 H 5.707543 1.953756 3.692258 0
M  V30 44 H 0.986565 3.671403 -0.625972 0
M  V30 45 H 1.537231 0.661957 1.584088 0
M  V30 46 H 0.114902 -1.257885 1.676782 0
M  V30 47 H -4.139041 -2.259602 -0.097447 0
M  V30 48 H -3.739505 -0.792411 -0.983197 0
M  V30 49 H -3.599065 -2.777155 -2.577454 0
M  V30 50 H -2.061771 -1.933610 -2.336641 0
M  V30 51 H -1.033471 -3.620778 -1.254058 0
M  V30 52 H -3.902088 -6.189360 -1.145077 0
M  V30 53 H -4.497818 -4.686734 -1.875970 0
M  V30 54 H -4.188228 -7.245705 -3.118935 0
M  V30 55 H -4.622542 -5.709614 -3.976336 0
M  V30 56 H -2.042027 -7.212319 -3.814700 0
M  V30 57 H -2.607169 -5.927373 -4.998265 0
M  V30 58 H -1.689023 -4.243809 -3.741067 0
M  V30 59 H -0.679647 -5.548332 -3.015083 0
M  V30 60 H -3.516378 -4.210125 0.419711 0
M  V30 61 H -1.862037 -4.846327 0.550984 0
M  V30 62 H -0.942802 -2.952838 1.380364 0
M  V30 63 H -2.693996 -2.663375 1.877469 0
M  V30 64 H -2.333444 0.610865 -1.308557 0
M  V30 65 H -2.062779 3.627390 -3.038398 0
M  V30 66 H -3.023257 2.765895 -1.780837 0
M  V30 67 H -2.109016 1.788909 -2.964260 0
M  V30 68 H 4.708093 5.667605 0.883685 0
M  V30 END ATOM
M  V30 BEGIN BOND
M  V30 1 1 1 2
M  V30 2 1 2 3
M  V30 3 2 3 4
M  V30 4 1 3 5
M  V30 5 1 5 6
M  V30 6 1 6 7
M  V30 7 2 7 8
M  V30 8 1 8 9
M  V30 9 1 9 10
M  V30 10 1 10 11
M  V30 11 2 11 12
M  V30 12 1 12 13
M  V30 13 1 13 14
M  V30 14 1 14 15
M  V30 15 2 15 16
M  V30 16 1 16 17
M  V30 17 2 17 18
M  V30 18 1 18 19
M  V30 19 1 19 20
M  V30 20 1 20 21
M  V30 21 1 21 22
M  V30 22 1 22 23
M  V30 23 1 23 24
M  V30 24 1 24 25
M  V30 25 1 25 26
M  V30 26 1 26 27
M  V30 27 1 22 28
M  V30 28 1 28 29
M  V30 29 1 18 30
M  V30 30 2 30 31
M  V30 31 1 31 32
M  V30 32 1 32 33
M  V30 33 2 13 34
M  V30 34 1 34 35
M  V30 35 2 35 36
M  V30 36 1 36 37
M  V30 37 2 9 5
M  V30 38 1 36 11
M  V30 39 1 31 15
M  V30 40 1 29 19
M  V30 41 1 27 23
M  V30 42 1 1 38
M  V30 43 1 1 39
M  V30 44 1 1 40
M  V30 45 1 7 41
M  V30 46 1 8 42
M  V30 47 1 10 43
M  V30 48 1 14 44
M  V30 49 1 16 45
M  V30 50 1 17 46
M  V30 51 1 20 47
M  V30 52 1 20 48
M  V30 53 1 21 49
M  V30 54 1 21 50
M  V30 55 1 22 51
M  V30 56 1 24 52
M  V30 57 1 24 53
M  V30 58 1 25 54
M  V30 59 1 25 55
M  V30 60 1 26 56
M  V30 61 1 26 57
M  V30 62 1 27 58
M  V30 63 1 27 59
M  V30 64 1 28 60
M  V30 65 1 28 61
M  V30 66 1 29 62
M  V30 67 1 29 63
M  V30 68 1 30 64
M  V30 69 1 33 65
M  V30 70 1 33 66
M  V30 71 1 33 67
M  V30 72 1 35 68
M  V30 END BOND
M  V30 END CTAB
M  END
>  <Dataset>  (24) 
ChEMBL_Kinases

>  <Ligand_Instance>  (24) 
nan

>  <PDB_ID>  (24) 
nan

>  <Standardized_SMILES>  (24) 
COC(=O)c1sccc1Nc1nc(Nc2ccc(N3CCC(N4CCCC4)CC3)cc2OC)ncc1F

>  <Name>  (24) 
nan

>  <Pocket>  (24) 
nan

>  <ATP_Site>  (24) 
nan

>  <Peripheral>  (24) 
nan

>  <Num_H_Atoms_ProtBoundConf>  (24) 
nan

>  <Num_Resolved_Atoms>  (24) 
nan

>  <Num_Not_Resolved_Atoms>  (24) 
nan

$$$$
CHEMBL4777646
     RDKit          3D

  0  0  0  0  0  0  0  0  0  0999 V3000
M  V30 BEGIN CTAB
M  V30 COUNTS 56 59 0 0 0
M  V30 BEGIN ATOM
M  V30 1 C 0.363048 2.438262 -0.869568 0
M  V30 2 C 1.516038 1.640580 -0.353357 0
M  V30 3 C 2.736983 1.796705 -1.002402 0
M  V30 4 C 3.813760 1.068911 -0.540613 0
M  V30 5 C 3.737583 0.199828 0.526719 0
M  V30 6 C 4.859944 -0.581733 1.035712 0
M  V30 7 O 4.757876 -1.368229 2.013510 0
M  V30 8 N 6.147825 -0.503963 0.455944 0
M  V30 9 C 7.266214 -1.280936 0.961060 0
M  V30 10 C 7.985698 -2.067923 -0.133466 0
M  V30 11 C 8.645513 -0.960628 0.581533 0
M  V30 12 C 2.523842 0.050172 1.165288 0
M  V30 13 C 1.434290 0.768079 0.720150 0
M  V30 14 N 0.110488 0.711486 1.289023 0
M  V30 15 C -0.290455 1.364732 2.403955 0
M  V30 16 C -1.592131 1.220572 2.838994 0
M  V30 17 N -2.440258 0.435144 2.150199 0
M  V30 18 C -2.109615 -0.242413 1.035539 0
M  V30 19 N -2.996974 -1.066608 0.312179 0
M  V30 20 C -4.366387 -1.267242 0.700838 0
M  V30 21 C -5.079769 0.046426 0.701470 0
M  V30 22 C -4.343119 -1.768840 2.149725 0
M  V30 23 C -5.068251 -2.277360 -0.090391 0
M  V30 24 C -6.243398 -2.216565 -0.812929 0
M  V30 25 C -6.704335 -3.329201 -1.487095 0
M  V30 26 C -6.031934 -4.520166 -1.471217 0
M  V30 27 C -4.871055 -4.612764 -0.768650 0
M  V30 28 C -4.383581 -3.498414 -0.077086 0
M  V30 29 C -0.783839 -0.058787 0.644169 0
M  V30 30 O -0.438168 -0.690196 -0.413000 0
M  V30 31 H -0.197853 1.803616 -1.576318 0
M  V30 32 H 0.717247 3.343467 -1.366707 0
M  V30 33 H -0.324831 2.760919 -0.072604 0
M  V30 34 H 2.872622 2.470610 -1.859128 0
M  V30 35 H 4.751787 1.188275 -1.038548 0
M  V30 36 H 6.347302 0.114788 -0.358477 0
M  V30 37 H 7.017771 -1.935683 1.836562 0
M  V30 38 H 8.290703 -3.107337 0.047599 0
M  V30 39 H 7.702002 -1.889557 -1.189193 0
M  V30 40 H 9.438525 -1.199294 1.334273 0
M  V30 41 H 8.795530 0.035524 0.106109 0
M  V30 42 H 2.342812 -0.602213 2.013383 0
M  V30 43 H 0.494664 1.956224 2.850969 0
M  V30 44 H -1.858370 1.762105 3.730882 0
M  V30 45 H -2.628834 -1.542889 -0.537230 0
M  V30 46 H -6.180954 -0.034620 0.803231 0
M  V30 47 H -4.752004 0.609602 1.623627 0
M  V30 48 H -4.757699 0.618713 -0.169373 0
M  V30 49 H -5.240502 -2.369942 2.304374 0
M  V30 50 H -4.319921 -0.863890 2.809583 0
M  V30 51 H -3.418578 -2.363997 2.306529 0
M  V30 52 H -6.694584 -1.235058 -0.761038 0
M  V30 53 H -7.641663 -3.144010 -2.016423 0
M  V30 54 H -6.484807 -5.335513 -2.038103 0
M  V30 55 H -4.360797 -5.563586 -0.772831 0
M  V30 56 H -3.441897 -3.711049 0.445467 0
M  V30 END ATOM
M  V30 BEGIN BOND
M  V30 1 1 1 2
M  V30 2 2 2 3
M  V30 3 1 3 4
M  V30 4 2 4 5
M  V30 5 1 5 6
M  V30 6 2 6 7
M  V30 7 1 6 8
M  V30 8 1 8 9
M  V30 9 1 9 10
M  V30 10 1 10 11
M  V30 11 1 5 12
M  V30 12 2 12 13
M  V30 13 1 13 14
M  V30 14 1 14 15
M  V30 15 2 15 16
M  V30 16 1 16 17
M  V30 17 2 17 18
M  V30 18 1 18 19
M  V30 19 1 19 20
M  V30 20 1 20 21
M  V30 21 1 20 22
M  V30 22 1 20 23
M  V30 23 2 23 24
M  V30 24 1 24 25
M  V30 25 2 25 26
M  V30 26 1 26 27
M  V30 27 2 27 28
M  V30 28 1 18 29
M  V30 29 2 29 30
M  V30 30 1 13 2
M  V30 31 1 29 14
M  V30 32 1 11 9
M  V30 33 1 28 23
M  V30 34 1 1 31
M  V30 35 1 1 32
M  V30 36 1 1 33
M  V30 37 1 3 34
M  V30 38 1 4 35
M  V30 39 1 8 36
M  V30 40 1 9 37
M  V30 41 1 10 38
M  V30 42 1 10 39
M  V30 43 1 11 40
M  V30 44 1 11 41
M  V30 45 1 12 42
M  V30 46 1 15 43
M  V30 47 1 16 44
M  V30 48 1 19 45
M  V30 49 1 21 46
M  V30 50 1 21 47
M  V30 51 1 21 48
M  V30 52 1 22 49
M  V30 53 1 22 50
M  V30 54 1 22 51
M  V30 55 1 24 52
M  V30 56 1 25 53
M  V30 57 1 26 54
M  V30 58 1 27 55
M  V30 59 1 28 56
M  V30 END BOND
M  V30 END CTAB
M  END
>  <Dataset>  (25) 
ChEMBL_Kinases

>  <Ligand_Instance>  (25) 
nan

>  <PDB_ID>  (25) 
nan

>  <Standardized_SMILES>  (25) 
Cc1ccc(C(=O)NC2CC2)cc1-n1ccnc(NC(C)(C)c2ccccc2)c1=O

>  <Name>  (25) 
nan

>  <Pocket>  (25) 
nan

>  <ATP_Site>  (25) 
nan

>  <Peripheral>  (25) 
nan

>  <Num_H_Atoms_ProtBoundConf>  (25) 
nan

>  <Num_Resolved_Atoms>  (25) 
nan

>  <Num_Not_Resolved_Atoms>  (25) 
nan

$$$$
CHEMBL4777657
     RDKit          3D

  0  0  0  0  0  0  0  0  0  0999 V3000
M  V30 BEGIN CTAB
M  V30 COUNTS 54 58 0 0 0
M  V30 BEGIN ATOM
M  V30 1 N 2.961363 -0.273932 6.821964 0
M  V30 2 C 3.089173 -0.543749 5.428636 0
M  V30 3 C 2.591407 0.397494 4.554279 0
M  V30 4 C 2.676688 0.209816 3.185456 0
M  V30 5 N 2.241674 1.027364 2.131016 0
M  V30 6 C 3.159920 2.008585 1.612325 0
M  V30 7 O 4.138797 2.252612 2.346294 0
M  V30 8 C 3.048744 2.726896 0.331848 0
M  V30 9 C 4.294537 3.203536 -0.038117 0
M  V30 10 C 4.397890 3.911138 -1.222123 0
M  V30 11 C 3.250877 4.108845 -1.980413 0
M  V30 12 N 2.057083 3.629972 -1.587689 0
M  V30 13 C 1.918348 2.936632 -0.441167 0
M  V30 14 O 0.620417 2.498963 -0.157433 0
M  V30 15 C 0.199201 1.442725 0.670238 0
M  V30 16 C -1.102140 1.094533 0.345410 0
M  V30 17 C -1.693134 0.068894 1.055540 0
M  V30 18 N -3.047270 -0.388374 0.811433 0
M  V30 19 C -3.100548 -1.426749 -0.157489 0
M  V30 20 O -2.012331 -1.764199 -0.624047 0
M  V30 21 N -4.260973 -2.064046 -0.597435 0
M  V30 22 C -4.443329 -3.084632 -1.531924 0
M  V30 23 C -5.710968 -3.556535 -1.801648 0
M  V30 24 C -5.960749 -4.560295 -2.711075 0
M  V30 25 C -4.935408 -5.156528 -3.412326 0
M  V30 26 Cl -5.373724 -6.421006 -4.541002 0
M  V30 27 C -3.657681 -4.701804 -3.160137 0
M  V30 28 C -2.564369 -5.356056 -3.925269 0
M  V30 29 F -2.512954 -6.717884 -3.671085 0
M  V30 30 F -2.716977 -5.239606 -5.293056 0
M  V30 31 F -1.361326 -4.800875 -3.488972 0
M  V30 32 C -3.450576 -3.705972 -2.252309 0
M  V30 33 C -0.998044 -0.584511 2.058884 0
M  V30 34 C 0.316060 -0.235091 2.389058 0
M  V30 35 C 0.908965 0.798126 1.672420 0
M  V30 36 C 3.282911 -0.962729 2.743167 0
M  V30 37 C 3.778331 -1.898903 3.649830 0
M  V30 38 N 3.675083 -1.677668 4.963083 0
M  V30 39 H 3.428297 0.536624 7.287137 0
M  V30 40 H 2.448776 -0.744070 7.609224 0
M  V30 41 H 2.107222 1.332430 4.817560 0
M  V30 42 H 5.149830 3.013970 0.600076 0
M  V30 43 H 5.380765 4.252118 -1.453469 0
M  V30 44 H 3.361315 4.665294 -2.900905 0
M  V30 45 H -1.684991 1.576624 -0.430862 0
M  V30 46 H -3.961362 -0.061948 1.243749 0
M  V30 47 H -5.121960 -1.669695 -0.108557 0
M  V30 48 H -6.564410 -3.111058 -1.265716 0
M  V30 49 H -6.974653 -4.860872 -2.854540 0
M  V30 50 H -2.438831 -3.424374 -2.126387 0
M  V30 51 H -1.454643 -1.395983 2.626379 0
M  V30 52 H 0.835757 -0.762727 3.177888 0
M  V30 53 H 3.417683 -1.239786 1.703343 0
M  V30 54 H 4.257197 -2.824987 3.307611 0
M  V30 END ATOM
M  V30 BEGIN BOND
M  V30 1 1 1 2
M  V30 2 2 2 3
M  V30 3 1 3 4
M  V30 4 1 4 5
M  V30 5 1 5 6
M  V30 6 2 6 7
M  V30 7 1 6 8
M  V30 8 2 8 9
M  V30 9 1 9 10
M  V30 10 2 10 11
M  V30 11 1 11 12
M  V30 12 2 12 13
M  V30 13 1 13 14
M  V30 14 1 14 15
M  V30 15 2 15 16
M  V30 16 1 16 17
M  V30 17 1 17 18
M  V30 18 1 18 19
M  V30 19 2 19 20
M  V30 20 1 19 21
M  V30 21 1 21 22
M  V30 22 2 22 23
M  V30 23 1 23 24
M  V30 24 2 24 25
M  V30 25 1 25 26
M  V30 26 1 25 27
M  V30 27 1 27 28
M  V30 28 1 28 29
M  V30 29 1 28 30
M  V30 30 1 28 31
M  V30 31 2 27 32
M  V30 32 2 17 33
M  V30 33 1 33 34
M  V30 34 2 34 35
M  V30 35 2 4 36
M  V30 36 1 36 37
M  V30 37 2 37 38
M  V30 38 1 38 2
M  V30 39 1 35 5
M  V30 40 1 13 8
M  V30 41 1 35 15
M  V30 42 1 32 22
M  V30 43 1 1 39
M  V30 44 1 1 40
M  V30 45 1 3 41
M  V30 46 1 9 42
M  V30 47 1 10 43
M  V30 48 1 11 44
M  V30 49 1 16 45
M  V30 50 1 18 46
M  V30 51 1 21 47
M  V30 52 1 23 48
M  V30 53 1 24 49
M  V30 54 1 32 50
M  V30 55 1 33 51
M  V30 56 1 34 52
M  V30 57 1 36 53
M  V30 58 1 37 54
M  V30 END BOND
M  V30 END CTAB
M  END
>  <Dataset>  (26) 
ChEMBL_Kinases

>  <Ligand_Instance>  (26) 
nan

>  <PDB_ID>  (26) 
nan

>  <Standardized_SMILES>  (26) 
Nc1cc(N2C(=O)c3cccnc3Oc3cc(NC(=O)Nc4ccc(Cl)c(C(F)(F)F)c4)ccc32)ccn1

>  <Name>  (26) 
nan

>  <Pocket>  (26) 
nan

>  <ATP_Site>  (26) 
nan

>  <Peripheral>  (26) 
nan

>  <Num_H_Atoms_ProtBoundConf>  (26) 
nan

>  <Num_Resolved_Atoms>  (26) 
nan

>  <Num_Not_Resolved_Atoms>  (26) 
nan

$$$$
CHEMBL4777312
     RDKit          3D

  0  0  0  0  0  0  0  0  0  0999 V3000
M  V30 BEGIN CTAB
M  V30 COUNTS 75 80 0 0 0
M  V30 BEGIN ATOM
M  V30 1 C 0.597175 -2.974159 7.825104 0
M  V30 2 N 0.176309 -2.560132 6.500549 0
M  V30 3 C 0.775213 -1.461106 5.849058 0
M  V30 4 O 1.682414 -0.865027 6.465888 0
M  V30 5 C 0.388090 -0.992173 4.500400 0
M  V30 6 S 1.348169 0.442379 3.945600 0
M  V30 7 C 0.412248 0.502581 2.296502 0
M  V30 8 C 0.828311 1.588798 1.359867 0
M  V30 9 C 1.820909 2.481956 1.631382 0
M  V30 10 C 2.118977 3.452745 0.689758 0
M  V30 11 N 1.406994 3.462966 -0.453188 0
M  V30 12 C 0.422203 2.568890 -0.711328 0
M  V30 13 N -0.221678 2.728819 -1.964556 0
M  V30 14 C -1.359590 3.591713 -1.974711 0
M  V30 15 O -1.707701 4.144756 -0.879072 0
M  V30 16 C -2.138663 3.866941 -3.183409 0
M  V30 17 C -1.519191 3.892459 -4.527583 0
M  V30 18 C -2.469419 2.757735 -4.156896 0
M  V30 19 C 0.087027 1.574268 0.206270 0
M  V30 20 N -0.296030 -0.368391 2.424324 0
M  V30 21 C -0.469498 -1.221171 3.416007 0
M  V30 22 O -1.172644 -2.294075 3.852412 0
M  V30 23 C -2.182061 -3.067026 3.335626 0
M  V30 24 C -3.463661 -2.386039 3.049509 0
M  V30 25 C -3.475841 -1.280093 2.068450 0
M  V30 26 C -2.997913 -1.703831 0.732547 0
M  V30 27 C -2.619481 -2.067025 -0.354356 0
M  V30 28 C -2.183896 -2.519476 -1.646583 0
M  V30 29 C -3.182969 -2.984063 -2.494149 0
M  V30 30 C -2.883881 -3.453185 -3.775278 0
M  V30 31 C -1.557823 -3.447044 -4.191100 0
M  V30 32 C -0.576966 -2.982926 -3.338467 0
M  V30 33 C -0.868811 -2.514177 -2.060353 0
M  V30 34 C 0.357898 -2.076515 -1.344404 0
M  V30 35 N 1.406336 -2.329603 -2.343011 0
M  V30 36 C 2.781842 -2.017151 -2.024083 0
M  V30 37 C 3.313919 -2.785574 -0.837762 0
M  V30 38 C 3.469410 -1.945014 0.394927 0
M  V30 39 C 4.349125 -0.800133 0.108503 0
M  V30 40 O 5.420616 -0.468289 0.683207 0
M  V30 41 N 3.903808 0.027380 -0.968903 0
M  V30 42 C 2.938991 -0.540190 -1.848704 0
M  V30 43 O 2.150876 0.189824 -2.540479 0
M  V30 44 C 0.861979 -2.878458 -3.547019 0
M  V30 45 O 1.528678 -3.194570 -4.562213 0
M  V30 46 H 0.127946 -3.974050 8.041226 0
M  V30 47 H 0.347455 -2.248695 8.620196 0
M  V30 48 H 1.684767 -3.150776 7.788321 0
M  V30 49 H -0.583100 -3.055874 5.977906 0
M  V30 50 H 2.348315 2.424531 2.549960 0
M  V30 51 H 2.902298 4.188266 0.860235 0
M  V30 52 H 0.087866 2.260288 -2.849903 0
M  V30 53 H -2.992683 4.559049 -3.029636 0
M  V30 54 H -1.854479 4.651175 -5.273391 0
M  V30 55 H -0.494447 3.531099 -4.727141 0
M  V30 56 H -3.427137 2.788026 -4.720751 0
M  V30 57 H -2.073470 1.763991 -3.938161 0
M  V30 58 H -0.686460 0.886456 -0.017762 0
M  V30 59 H -2.357002 -3.892490 4.111092 0
M  V30 60 H -1.822145 -3.675627 2.454392 0
M  V30 61 H -4.204900 -3.198286 2.763124 0
M  V30 62 H -3.897520 -2.000870 4.020254 0
M  V30 63 H -2.979218 -0.377143 2.375860 0
M  V30 64 H -4.575016 -0.967640 1.970488 0
M  V30 65 H -4.239326 -3.003020 -2.197292 0
M  V30 66 H -3.681054 -3.811040 -4.420143 0
M  V30 67 H -1.276807 -3.801078 -5.175829 0
M  V30 68 H 0.327908 -1.009257 -1.076667 0
M  V30 69 H 0.542533 -2.633395 -0.412401 0
M  V30 70 H 3.426346 -2.277661 -2.902904 0
M  V30 71 H 4.223977 -3.362957 -1.085360 0
M  V30 72 H 2.528126 -3.555706 -0.584270 0
M  V30 73 H 3.864266 -2.611771 1.186421 0
M  V30 74 H 2.451855 -1.642895 0.738908 0
M  V30 75 H 4.237421 1.018642 -1.154205 0
M  V30 END ATOM
M  V30 BEGIN BOND
M  V30 1 1 1 2
M  V30 2 1 2 3
M  V30 3 2 3 4
M  V30 4 1 3 5
M  V30 5 1 5 6
M  V30 6 1 6 7
M  V30 7 1 7 8
M  V30 8 2 8 9
M  V30 9 1 9 10
M  V30 10 2 10 11
M  V30 11 1 11 12
M  V30 12 1 12 13
M  V30 13 1 13 14
M  V30 14 2 14 15
M  V30 15 1 14 16
M  V30 16 1 16 17
M  V30 17 1 17 18
M  V30 18 2 12 19
M  V30 19 2 7 20
M  V30 20 1 20 21
M  V30 21 1 21 22
M  V30 22 1 22 23
M  V30 23 1 23 24
M  V30 24 1 24 25
M  V30 25 1 25 26
M  V30 26 3 26 27
M  V30 27 1 27 28
M  V30 28 2 28 29
M  V30 29 1 29 30
M  V30 30 2 30 31
M  V30 31 1 31 32
M  V30 32 2 32 33
M  V30 33 1 33 34
M  V30 34 1 34 35
M  V30 35 1 35 36
M  V30 36 1 36 37
M  V30 37 1 37 38
M  V30 38 1 38 39
M  V30 39 2 39 40
M  V30 40 1 39 41
M  V30 41 1 41 42
M  V30 42 2 42 43
M  V30 43 1 35 44
M  V30 44 2 44 45
M  V30 45 2 21 5
M  V30 46 1 33 28
M  V30 47 1 42 36
M  V30 48 1 19 8
M  V30 49 1 44 32
M  V30 50 1 18 16
M  V30 51 1 1 46
M  V30 52 1 1 47
M  V30 53 1 1 48
M  V30 54 1 2 49
M  V30 55 1 9 50
M  V30 56 1 10 51
M  V30 57 1 13 52
M  V30 58 1 16 53
M  V30 59 1 17 54
M  V30 60 1 17 55
M  V30 61 1 18 56
M  V30 62 1 18 57
M  V30 63 1 19 58
M  V30 64 1 23 59
M  V30 65 1 23 60
M  V30 66 1 24 61
M  V30 67 1 24 62
M  V30 68 1 25 63
M  V30 69 1 25 64
M  V30 70 1 29 65
M  V30 71 1 30 66
M  V30 72 1 31 67
M  V30 73 1 34 68
M  V30 74 1 34 69
M  V30 75 1 36 70
M  V30 76 1 37 71
M  V30 77 1 37 72
M  V30 78 1 38 73
M  V30 79 1 38 74
M  V30 80 1 41 75
M  V30 END BOND
M  V30 END CTAB
M  END
>  <Dataset>  (27) 
ChEMBL_Kinases

>  <Ligand_Instance>  (27) 
nan

>  <PDB_ID>  (27) 
nan

>  <Standardized_SMILES>  (27) 
CNC(=O)c1sc(-c2ccnc(NC(=O)C3CC3)c2)nc1OCCCC#Cc1cccc2c1CN(C1CCC(=O)NC1=O)C2=O

>  <Name>  (27) 
nan

>  <Pocket>  (27) 
nan

>  <ATP_Site>  (27) 
nan

>  <Peripheral>  (27) 
nan

>  <Num_H_Atoms_ProtBoundConf>  (27) 
nan

>  <Num_Resolved_Atoms>  (27) 
nan

>  <Num_Not_Resolved_Atoms>  (27) 
nan

$$$$
CHEMBL477038
     RDKit          3D

  0  0  0  0  0  0  0  0  0  0999 V3000
M  V30 BEGIN CTAB
M  V30 COUNTS 44 48 0 0 0
M  V30 BEGIN ATOM
M  V30 1 C -3.445052 -0.724701 0.010526 0
M  V30 2 N -2.309129 -1.608589 0.079634 0
M  V30 3 C -1.137021 -1.351697 0.715300 0
M  V30 4 C -0.263030 -2.424178 0.575364 0
M  V30 5 C 1.072335 -2.434256 1.150266 0
M  V30 6 C 1.812152 -1.307837 1.082349 0
M  V30 7 C 1.531744 0.001479 0.512102 0
M  V30 8 C 0.991350 0.359614 -0.718805 0
M  V30 9 O 0.883355 1.655325 -0.835447 0
M  V30 10 C 1.317874 2.258170 0.250169 0
M  V30 11 C 1.412393 3.587199 0.617318 0
M  V30 12 C 1.912078 3.986377 1.839332 0
M  V30 13 C 2.040793 5.394388 2.296588 0
M  V30 14 O 3.315907 5.825786 1.899004 0
M  V30 15 C 2.320472 2.965827 2.691270 0
M  V30 16 C 2.227485 1.630164 2.327106 0
M  V30 17 C 1.728721 1.257345 1.108750 0
M  V30 18 C 3.114443 -1.557322 1.718979 0
M  V30 19 O 4.168174 -0.934660 1.951004 0
M  V30 20 N 3.117552 -2.917915 2.185964 0
M  V30 21 C 1.847733 -3.463622 1.833159 0
M  V30 22 O 1.422019 -4.627719 2.049727 0
M  V30 23 C -0.982389 -3.326662 -0.176743 0
M  V30 24 C -0.609350 -4.570444 -0.621130 0
M  V30 25 C -1.473678 -5.342720 -1.375223 0
M  V30 26 F -1.190387 -6.582559 -1.853067 0
M  V30 27 C -2.712561 -4.818397 -1.660116 0
M  V30 28 C -3.114095 -3.562833 -1.223223 0
M  V30 29 C -2.221800 -2.826367 -0.473606 0
M  V30 30 H -3.210782 0.264219 0.456589 0
M  V30 31 H -3.738125 -0.518887 -1.058980 0
M  V30 32 H -4.338636 -1.097587 0.533911 0
M  V30 33 H -0.968362 -0.423975 1.241876 0
M  V30 34 H 0.701474 -0.371000 -1.476075 0
M  V30 35 H 1.094790 4.380861 -0.047125 0
M  V30 36 H 1.242667 6.043683 1.880824 0
M  V30 37 H 2.033027 5.410051 3.409403 0
M  V30 38 H 3.915039 5.936504 2.677703 0
M  V30 39 H 2.713450 3.234796 3.643838 0
M  V30 40 H 2.561361 0.917801 3.059389 0
M  V30 41 H 3.822998 -3.529267 2.692149 0
M  V30 42 H 0.356717 -4.984666 -0.409291 0
M  V30 43 H -3.470611 -5.333383 -2.238102 0
M  V30 44 H -4.095210 -3.139165 -1.445075 0
M  V30 END ATOM
M  V30 BEGIN BOND
M  V30 1 1 1 2
M  V30 2 1 2 3
M  V30 3 2 3 4
M  V30 4 1 4 5
M  V30 5 2 5 6
M  V30 6 1 6 7
M  V30 7 2 7 8
M  V30 8 1 8 9
M  V30 9 1 9 10
M  V30 10 2 10 11
M  V30 11 1 11 12
M  V30 12 1 12 13
M  V30 13 1 13 14
M  V30 14 2 12 15
M  V30 15 1 15 16
M  V30 16 2 16 17
M  V30 17 1 6 18
M  V30 18 2 18 19
M  V30 19 1 18 20
M  V30 20 1 20 21
M  V30 21 2 21 22
M  V30 22 1 4 23
M  V30 23 2 23 24
M  V30 24 1 24 25
M  V30 25 1 25 26
M  V30 26 2 25 27
M  V30 27 1 27 28
M  V30 28 2 28 29
M  V30 29 1 29 2
M  V30 30 1 21 5
M  V30 31 1 29 23
M  V30 32 1 17 7
M  V30 33 1 17 10
M  V30 34 1 1 30
M  V30 35 1 1 31
M  V30 36 1 1 32
M  V30 37 1 3 33
M  V30 38 1 8 34
M  V30 39 1 11 35
M  V30 40 1 13 36
M  V30 41 1 13 37
M  V30 42 1 14 38
M  V30 43 1 15 39
M  V30 44 1 16 40
M  V30 45 1 20 41
M  V30 46 1 24 42
M  V30 47 1 27 43
M  V30 48 1 28 44
M  V30 END BOND
M  V30 END CTAB
M  END
>  <Dataset>  (28) 
ChEMBL_Kinases

>  <Ligand_Instance>  (28) 
nan

>  <PDB_ID>  (28) 
nan

>  <Standardized_SMILES>  (28) 
Cn1cc(C2=C(c3coc4cc(CO)ccc34)C(=O)NC2=O)c2cc(F)ccc21

>  <Name>  (28) 
nan

>  <Pocket>  (28) 
nan

>  <ATP_Site>  (28) 
nan

>  <Peripheral>  (28) 
nan

>  <Num_H_Atoms_ProtBoundConf>  (28) 
nan

>  <Num_Resolved_Atoms>  (28) 
nan

>  <Num_Not_Resolved_Atoms>  (28) 
nan

$$$$
CHEMBL4228161
     RDKit          3D

  0  0  0  0  0  0  0  0  0  0999 V3000
M  V30 BEGIN CTAB
M  V30 COUNTS 45 47 0 0 0
M  V30 BEGIN ATOM
M  V30 1 C 1.582545 -2.497826 2.836919 0
M  V30 2 C 2.803329 -1.694187 3.189836 0
M  V30 3 C 2.389408 -0.714526 4.265283 0
M  V30 4 C 3.871226 -2.577399 3.793119 0
M  V30 5 O 3.389837 -3.195905 4.929816 0
M  V30 6 O 3.292211 -1.073395 2.046706 0
M  V30 7 N 2.437724 -0.236771 1.455706 0
M  V30 8 C 1.451808 -0.344297 0.439465 0
M  V30 9 O 1.294367 -1.459023 -0.066089 0
M  V30 10 C 0.680001 0.820650 0.034571 0
M  V30 11 C 0.870850 2.088298 0.533024 0
M  V30 12 C 0.110218 3.143642 0.069799 0
M  V30 13 C 0.121572 4.495650 0.417205 0
M  V30 14 C -0.864531 5.016121 -0.395199 0
M  V30 15 O -1.403967 4.083697 -1.142609 0
M  V30 16 C -0.857369 2.913033 -0.911844 0
M  V30 17 C -1.027822 1.624517 -1.395303 0
M  V30 18 F -1.998313 1.537367 -2.344226 0
M  V30 19 C -0.262383 0.547488 -0.932145 0
M  V30 20 N -0.635190 -0.653294 -1.545849 0
M  V30 21 C -1.698947 -1.586846 -1.431578 0
M  V30 22 C -2.328857 -1.658927 -2.680848 0
M  V30 23 C -3.428802 -2.500924 -2.879649 0
M  V30 24 C -3.886969 -3.257255 -1.839489 0
M  V30 25 I -5.529331 -4.583340 -1.946915 0
M  V30 26 C -3.273093 -3.187032 -0.621106 0
M  V30 27 C -2.193867 -2.364342 -0.416113 0
M  V30 28 F -1.505081 -2.195540 0.728052 0
M  V30 29 H 1.258128 -3.118899 3.718791 0
M  V30 30 H 1.777604 -3.197908 1.998127 0
M  V30 31 H 0.751197 -1.796180 2.600496 0
M  V30 32 H 1.525516 -0.097910 3.951010 0
M  V30 33 H 2.002942 -1.338303 5.105554 0
M  V30 34 H 3.235516 -0.143951 4.668215 0
M  V30 35 H 4.709537 -1.924476 4.113213 0
M  V30 36 H 4.223523 -3.310965 3.042022 0
M  V30 37 H 3.512926 -2.592114 5.708734 0
M  V30 38 H 2.664803 0.648193 1.958264 0
M  V30 39 H 1.621141 2.253337 1.290903 0
M  V30 40 H 0.768269 4.950056 1.148173 0
M  V30 41 H -1.128694 6.078061 -0.383217 0
M  V30 42 H 0.143612 -0.773902 -2.231010 0
M  V30 43 H -2.097154 -1.128935 -3.615970 0
M  V30 44 H -3.968504 -2.615934 -3.802605 0
M  V30 45 H -3.572104 -3.752806 0.258905 0
M  V30 END ATOM
M  V30 BEGIN BOND
M  V30 1 1 1 2
M  V30 2 1 2 3
M  V30 3 1 2 4
M  V30 4 1 4 5
M  V30 5 1 2 6
M  V30 6 1 6 7
M  V30 7 1 7 8
M  V30 8 2 8 9
M  V30 9 1 8 10
M  V30 10 2 10 11
M  V30 11 1 11 12
M  V30 12 1 12 13
M  V30 13 2 13 14
M  V30 14 1 14 15
M  V30 15 1 15 16
M  V30 16 1 16 17
M  V30 17 1 17 18
M  V30 18 2 17 19
M  V30 19 1 19 20
M  V30 20 1 20 21
M  V30 21 2 21 22
M  V30 22 1 22 23
M  V30 23 2 23 24
M  V30 24 1 24 25
M  V30 25 1 24 26
M  V30 26 2 26 27
M  V30 27 1 27 28
M  V30 28 1 19 10
M  V30 29 1 27 21
M  V30 30 2 16 12
M  V30 31 1 1 29
M  V30 32 1 1 30
M  V30 33 1 1 31
M  V30 34 1 3 32
M  V30 35 1 3 33
M  V30 36 1 3 34
M  V30 37 1 4 35
M  V30 38 1 4 36
M  V30 39 1 5 37
M  V30 40 1 7 38
M  V30 41 1 11 39
M  V30 42 1 13 40
M  V30 43 1 14 41
M  V30 44 1 20 42
M  V30 45 1 22 43
M  V30 46 1 23 44
M  V30 47 1 26 45
M  V30 END BOND
M  V30 END CTAB
M  END
>  <Dataset>  (29) 
ChEMBL_Kinases

>  <Ligand_Instance>  (29) 
nan

>  <PDB_ID>  (29) 
nan

>  <Standardized_SMILES>  (29) 
CC(C)(CO)ONC(=O)c1cc2ccoc2c(F)c1Nc1ccc(I)cc1F

>  <Name>  (29) 
nan

>  <Pocket>  (29) 
nan

>  <ATP_Site>  (29) 
nan

>  <Peripheral>  (29) 
nan

>  <Num_H_Atoms_ProtBoundConf>  (29) 
nan

>  <Num_Resolved_Atoms>  (29) 
nan

>  <Num_Not_Resolved_Atoms>  (29) 
nan

$$$$
CHEMBL4228135
     RDKit          3D

  0  0  0  0  0  0  0  0  0  0999 V3000
M  V30 BEGIN CTAB
M  V30 COUNTS 42 46 0 0 0
M  V30 BEGIN ATOM
M  V30 1 C 3.599726 -2.699160 2.041311 0
M  V30 2 C 2.899757 -1.414666 1.771997 0
M  V30 3 C 3.110995 -0.625201 0.678131 0
M  V30 4 N 2.508714 0.526044 0.405709 0
M  V30 5 C 2.613739 1.386588 -0.611823 0
M  V30 6 C 3.428994 1.379459 -1.806355 0
M  V30 7 C 4.376160 0.573881 -2.377975 0
M  V30 8 N 4.811441 1.085443 -3.554875 0
M  V30 9 N 4.177001 2.219792 -3.788482 0
M  V30 10 C 3.348931 2.407415 -2.752554 0
M  V30 11 C 1.697670 2.379075 -0.272989 0
M  V30 12 N 1.105293 2.077966 0.892417 0
M  V30 13 C 1.602561 0.918299 1.331965 0
M  V30 14 C 1.326845 0.185133 2.462967 0
M  V30 15 N 0.384098 0.587983 3.443758 0
M  V30 16 C -0.973453 0.262506 3.173795 0
M  V30 17 C -1.551847 -0.338590 2.126812 0
M  V30 18 C -2.893628 -0.502565 2.177823 0
M  V30 19 C -3.706929 -1.140002 1.103944 0
M  V30 20 N -3.852268 -2.560383 1.282040 0
M  V30 21 C -3.021349 -3.511299 0.786150 0
M  V30 22 C -3.445040 -4.772174 1.137116 0
M  V30 23 N -4.575264 -4.584811 1.873770 0
M  V30 24 C -4.796344 -3.250721 1.945358 0
M  V30 25 N -3.603567 -0.064700 3.264213 0
M  V30 26 S -2.262745 0.663006 4.349729 0
M  V30 27 N 1.979814 -0.991772 2.687309 0
M  V30 28 H 4.616056 -2.497121 2.437078 0
M  V30 29 H 3.003663 -3.350004 2.700170 0
M  V30 30 H 3.748515 -3.203877 1.059126 0
M  V30 31 H 3.831447 -1.000574 0.004554 0
M  V30 32 H 4.727285 -0.336158 -1.956272 0
M  V30 33 H 4.337455 2.804761 -4.632422 0
M  V30 34 H 2.726719 3.297523 -2.752189 0
M  V30 35 H 1.428431 3.294773 -0.799420 0
M  V30 36 H 0.676701 1.091207 4.310227 0
M  V30 37 H -0.933585 -0.658612 1.305007 0
M  V30 38 H -3.190535 -1.000064 0.105883 0
M  V30 39 H -4.708575 -0.661311 0.975471 0
M  V30 40 H -2.146627 -3.276776 0.196541 0
M  V30 41 H -2.904658 -5.676740 0.830067 0
M  V30 42 H -5.636704 -2.816118 2.476632 0
M  V30 END ATOM
M  V30 BEGIN BOND
M  V30 1 1 1 2
M  V30 2 2 2 3
M  V30 3 1 3 4
M  V30 4 1 4 5
M  V30 5 1 5 6
M  V30 6 1 6 7
M  V30 7 2 7 8
M  V30 8 1 8 9
M  V30 9 1 9 10
M  V30 10 2 5 11
M  V30 11 1 11 12
M  V30 12 2 12 13
M  V30 13 1 13 14
M  V30 14 1 14 15
M  V30 15 1 15 16
M  V30 16 2 16 17
M  V30 17 1 17 18
M  V30 18 1 18 19
M  V30 19 1 19 20
M  V30 20 1 20 21
M  V30 21 2 21 22
M  V30 22 1 22 23
M  V30 23 2 23 24
M  V30 24 2 18 25
M  V30 25 1 25 26
M  V30 26 2 14 27
M  V30 27 1 27 2
M  V30 28 1 13 4
M  V30 29 1 26 16
M  V30 30 2 10 6
M  V30 31 1 24 20
M  V30 32 1 1 28
M  V30 33 1 1 29
M  V30 34 1 1 30
M  V30 35 1 3 31
M  V30 36 1 7 32
M  V30 37 1 9 33
M  V30 38 1 10 34
M  V30 39 1 11 35
M  V30 40 1 15 36
M  V30 41 1 17 37
M  V30 42 1 19 38
M  V30 43 1 19 39
M  V30 44 1 21 40
M  V30 45 1 22 41
M  V30 46 1 24 42
M  V30 END BOND
M  V30 END CTAB
M  END
>  <Dataset>  (30) 
ChEMBL_Kinases

>  <Ligand_Instance>  (30) 
nan

>  <PDB_ID>  (30) 
nan

>  <Standardized_SMILES>  (30) 
Cc1cn2c(-c3cn[nH]c3)cnc2c(Nc2cc(Cn3ccnc3)ns2)n1

>  <Name>  (30) 
nan

>  <Pocket>  (30) 
nan

>  <ATP_Site>  (30) 
nan

>  <Peripheral>  (30) 
nan

>  <Num_H_Atoms_ProtBoundConf>  (30) 
nan

>  <Num_Resolved_Atoms>  (30) 
nan

>  <Num_Not_Resolved_Atoms>  (30) 
nan

$$$$
CHEMBL477182
     RDKit          3D

  0  0  0  0  0  0  0  0  0  0999 V3000
M  V30 BEGIN CTAB
M  V30 COUNTS 64 68 0 0 0
M  V30 BEGIN ATOM
M  V30 1 C 2.277371 -2.531182 4.343203 0
M  V30 2 C 2.619597 -1.786792 3.107175 0
M  V30 3 C 3.659208 -0.881047 3.138804 0
M  V30 4 C 4.000042 -0.171948 2.002496 0
M  V30 5 C 3.285242 -0.387999 0.849167 0
M  V30 6 N 3.520738 0.273749 -0.412015 0
M  V30 7 C 2.730728 1.442495 -0.432698 0
M  V30 8 O 2.052694 1.577719 0.638907 0
M  V30 9 C 2.686595 2.402638 -1.557085 0
M  V30 10 C 3.423803 2.249226 -2.712792 0
M  V30 11 C 3.313249 3.200599 -3.705604 0
M  V30 12 N 2.482864 4.261582 -3.519467 0
M  V30 13 C 1.767208 4.397529 -2.381226 0
M  V30 14 N 0.903637 5.514396 -2.205773 0
M  V30 15 C 0.042279 5.894218 -1.103405 0
M  V30 16 C -1.331435 6.125719 -1.735600 0
M  V30 17 C -0.905455 6.780429 -3.055107 0
M  V30 18 C 0.601980 6.645098 -3.081195 0
M  V30 19 C 1.834911 3.489077 -1.363917 0
M  V30 20 C 2.237656 -1.315006 0.856928 0
M  V30 21 C 1.877182 -2.036308 1.978984 0
M  V30 22 C 0.770364 -2.980929 1.886884 0
M  V30 23 C 0.711602 -4.272210 2.367581 0
M  V30 24 C -0.421794 -5.038168 2.195192 0
M  V30 25 C -1.520765 -4.526561 1.537237 0
M  V30 26 C -2.749315 -5.284277 1.321806 0
M  V30 27 O -3.746508 -4.809679 0.720153 0
M  V30 28 N -2.931546 -6.621607 1.769663 0
M  V30 29 C -4.182345 -7.311078 1.518142 0
M  V30 30 C -5.282455 -6.534669 2.177338 0
M  V30 31 C -6.693641 -6.981629 2.104348 0
M  V30 32 C -6.251387 -5.883652 1.164646 0
M  V30 33 C -1.480671 -3.237055 1.049428 0
M  V30 34 C -0.334824 -2.465614 1.224910 0
M  V30 35 H 2.902150 -3.425871 4.506859 0
M  V30 36 H 1.184193 -2.749052 4.326954 0
M  V30 37 H 2.425501 -1.823175 5.206246 0
M  V30 38 H 4.227476 -0.707817 4.051489 0
M  V30 39 H 4.800292 0.553625 1.947900 0
M  V30 40 H 4.126012 0.068468 -1.262209 0
M  V30 41 H 4.064198 1.394471 -2.810583 0
M  V30 42 H 3.881545 3.101483 -4.620284 0
M  V30 43 H -0.050559 5.150360 -0.313563 0
M  V30 44 H 0.354592 6.884390 -0.694533 0
M  V30 45 H -1.917087 6.863514 -1.152116 0
M  V30 46 H -1.861730 5.174575 -1.892877 0
M  V30 47 H -1.242354 7.821761 -3.117322 0
M  V30 48 H -1.387206 6.200890 -3.876114 0
M  V30 49 H 0.899558 6.447936 -4.131479 0
M  V30 50 H 1.121831 7.564451 -2.755547 0
M  V30 51 H 1.264776 3.599197 -0.459388 0
M  V30 52 H 1.664888 -1.491661 -0.057477 0
M  V30 53 H 1.606311 -4.605734 2.870072 0
M  V30 54 H -0.445851 -6.042666 2.578270 0
M  V30 55 H -2.161342 -7.103296 2.279472 0
M  V30 56 H -4.330645 -7.415868 0.417239 0
M  V30 57 H -4.110532 -8.352334 1.903542 0
M  V30 58 H -4.973333 -5.944701 3.054650 0
M  V30 59 H -7.374597 -6.639006 2.891160 0
M  V30 60 H -6.933677 -7.978376 1.705188 0
M  V30 61 H -6.534527 -4.837468 1.399374 0
M  V30 62 H -6.199483 -6.203004 0.123044 0
M  V30 63 H -2.354993 -2.827671 0.525107 0
M  V30 64 H -0.401748 -1.459861 0.803532 0
M  V30 END ATOM
M  V30 BEGIN BOND
M  V30 1 1 1 2
M  V30 2 2 2 3
M  V30 3 1 3 4
M  V30 4 2 4 5
M  V30 5 1 5 6
M  V30 6 1 6 7
M  V30 7 2 7 8
M  V30 8 1 7 9
M  V30 9 2 9 10
M  V30 10 1 10 11
M  V30 11 2 11 12
M  V30 12 1 12 13
M  V30 13 1 13 14
M  V30 14 1 14 15
M  V30 15 1 15 16
M  V30 16 1 16 17
M  V30 17 1 17 18
M  V30 18 2 13 19
M  V30 19 1 5 20
M  V30 20 2 20 21
M  V30 21 1 21 22
M  V30 22 2 22 23
M  V30 23 1 23 24
M  V30 24 2 24 25
M  V30 25 1 25 26
M  V30 26 2 26 27
M  V30 27 1 26 28
M  V30 28 1 28 29
M  V30 29 1 29 30
M  V30 30 1 30 31
M  V30 31 1 31 32
M  V30 32 1 25 33
M  V30 33 2 33 34
M  V30 34 1 21 2
M  V30 35 1 34 22
M  V30 36 1 19 9
M  V30 37 1 32 30
M  V30 38 1 18 14
M  V30 39 1 1 35
M  V30 40 1 1 36
M  V30 41 1 1 37
M  V30 42 1 3 38
M  V30 43 1 4 39
M  V30 44 1 6 40
M  V30 45 1 10 41
M  V30 46 1 11 42
M  V30 47 1 15 43
M  V30 48 1 15 44
M  V30 49 1 16 45
M  V30 50 1 16 46
M  V30 51 1 17 47
M  V30 52 1 17 48
M  V30 53 1 18 49
M  V30 54 1 18 50
M  V30 55 1 19 51
M  V30 56 1 20 52
M  V30 57 1 23 53
M  V30 58 1 24 54
M  V30 59 1 28 55
M  V30 60 1 29 56
M  V30 61 1 29 57
M  V30 62 1 30 58
M  V30 63 1 31 59
M  V30 64 1 31 60
M  V30 65 1 32 61
M  V30 66 1 32 62
M  V30 67 1 33 63
M  V30 68 1 34 64
M  V30 END BOND
M  V30 END CTAB
M  END
>  <Dataset>  (31) 
ChEMBL_Kinases

>  <Ligand_Instance>  (31) 
nan

>  <PDB_ID>  (31) 
nan

>  <Standardized_SMILES>  (31) 
Cc1ccc(NC(=O)c2ccnc(N3CCCC3)c2)cc1-c1ccc(C(=O)NCC2CC2)cc1

>  <Name>  (31) 
GW769076X

>  <Pocket>  (31) 
nan

>  <ATP_Site>  (31) 
nan

>  <Peripheral>  (31) 
nan

>  <Num_H_Atoms_ProtBoundConf>  (31) 
nan

>  <Num_Resolved_Atoms>  (31) 
nan

>  <Num_Not_Resolved_Atoms>  (31) 
nan

$$$$
CHEMBL4228117
     RDKit          3D

  0  0  0  0  0  0  0  0  0  0999 V3000
M  V30 BEGIN CTAB
M  V30 COUNTS 75 79 0 0 0
M  V30 BEGIN ATOM
M  V30 1 C 3.465113 -1.454441 6.079753 0
M  V30 2 C 3.676856 -1.595092 4.615861 0
M  V30 3 C 2.755886 -1.269898 3.729008 0
M  V30 4 C 1.490886 -0.747024 4.220433 0
M  V30 5 O 1.140072 -0.559923 5.435336 0
M  V30 6 N 0.392457 -0.339831 3.378201 0
M  V30 7 C -0.798785 0.158977 3.975436 0
M  V30 8 C -1.777381 -0.756792 4.282073 0
M  V30 9 C -2.978692 -0.422207 4.861125 0
M  V30 10 C -3.246633 0.912345 5.165260 0
M  V30 11 N -4.272454 1.622315 5.718648 0
M  V30 12 N -3.953196 2.904179 5.755036 0
M  V30 13 C -2.717767 3.074834 5.231013 0
M  V30 14 C -2.255020 1.831908 4.853319 0
M  V30 15 C -1.053622 1.483514 4.272304 0
M  V30 16 C 2.843047 -1.427412 2.259803 0
M  V30 17 C 1.951478 -2.519793 1.766100 0
M  V30 18 C 0.999848 -3.278908 2.378282 0
M  V30 19 C 0.306217 -4.226063 1.660507 0
M  V30 20 C 0.525453 -4.456667 0.322305 0
M  V30 21 F -0.246997 -5.423724 -0.217815 0
M  V30 22 C 1.482606 -3.703337 -0.322696 0
M  V30 23 C 1.685027 -3.984647 -1.751938 0
M  V30 24 C 0.636609 -3.450324 -2.665047 0
M  V30 25 C 0.518978 -1.958005 -2.578143 0
M  V30 26 O 1.079243 -1.048023 -1.912713 0
M  V30 27 N -0.451283 -1.314354 -3.431804 0
M  V30 28 C -0.438801 0.106086 -3.225746 0
M  V30 29 C -1.394546 0.887240 -4.057791 0
M  V30 30 C -1.224054 2.342731 -3.685030 0
M  V30 31 C -1.183585 0.667629 -5.547625 0
M  V30 32 C -1.895365 1.748363 -6.334290 0
M  V30 33 C -3.347288 1.681665 -5.946742 0
M  V30 34 C -3.677396 0.528485 -5.032597 0
M  V30 35 C -2.825075 0.476636 -3.791126 0
M  V30 36 C 2.186703 -2.740784 0.408468 0
M  V30 37 N 4.232278 -1.745834 1.907856 0
M  V30 38 C 5.293274 -2.133216 2.803868 0
M  V30 39 O 6.384904 -2.510762 2.312504 0
M  V30 40 N 4.959507 -2.036039 4.182214 0
M  V30 41 H 4.327639 -1.873487 6.651284 0
M  V30 42 H 2.596731 -2.088380 6.418828 0
M  V30 43 H 3.255761 -0.425581 6.401889 0
M  V30 44 H 0.521531 -0.429548 2.324862 0
M  V30 45 H -1.706787 -1.824962 4.102528 0
M  V30 46 H -3.766135 -1.116186 5.113794 0
M  V30 47 H -5.140123 1.130827 6.034985 0
M  V30 48 H -2.253799 4.057050 5.161867 0
M  V30 49 H -0.283978 2.192764 4.029453 0
M  V30 50 H 2.527350 -0.466075 1.792715 0
M  V30 51 H 0.894246 -3.045506 3.416862 0
M  V30 52 H -0.425251 -4.773264 2.238260 0
M  V30 53 H 2.661496 -3.524978 -2.076367 0
M  V30 54 H 1.784387 -5.067186 -1.968086 0
M  V30 55 H -0.345108 -3.938337 -2.546565 0
M  V30 56 H 0.963993 -3.669255 -3.702984 0
M  V30 57 H -1.083357 -1.819928 -4.114025 0
M  V30 58 H 0.599381 0.504781 -3.418324 0
M  V30 59 H -0.632091 0.402104 -2.161114 0
M  V30 60 H -2.192300 2.871652 -3.634005 0
M  V30 61 H -0.813658 2.428806 -2.635572 0
M  V30 62 H -0.545626 2.903376 -4.326127 0
M  V30 63 H -1.689342 -0.289096 -5.795003 0
M  V30 64 H -0.130151 0.548960 -5.819609 0
M  V30 65 H -1.446644 2.749110 -6.172255 0
M  V30 66 H -1.742113 1.524360 -7.409632 0
M  V30 67 H -3.934996 1.481123 -6.888199 0
M  V30 68 H -3.728368 2.600769 -5.456315 0
M  V30 69 H -4.738231 0.716893 -4.698078 0
M  V30 70 H -3.704434 -0.453199 -5.557111 0
M  V30 71 H -2.783262 -0.577101 -3.415438 0
M  V30 72 H -3.274127 1.090237 -2.966996 0
M  V30 73 H 2.906869 -2.230191 -0.244756 0
M  V30 74 H 4.485387 -1.684240 0.896127 0
M  V30 75 H 5.722724 -2.311234 4.850346 0
M  V30 END ATOM
M  V30 BEGIN BOND
M  V30 1 1 1 2
M  V30 2 2 2 3
M  V30 3 1 3 4
M  V30 4 2 4 5
M  V30 5 1 4 6
M  V30 6 1 6 7
M  V30 7 2 7 8
M  V30 8 1 8 9
M  V30 9 2 9 10
M  V30 10 1 10 11
M  V30 11 1 11 12
M  V30 12 2 12 13
M  V30 13 1 13 14
M  V30 14 2 14 15
M  V30 15 1 3 16
M  V30 16 1 16 17
M  V30 17 2 17 18
M  V30 18 1 18 19
M  V30 19 2 19 20
M  V30 20 1 20 21
M  V30 21 1 20 22
M  V30 22 1 22 23
M  V30 23 1 23 24
M  V30 24 1 24 25
M  V30 25 2 25 26
M  V30 26 1 25 27
M  V30 27 1 27 28
M  V30 28 1 28 29
M  V30 29 1 29 30
M  V30 30 1 29 31
M  V30 31 1 31 32
M  V30 32 1 32 33
M  V30 33 1 33 34
M  V30 34 1 34 35
M  V30 35 2 22 36
M  V30 36 1 16 37
M  V30 37 1 37 38
M  V30 38 2 38 39
M  V30 39 1 38 40
M  V30 40 1 40 2
M  V30 41 1 15 7
M  V30 42 1 36 17
M  V30 43 1 14 10
M  V30 44 1 35 29
M  V30 45 1 1 41
M  V30 46 1 1 42
M  V30 47 1 1 43
M  V30 48 1 6 44
M  V30 49 1 8 45
M  V30 50 1 9 46
M  V30 51 1 11 47
M  V30 52 1 13 48
M  V30 53 1 15 49
M  V30 54 1 16 50
M  V30 55 1 18 51
M  V30 56 1 19 52
M  V30 57 1 23 53
M  V30 58 1 23 54
M  V30 59 1 24 55
M  V30 60 1 24 56
M  V30 61 1 27 57
M  V30 62 1 28 58
M  V30 63 1 28 59
M  V30 64 1 30 60
M  V30 65 1 30 61
M  V30 66 1 30 62
M  V30 67 1 31 63
M  V30 68 1 31 64
M  V30 69 1 32 65
M  V30 70 1 32 66
M  V30 71 1 33 67
M  V30 72 1 33 68
M  V30 73 1 34 69
M  V30 74 1 34 70
M  V30 75 1 35 71
M  V30 76 1 35 72
M  V30 77 1 36 73
M  V30 78 1 37 74
M  V30 79 1 40 75
M  V30 END BOND
M  V30 END CTAB
M  END
>  <Dataset>  (32) 
ChEMBL_Kinases

>  <Ligand_Instance>  (32) 
nan

>  <PDB_ID>  (32) 
nan

>  <Standardized_SMILES>  (32) 
CC1=C(C(=O)Nc2ccc3[nH]ncc3c2)C(c2ccc(F)c(CCC(=O)NCC3(C)CCCCC3)c2)NC(=O)N1

>  <Name>  (32) 
nan

>  <Pocket>  (32) 
nan

>  <ATP_Site>  (32) 
nan

>  <Peripheral>  (32) 
nan

>  <Num_H_Atoms_ProtBoundConf>  (32) 
nan

>  <Num_Resolved_Atoms>  (32) 
nan

>  <Num_Not_Resolved_Atoms>  (32) 
nan

$$$$
CHEMBL4228109
     RDKit          3D

  0  0  0  0  0  0  0  0  0  0999 V3000
M  V30 BEGIN CTAB
M  V30 COUNTS 50 54 0 0 0
M  V30 BEGIN ATOM
M  V30 1 C 0.494666 -4.186442 2.613251 0
M  V30 2 C 1.138749 -3.467997 1.485571 0
M  V30 3 C 1.618662 -2.198314 1.734584 0
M  V30 4 C 2.225893 -1.495589 0.710867 0
M  V30 5 C 2.799207 -0.156850 0.742827 0
M  V30 6 N 4.134954 -0.016833 0.512942 0
M  V30 7 C 4.458753 1.284395 0.587435 0
M  V30 8 C 5.615525 2.024078 0.452184 0
M  V30 9 C 5.668275 3.397189 0.583644 0
M  V30 10 C 4.464949 4.040479 0.869576 0
M  V30 11 N 3.319838 3.311758 1.003924 0
M  V30 12 N 3.363263 1.997130 0.860926 0
M  V30 13 C 2.332528 1.139428 0.961361 0
M  V30 14 C 0.901360 1.299391 1.239915 0
M  V30 15 C 0.641356 1.867239 2.492262 0
M  V30 16 C -0.665585 2.093231 2.928614 0
M  V30 17 N -1.658377 1.734910 2.078675 0
M  V30 18 C -1.409958 1.189380 0.875397 0
M  V30 19 N -2.509551 0.826154 0.013198 0
M  V30 20 C -2.848381 -0.521509 0.322877 0
M  V30 21 O -2.141356 -1.039386 1.227183 0
M  V30 22 C -3.911299 -1.313763 -0.305403 0
M  V30 23 C -4.035985 -2.602120 0.169739 0
M  V30 24 C -5.037454 -3.397051 -0.399590 0
M  V30 25 C -5.861471 -2.881872 -1.404832 0
M  V30 26 C -5.696025 -1.570136 -1.852664 0
M  V30 27 C -4.702247 -0.774982 -1.290638 0
M  V30 28 C -0.131057 0.952850 0.414028 0
M  V30 29 C 2.321659 -2.115826 -0.533689 0
M  V30 30 C 1.845586 -3.383086 -0.792522 0
M  V30 31 C 1.236001 -4.076547 0.253036 0
M  V30 32 F 0.742291 -5.326536 0.080243 0
M  V30 33 H -0.369168 -4.801010 2.230077 0
M  V30 34 H 1.165478 -4.906944 3.122857 0
M  V30 35 H 0.040644 -3.455158 3.321845 0
M  V30 36 H 1.578979 -1.664171 2.660791 0
M  V30 37 H 6.548412 1.514703 0.229309 0
M  V30 38 H 6.599922 3.952110 0.470409 0
M  V30 39 H 4.454541 5.123902 0.982945 0
M  V30 40 H 1.406724 2.160328 3.185150 0
M  V30 41 H -0.872946 2.529669 3.890680 0
M  V30 42 H -3.087930 1.284506 -0.742681 0
M  V30 43 H -3.419547 -3.036956 0.944521 0
M  V30 44 H -5.151068 -4.416064 -0.037830 0
M  V30 45 H -6.590087 -3.575500 -1.766265 0
M  V30 46 H -6.364786 -1.243971 -2.626180 0
M  V30 47 H -4.584712 0.235316 -1.644708 0
M  V30 48 H 0.125786 0.526816 -0.522538 0
M  V30 49 H 2.783461 -1.644248 -1.405517 0
M  V30 50 H 1.923049 -3.857540 -1.758522 0
M  V30 END ATOM
M  V30 BEGIN BOND
M  V30 1 1 1 2
M  V30 2 2 2 3
M  V30 3 1 3 4
M  V30 4 1 4 5
M  V30 5 1 5 6
M  V30 6 2 6 7
M  V30 7 1 7 8
M  V30 8 2 8 9
M  V30 9 1 9 10
M  V30 10 2 10 11
M  V30 11 1 11 12
M  V30 12 1 12 13
M  V30 13 1 13 14
M  V30 14 2 14 15
M  V30 15 1 15 16
M  V30 16 2 16 17
M  V30 17 1 17 18
M  V30 18 1 18 19
M  V30 19 1 19 20
M  V30 20 2 20 21
M  V30 21 1 20 22
M  V30 22 2 22 23
M  V30 23 1 23 24
M  V30 24 2 24 25
M  V30 25 1 25 26
M  V30 26 2 26 27
M  V30 27 2 18 28
M  V30 28 2 4 29
M  V30 29 1 29 30
M  V30 30 2 30 31
M  V30 31 1 31 32
M  V30 32 1 31 2
M  V30 33 2 13 5
M  V30 34 1 28 14
M  V30 35 1 12 7
M  V30 36 1 27 22
M  V30 37 1 1 33
M  V30 38 1 1 34
M  V30 39 1 1 35
M  V30 40 1 3 36
M  V30 41 1 8 37
M  V30 42 1 9 38
M  V30 43 1 10 39
M  V30 44 1 15 40
M  V30 45 1 16 41
M  V30 46 1 19 42
M  V30 47 1 23 43
M  V30 48 1 24 44
M  V30 49 1 25 45
M  V30 50 1 26 46
M  V30 51 1 27 47
M  V30 52 1 28 48
M  V30 53 1 29 49
M  V30 54 1 30 50
M  V30 END BOND
M  V30 END CTAB
M  END
>  <Dataset>  (33) 
ChEMBL_Kinases

>  <Ligand_Instance>  (33) 
nan

>  <PDB_ID>  (33) 
nan

>  <Standardized_SMILES>  (33) 
Cc1cc(-c2nc3cccnn3c2-c2ccnc(NC(=O)c3ccccc3)c2)ccc1F

>  <Name>  (33) 
nan

>  <Pocket>  (33) 
nan

>  <ATP_Site>  (33) 
nan

>  <Peripheral>  (33) 
nan

>  <Num_H_Atoms_ProtBoundConf>  (33) 
nan

>  <Num_Resolved_Atoms>  (33) 
nan

>  <Num_Not_Resolved_Atoms>  (33) 
nan

$$$$
CHEMBL4228074
     RDKit          3D

  0  0  0  0  0  0  0  0  0  0999 V3000
M  V30 BEGIN CTAB
M  V30 COUNTS 47 49 0 0 0
M  V30 BEGIN ATOM
M  V30 1 C -0.452803 0.300322 2.011875 0
M  V30 2 O -1.174773 -0.852316 1.648334 0
M  V30 3 C -0.648328 -1.912990 0.957738 0
M  V30 4 N 0.647050 -1.825457 0.609665 0
M  V30 5 C 1.342021 -2.750011 -0.063919 0
M  V30 6 N 2.713038 -2.466487 -0.365863 0
M  V30 7 C 3.110957 -1.131185 -0.258120 0
M  V30 8 C 2.157161 -0.216529 -0.742807 0
M  V30 9 C 2.346335 1.175443 -0.702157 0
M  V30 10 C 3.538011 1.687193 -0.155140 0
M  V30 11 C 3.517511 3.137518 -0.215826 0
M  V30 12 O 3.781362 3.507402 -1.401914 0
M  V30 13 N 3.235926 3.961361 0.906395 0
M  V30 14 C 2.988440 3.264642 2.163199 0
M  V30 15 C 3.173396 5.403794 0.802934 0
M  V30 16 C 4.455237 0.781099 0.311215 0
M  V30 17 C 4.251925 -0.569900 0.262041 0
M  V30 18 N 0.654148 -3.846510 -0.403930 0
M  V30 19 C -0.640793 -4.064886 -0.120368 0
M  V30 20 C -1.292793 -3.064427 0.576544 0
M  V30 21 C -2.716527 -3.203899 0.950177 0
M  V30 22 C -3.529591 -2.483884 1.718316 0
M  V30 23 C -4.822747 -2.864449 1.902384 0
M  V30 24 C -5.215426 -4.036874 1.238467 0
M  V30 25 C -6.382921 -4.899986 1.034169 0
M  V30 26 N -7.483291 -4.327190 1.770491 0
M  V30 27 O -6.443555 -5.940109 0.357875 0
M  V30 28 S -3.633950 -4.532848 0.360133 0
M  V30 29 H -0.843599 1.147284 1.412514 0
M  V30 30 H 0.651984 0.183165 1.974714 0
M  V30 31 H -0.730169 0.533628 3.075545 0
M  V30 32 H 3.422929 -3.180568 -0.658196 0
M  V30 33 H 1.219349 -0.551221 -1.195138 0
M  V30 34 H 1.521729 1.783458 -1.112191 0
M  V30 35 H 2.811756 4.064912 2.932241 0
M  V30 36 H 3.873104 2.640448 2.464460 0
M  V30 37 H 2.119110 2.572962 2.111809 0
M  V30 38 H 3.049906 5.746042 -0.239022 0
M  V30 39 H 2.221518 5.691881 1.329530 0
M  V30 40 H 4.009888 5.884078 1.320558 0
M  V30 41 H 5.331708 1.258773 0.714641 0
M  V30 42 H 4.977179 -1.259068 0.630281 0
M  V30 43 H -1.146593 -4.968940 -0.420705 0
M  V30 44 H -3.247839 -1.575136 2.241987 0
M  V30 45 H -5.633321 -2.448813 2.470542 0
M  V30 46 H -8.288712 -3.702553 1.495096 0
M  V30 47 H -8.204861 -3.993440 2.421023 0
M  V30 END ATOM
M  V30 BEGIN BOND
M  V30 1 1 1 2
M  V30 2 1 2 3
M  V30 3 2 3 4
M  V30 4 1 4 5
M  V30 5 1 5 6
M  V30 6 1 6 7
M  V30 7 2 7 8
M  V30 8 1 8 9
M  V30 9 2 9 10
M  V30 10 1 10 11
M  V30 11 2 11 12
M  V30 12 1 11 13
M  V30 13 1 13 14
M  V30 14 1 13 15
M  V30 15 1 10 16
M  V30 16 2 16 17
M  V30 17 2 5 18
M  V30 18 1 18 19
M  V30 19 2 19 20
M  V30 20 1 20 21
M  V30 21 2 21 22
M  V30 22 1 22 23
M  V30 23 2 23 24
M  V30 24 1 24 25
M  V30 25 1 25 26
M  V30 26 2 25 27
M  V30 27 1 24 28
M  V30 28 1 20 3
M  V30 29 1 28 21
M  V30 30 1 17 7
M  V30 31 1 1 29
M  V30 32 1 1 30
M  V30 33 1 1 31
M  V30 34 1 6 32
M  V30 35 1 8 33
M  V30 36 1 9 34
M  V30 37 1 14 35
M  V30 38 1 14 36
M  V30 39 1 14 37
M  V30 40 1 15 38
M  V30 41 1 15 39
M  V30 42 1 15 40
M  V30 43 1 16 41
M  V30 44 1 17 42
M  V30 45 1 19 43
M  V30 46 1 22 44
M  V30 47 1 23 45
M  V30 48 1 26 46
M  V30 49 1 26 47
M  V30 END BOND
M  V30 END CTAB
M  END
>  <Dataset>  (34) 
ChEMBL_Kinases

>  <Ligand_Instance>  (34) 
nan

>  <PDB_ID>  (34) 
nan

>  <Standardized_SMILES>  (34) 
COc1nc(Nc2ccc(C(=O)N(C)C)cc2)ncc1-c1ccc(C(N)=O)s1

>  <Name>  (34) 
nan

>  <Pocket>  (34) 
nan

>  <ATP_Site>  (34) 
nan

>  <Peripheral>  (34) 
nan

>  <Num_H_Atoms_ProtBoundConf>  (34) 
nan

>  <Num_Resolved_Atoms>  (34) 
nan

>  <Num_Not_Resolved_Atoms>  (34) 
nan

$$$$
CHEMBL477190
     RDKit          3D

  0  0  0  0  0  0  0  0  0  0999 V3000
M  V30 BEGIN CTAB
M  V30 COUNTS 64 68 0 0 0
M  V30 BEGIN ATOM
M  V30 1 C 2.354522 -2.602084 4.456403 0
M  V30 2 C 2.676293 -1.742157 3.287310 0
M  V30 3 C 3.604981 -0.745460 3.402318 0
M  V30 4 C 3.921892 0.064077 2.340972 0
M  V30 5 C 3.268729 -0.162218 1.147105 0
M  V30 6 N 3.473323 0.589835 -0.069230 0
M  V30 7 C 2.546584 1.670183 -0.035052 0
M  V30 8 O 1.840546 1.648065 1.022958 0
M  V30 9 C 2.424506 2.688688 -1.100529 0
M  V30 10 C 3.159539 2.775900 -2.284238 0
M  V30 11 C 2.858457 3.825543 -3.126470 0
M  V30 12 N 1.922589 4.730579 -2.861668 0
M  V30 13 C 1.198717 4.676386 -1.734620 0
M  V30 14 N 0.205133 5.640420 -1.456679 0
M  V30 15 C -0.102860 6.731163 -2.340879 0
M  V30 16 C -1.215372 7.655714 -1.827092 0
M  V30 17 C -2.200450 6.746283 -2.530552 0
M  V30 18 C -1.075745 6.357887 -3.466005 0
M  V30 19 C 1.452306 3.653312 -0.855328 0
M  V30 20 C 2.320166 -1.183592 1.037289 0
M  V30 21 C 2.000494 -2.002538 2.113551 0
M  V30 22 C 0.999590 -3.044040 1.915829 0
M  V30 23 C 1.057148 -4.359648 2.328164 0
M  V30 24 C 0.019416 -5.226214 2.060096 0
M  V30 25 C -1.099448 -4.802475 1.375171 0
M  V30 26 C -2.232039 -5.668613 1.059580 0
M  V30 27 O -3.238600 -5.270117 0.432184 0
M  V30 28 N -2.291127 -7.038681 1.436750 0
M  V30 29 C -3.459001 -7.836632 1.082965 0
M  V30 30 C -4.660868 -7.192485 1.726556 0
M  V30 31 C -6.026776 -7.726345 1.587961 0
M  V30 32 C -5.639316 -6.607632 0.695966 0
M  V30 33 C -1.171275 -3.490046 0.956615 0
M  V30 34 C -0.123486 -2.621041 1.229070 0
M  V30 35 H 3.061239 -3.427149 4.617589 0
M  V30 36 H 1.286733 -2.917895 4.398117 0
M  V30 37 H 2.374514 -1.897525 5.339204 0
M  V30 38 H 4.125548 -0.555636 4.332055 0
M  V30 39 H 4.635271 0.875929 2.320672 0
M  V30 40 H 4.110904 0.512502 -0.905090 0
M  V30 41 H 3.884529 1.995160 -2.391827 0
M  V30 42 H 3.458617 3.840160 -4.023948 0
M  V30 43 H -0.346310 5.572719 -0.564167 0
M  V30 44 H 0.749754 7.298887 -2.754792 0
M  V30 45 H -1.182072 8.679190 -2.222643 0
M  V30 46 H -1.273377 7.554871 -0.720103 0
M  V30 47 H -2.972461 7.322376 -3.085508 0
M  V30 48 H -2.601159 5.941461 -1.915141 0
M  V30 49 H -1.052787 5.242002 -3.607202 0
M  V30 50 H -0.983914 6.955946 -4.381488 0
M  V30 51 H 0.843335 3.641251 0.051722 0
M  V30 52 H 1.796011 -1.368816 0.087578 0
M  V30 53 H 1.957956 -4.632257 2.859198 0
M  V30 54 H 0.081796 -6.252019 2.390365 0
M  V30 55 H -1.498953 -7.466821 1.964713 0
M  V30 56 H -3.511531 -7.853403 -0.007566 0
M  V30 57 H -3.302109 -8.880543 1.456342 0
M  V30 58 H -4.458717 -6.506408 2.587024 0
M  V30 59 H -6.749448 -7.448924 2.381633 0
M  V30 60 H -6.186548 -8.746542 1.176482 0
M  V30 61 H -5.993361 -5.581966 0.836932 0
M  V30 62 H -5.510494 -6.889913 -0.369468 0
M  V30 63 H -2.047047 -3.127406 0.411434 0
M  V30 64 H -0.254020 -1.596627 0.865130 0
M  V30 END ATOM
M  V30 BEGIN BOND
M  V30 1 1 1 2
M  V30 2 2 2 3
M  V30 3 1 3 4
M  V30 4 2 4 5
M  V30 5 1 5 6
M  V30 6 1 6 7
M  V30 7 2 7 8
M  V30 8 1 7 9
M  V30 9 2 9 10
M  V30 10 1 10 11
M  V30 11 2 11 12
M  V30 12 1 12 13
M  V30 13 1 13 14
M  V30 14 1 14 15
M  V30 15 1 15 16
M  V30 16 1 16 17
M  V30 17 1 17 18
M  V30 18 2 13 19
M  V30 19 1 5 20
M  V30 20 2 20 21
M  V30 21 1 21 22
M  V30 22 2 22 23
M  V30 23 1 23 24
M  V30 24 2 24 25
M  V30 25 1 25 26
M  V30 26 2 26 27
M  V30 27 1 26 28
M  V30 28 1 28 29
M  V30 29 1 29 30
M  V30 30 1 30 31
M  V30 31 1 31 32
M  V30 32 1 25 33
M  V30 33 2 33 34
M  V30 34 1 21 2
M  V30 35 1 34 22
M  V30 36 1 19 9
M  V30 37 1 32 30
M  V30 38 1 18 15
M  V30 39 1 1 35
M  V30 40 1 1 36
M  V30 41 1 1 37
M  V30 42 1 3 38
M  V30 43 1 4 39
M  V30 44 1 6 40
M  V30 45 1 10 41
M  V30 46 1 11 42
M  V30 47 1 14 43
M  V30 48 1 15 44
M  V30 49 1 16 45
M  V30 50 1 16 46
M  V30 51 1 17 47
M  V30 52 1 17 48
M  V30 53 1 18 49
M  V30 54 1 18 50
M  V30 55 1 19 51
M  V30 56 1 20 52
M  V30 57 1 23 53
M  V30 58 1 24 54
M  V30 59 1 28 55
M  V30 60 1 29 56
M  V30 61 1 29 57
M  V30 62 1 30 58
M  V30 63 1 31 59
M  V30 64 1 31 60
M  V30 65 1 32 61
M  V30 66 1 32 62
M  V30 67 1 33 63
M  V30 68 1 34 64
M  V30 END BOND
M  V30 END CTAB
M  END
>  <Dataset>  (35) 
ChEMBL_Kinases

>  <Ligand_Instance>  (35) 
nan

>  <PDB_ID>  (35) 
nan

>  <Standardized_SMILES>  (35) 
Cc1ccc(NC(=O)c2ccnc(NC3CCC3)c2)cc1-c1ccc(C(=O)NCC2CC2)cc1

>  <Name>  (35) 
nan

>  <Pocket>  (35) 
nan

>  <ATP_Site>  (35) 
nan

>  <Peripheral>  (35) 
nan

>  <Num_H_Atoms_ProtBoundConf>  (35) 
nan

>  <Num_Resolved_Atoms>  (35) 
nan

>  <Num_Not_Resolved_Atoms>  (35) 
nan

$$$$
CHEMBL477191
     RDKit          3D

  0  0  0  0  0  0  0  0  0  0999 V3000
M  V30 BEGIN CTAB
M  V30 COUNTS 70 74 0 0 0
M  V30 BEGIN ATOM
M  V30 1 C 4.337293 -3.552740 3.068638 0
M  V30 2 C 3.935105 -2.688352 1.931771 0
M  V30 3 C 4.909352 -1.846944 1.401677 0
M  V30 4 C 4.496452 -1.049112 0.327106 0
M  V30 5 C 3.212267 -1.107361 -0.163228 0
M  V30 6 N 2.896372 -0.228765 -1.222329 0
M  V30 7 C 3.113906 -0.089375 -2.610838 0
M  V30 8 O 3.806669 -0.957178 -3.205107 0
M  V30 9 C 2.529855 1.051086 -3.302611 0
M  V30 10 C 3.069632 1.451233 -4.515248 0
M  V30 11 C 2.415080 2.518477 -5.095096 0
M  V30 12 N 1.351275 3.146520 -4.579904 0
M  V30 13 C 0.804416 2.787686 -3.414737 0
M  V30 14 N -0.318171 3.357699 -2.796252 0
M  V30 15 C -1.112789 4.455178 -3.309872 0
M  V30 16 C -1.567807 4.074567 -4.706857 0
M  V30 17 C -2.352799 5.212224 -5.336321 0
M  V30 18 C -3.384400 5.778938 -4.405098 0
M  V30 19 C -3.622350 4.738867 -3.329187 0
M  V30 20 C -2.405473 4.517346 -2.482812 0
M  V30 21 C 1.438179 1.705870 -2.786616 0
M  V30 22 C 2.276280 -1.969806 0.405828 0
M  V30 23 C 2.618644 -2.789112 1.480359 0
M  V30 24 C 1.676285 -3.684716 2.139904 0
M  V30 25 C 1.678762 -5.004370 2.490976 0
M  V30 26 C 0.628780 -5.564095 3.187238 0
M  V30 27 C -0.469386 -4.813580 3.557315 0
M  V30 28 C -1.519685 -5.516532 4.318906 0
M  V30 29 O -1.424820 -6.768683 4.441295 0
M  V30 30 N -2.637248 -4.879369 4.932593 0
M  V30 31 C -3.428195 -5.866193 5.581475 0
M  V30 32 C -4.616126 -5.218539 6.241567 0
M  V30 33 C -4.376426 -4.168715 7.306282 0
M  V30 34 C -4.996715 -3.806601 5.964848 0
M  V30 35 C -0.516378 -3.477942 3.222129 0
M  V30 36 C 0.558060 -2.921461 2.514975 0
M  V30 37 H 4.870632 -4.481373 2.698042 0
M  V30 38 H 3.500013 -3.832306 3.742323 0
M  V30 39 H 5.108396 -3.075012 3.728005 0
M  V30 40 H 5.914831 -1.840671 1.820266 0
M  V30 41 H 5.285827 -0.393750 -0.071084 0
M  V30 42 H 2.350928 0.458263 -0.642178 0
M  V30 43 H 3.925395 0.948224 -4.927571 0
M  V30 44 H 2.791614 2.885112 -6.061310 0
M  V30 45 H -0.635729 2.966197 -1.856560 0
M  V30 46 H -0.567435 5.414677 -3.303940 0
M  V30 47 H -2.251670 3.208479 -4.603918 0
M  V30 48 H -0.750957 3.815201 -5.378975 0
M  V30 49 H -2.862723 4.852684 -6.248945 0
M  V30 50 H -1.627273 5.989226 -5.700074 0
M  V30 51 H -4.353513 5.920694 -4.927358 0
M  V30 52 H -3.132297 6.746468 -3.953688 0
M  V30 53 H -4.001057 3.840930 -3.835540 0
M  V30 54 H -4.407919 5.166776 -2.657560 0
M  V30 55 H -2.539244 3.541821 -1.939580 0
M  V30 56 H -2.369663 5.296535 -1.700267 0
M  V30 57 H 1.037363 1.373774 -1.841573 0
M  V30 58 H 1.257197 -2.014266 0.016917 0
M  V30 59 H 2.580906 -5.473206 2.143155 0
M  V30 60 H 0.761767 -6.609284 3.398451 0
M  V30 61 H -2.617944 -3.856173 4.775479 0
M  V30 62 H -2.840348 -6.397683 6.393337 0
M  V30 63 H -3.809491 -6.648429 4.902955 0
M  V30 64 H -5.462462 -5.903209 6.494754 0
M  V30 65 H -5.000912 -4.166833 8.216150 0
M  V30 66 H -3.354776 -3.792487 7.498945 0
M  V30 67 H -6.068912 -3.499294 6.071415 0
M  V30 68 H -4.435256 -3.156411 5.272405 0
M  V30 69 H -1.387679 -2.895443 3.517944 0
M  V30 70 H 0.370266 -1.849705 2.325311 0
M  V30 END ATOM
M  V30 BEGIN BOND
M  V30 1 1 1 2
M  V30 2 2 2 3
M  V30 3 1 3 4
M  V30 4 2 4 5
M  V30 5 1 5 6
M  V30 6 1 6 7
M  V30 7 2 7 8
M  V30 8 1 7 9
M  V30 9 2 9 10
M  V30 10 1 10 11
M  V30 11 2 11 12
M  V30 12 1 12 13
M  V30 13 1 13 14
M  V30 14 1 14 15
M  V30 15 1 15 16
M  V30 16 1 16 17
M  V30 17 1 17 18
M  V30 18 1 18 19
M  V30 19 1 19 20
M  V30 20 2 13 21
M  V30 21 1 5 22
M  V30 22 2 22 23
M  V30 23 1 23 24
M  V30 24 2 24 25
M  V30 25 1 25 26
M  V30 26 2 26 27
M  V30 27 1 27 28
M  V30 28 2 28 29
M  V30 29 1 28 30
M  V30 30 1 30 31
M  V30 31 1 31 32
M  V30 32 1 32 33
M  V30 33 1 33 34
M  V30 34 1 27 35
M  V30 35 2 35 36
M  V30 36 1 23 2
M  V30 37 1 36 24
M  V30 38 1 21 9
M  V30 39 1 34 32
M  V30 40 1 20 15
M  V30 41 1 1 37
M  V30 42 1 1 38
M  V30 43 1 1 39
M  V30 44 1 3 40
M  V30 45 1 4 41
M  V30 46 1 6 42
M  V30 47 1 10 43
M  V30 48 1 11 44
M  V30 49 1 14 45
M  V30 50 1 15 46
M  V30 51 1 16 47
M  V30 52 1 16 48
M  V30 53 1 17 49
M  V30 54 1 17 50
M  V30 55 1 18 51
M  V30 56 1 18 52
M  V30 57 1 19 53
M  V30 58 1 19 54
M  V30 59 1 20 55
M  V30 60 1 20 56
M  V30 61 1 21 57
M  V30 62 1 22 58
M  V30 63 1 25 59
M  V30 64 1 26 60
M  V30 65 1 30 61
M  V30 66 1 31 62
M  V30 67 1 31 63
M  V30 68 1 32 64
M  V30 69 1 33 65
M  V30 70 1 33 66
M  V30 71 1 34 67
M  V30 72 1 34 68
M  V30 73 1 35 69
M  V30 74 1 36 70
M  V30 END BOND
M  V30 END CTAB
M  END
>  <Dataset>  (36) 
ChEMBL_Kinases

>  <Ligand_Instance>  (36) 
nan

>  <PDB_ID>  (36) 
nan

>  <Standardized_SMILES>  (36) 
Cc1ccc(NC(=O)c2ccnc(NC3CCCCC3)c2)cc1-c1ccc(C(=O)NCC2CC2)cc1

>  <Name>  (36) 
nan

>  <Pocket>  (36) 
nan

>  <ATP_Site>  (36) 
nan

>  <Peripheral>  (36) 
nan

>  <Num_H_Atoms_ProtBoundConf>  (36) 
nan

>  <Num_Resolved_Atoms>  (36) 
nan

>  <Num_Not_Resolved_Atoms>  (36) 
nan

$$$$
CHEMBL477348
     RDKit          3D

  0  0  0  0  0  0  0  0  0  0999 V3000
M  V30 BEGIN CTAB
M  V30 COUNTS 50 52 0 0 0
M  V30 BEGIN ATOM
M  V30 1 C 1.785602 -0.108552 4.166048 0
M  V30 2 C 2.481606 0.366062 2.968694 0
M  V30 3 C 3.759431 0.887231 3.026362 0
M  V30 4 C 4.432368 1.340575 1.897037 0
M  V30 5 C 3.768984 1.252126 0.686091 0
M  V30 6 C 4.501356 1.736378 -0.482249 0
M  V30 7 O 5.655468 2.198981 -0.334061 0
M  V30 8 N 3.989702 1.721821 -1.809621 0
M  V30 9 C 4.684569 2.189197 -2.970914 0
M  V30 10 C 4.546695 1.519967 -4.285902 0
M  V30 11 C 3.972095 2.883619 -4.100141 0
M  V30 12 C 2.511670 0.738950 0.632082 0
M  V30 13 C 1.827646 0.281824 1.756496 0
M  V30 14 C 0.482202 -0.244772 1.561175 0
M  V30 15 C -0.630153 0.010940 2.288970 0
M  V30 16 C -1.853026 -0.557899 1.996635 0
M  V30 17 C -2.013059 -1.427005 0.936970 0
M  V30 18 C -3.259370 -2.077144 0.548080 0
M  V30 19 O -3.280699 -2.853296 -0.442252 0
M  V30 20 N -4.475423 -1.869756 1.250878 0
M  V30 21 C -5.728033 -2.502270 0.887796 0
M  V30 22 C -5.667019 -4.011558 0.938071 0
M  V30 23 C -5.322516 -4.533304 2.314547 0
M  V30 24 O -5.293706 -5.938366 2.244070 0
M  V30 25 C -0.864108 -1.670309 0.212017 0
M  V30 26 C 0.368184 -1.113735 0.485205 0
M  V30 27 H 2.564179 -0.506393 4.860172 0
M  V30 28 H 1.298491 0.729764 4.696233 0
M  V30 29 H 1.049707 -0.909262 3.992851 0
M  V30 30 H 4.228077 0.930975 4.003817 0
M  V30 31 H 5.444479 1.743937 2.004177 0
M  V30 32 H 3.030311 1.342757 -1.969665 0
M  V30 33 H 5.695435 2.588324 -2.758625 0
M  V30 34 H 5.416357 1.496787 -4.974122 0
M  V30 35 H 3.834009 0.694223 -4.419840 0
M  V30 36 H 4.402903 3.777953 -4.581017 0
M  V30 37 H 2.848175 2.954397 -4.020397 0
M  V30 38 H 2.034329 0.687164 -0.315782 0
M  V30 39 H -0.506189 0.690168 3.116608 0
M  V30 40 H -2.723319 -0.336443 2.593711 0
M  V30 41 H -4.471646 -1.230738 2.070654 0
M  V30 42 H -6.018567 -2.246420 -0.158662 0
M  V30 43 H -6.541156 -2.188337 1.550330 0
M  V30 44 H -6.702060 -4.368655 0.710669 0
M  V30 45 H -4.941016 -4.352188 0.200318 0
M  V30 46 H -6.044629 -4.213722 3.076243 0
M  V30 47 H -4.332833 -4.160626 2.610298 0
M  V30 48 H -5.293562 -6.251416 1.299925 0
M  V30 49 H -0.948954 -2.351259 -0.632909 0
M  V30 50 H 1.198532 -1.382135 -0.157807 0
M  V30 END ATOM
M  V30 BEGIN BOND
M  V30 1 1 1 2
M  V30 2 2 2 3
M  V30 3 1 3 4
M  V30 4 2 4 5
M  V30 5 1 5 6
M  V30 6 2 6 7
M  V30 7 1 6 8
M  V30 8 1 8 9
M  V30 9 1 9 10
M  V30 10 1 10 11
M  V30 11 1 5 12
M  V30 12 2 12 13
M  V30 13 1 13 14
M  V30 14 2 14 15
M  V30 15 1 15 16
M  V30 16 2 16 17
M  V30 17 1 17 18
M  V30 18 2 18 19
M  V30 19 1 18 20
M  V30 20 1 20 21
M  V30 21 1 21 22
M  V30 22 1 22 23
M  V30 23 1 23 24
M  V30 24 1 17 25
M  V30 25 2 25 26
M  V30 26 1 13 2
M  V30 27 1 26 14
M  V30 28 1 11 9
M  V30 29 1 1 27
M  V30 30 1 1 28
M  V30 31 1 1 29
M  V30 32 1 3 30
M  V30 33 1 4 31
M  V30 34 1 8 32
M  V30 35 1 9 33
M  V30 36 1 10 34
M  V30 37 1 10 35
M  V30 38 1 11 36
M  V30 39 1 11 37
M  V30 40 1 12 38
M  V30 41 1 15 39
M  V30 42 1 16 40
M  V30 43 1 20 41
M  V30 44 1 21 42
M  V30 45 1 21 43
M  V30 46 1 22 44
M  V30 47 1 22 45
M  V30 48 1 23 46
M  V30 49 1 23 47
M  V30 50 1 24 48
M  V30 51 1 25 49
M  V30 52 1 26 50
M  V30 END BOND
M  V30 END CTAB
M  END
>  <Dataset>  (37) 
ChEMBL_Kinases

>  <Ligand_Instance>  (37) 
nan

>  <PDB_ID>  (37) 
nan

>  <Standardized_SMILES>  (37) 
Cc1ccc(C(=O)NC2CC2)cc1-c1ccc(C(=O)NCCCO)cc1

>  <Name>  (37) 
nan

>  <Pocket>  (37) 
nan

>  <ATP_Site>  (37) 
nan

>  <Peripheral>  (37) 
nan

>  <Num_H_Atoms_ProtBoundConf>  (37) 
nan

>  <Num_Resolved_Atoms>  (37) 
nan

>  <Num_Not_Resolved_Atoms>  (37) 
nan

$$$$
CHEMBL477557
     RDKit          3D

  0  0  0  0  0  0  0  0  0  0999 V3000
M  V30 BEGIN CTAB
M  V30 COUNTS 62 65 0 0 0
M  V30 BEGIN ATOM
M  V30 1 C -0.405066 5.367558 1.689178 0
M  V30 2 C 0.969694 4.866719 1.769913 0
M  V30 3 C 2.067052 5.688449 1.845573 0
M  V30 4 C 3.352097 5.209022 1.917768 0
M  V30 5 C 3.566703 3.859020 1.915208 0
M  V30 6 C 4.931648 3.358056 1.993062 0
M  V30 7 O 5.858756 4.206219 2.052842 0
M  V30 8 N 5.291198 1.996301 2.006644 0
M  V30 9 C 6.673445 1.530272 2.086112 0
M  V30 10 C 6.941590 0.309407 1.226010 0
M  V30 11 C 6.983538 0.251651 2.763717 0
M  V30 12 C 2.458257 3.042512 1.838834 0
M  V30 13 C 1.150900 3.488864 1.765058 0
M  V30 14 C 0.091644 2.489517 1.696415 0
M  V30 15 C -1.073261 2.447765 2.434847 0
M  V30 16 C -1.992671 1.430638 2.253868 0
M  V30 17 C -1.790076 0.418787 1.334442 0
M  V30 18 C -2.794747 -0.629673 1.192428 0
M  V30 19 O -3.786540 -0.555203 1.962463 0
M  V30 20 N -2.648946 -1.669665 0.234741 0
M  V30 21 C -3.761220 -2.630914 0.244838 0
M  V30 22 C -3.439238 -3.646732 -0.820510 0
M  V30 23 C -4.451749 -4.728683 -0.982283 0
M  V30 24 N -3.954402 -5.598948 -2.054446 0
M  V30 25 C -4.912806 -6.661141 -2.238917 0
M  V30 26 C -4.534237 -7.565355 -3.376652 0
M  V30 27 O -3.178550 -7.382025 -3.711670 0
M  V30 28 C -2.425044 -7.427613 -2.530055 0
M  V30 29 C -2.677472 -6.165993 -1.720869 0
M  V30 30 C -0.616198 0.491301 0.613802 0
M  V30 31 C 0.334409 1.480430 0.752537 0
M  V30 32 H -0.430482 6.264630 0.998817 0
M  V30 33 H -1.105319 4.658660 1.206893 0
M  V30 34 H -0.751872 5.766645 2.663988 0
M  V30 35 H 1.817989 6.754320 1.842526 0
M  V30 36 H 4.157838 5.955072 1.975120 0
M  V30 37 H 4.549101 1.278624 1.958275 0
M  V30 38 H 7.416010 2.337241 2.130371 0
M  V30 39 H 6.107257 -0.227558 0.763667 0
M  V30 40 H 7.907698 0.249525 0.688489 0
M  V30 41 H 7.990343 0.181854 3.226352 0
M  V30 42 H 6.143953 -0.312459 3.259773 0
M  V30 43 H 2.639352 1.969551 1.837743 0
M  V30 44 H -1.194129 3.261241 3.147945 0
M  V30 45 H -2.870103 1.489866 2.880255 0
M  V30 46 H -1.826362 -1.728854 -0.404374 0
M  V30 47 H -4.638403 -2.034472 -0.093081 0
M  V30 48 H -3.916979 -3.048260 1.242968 0
M  V30 49 H -2.493303 -4.149088 -0.478863 0
M  V30 50 H -3.221695 -3.098849 -1.741510 0
M  V30 51 H -4.450506 -5.365060 -0.075836 0
M  V30 52 H -5.437069 -4.333974 -1.222507 0
M  V30 53 H -5.918089 -6.218863 -2.378953 0
M  V30 54 H -4.875945 -7.276707 -1.298955 0
M  V30 55 H -5.159653 -7.375005 -4.276185 0
M  V30 56 H -4.719942 -8.627554 -3.096297 0
M  V30 57 H -1.351313 -7.480093 -2.771343 0
M  V30 58 H -2.703244 -8.302201 -1.902127 0
M  V30 59 H -1.832929 -5.449340 -1.923389 0
M  V30 60 H -2.679686 -6.379366 -0.630050 0
M  V30 61 H -0.418864 -0.289305 -0.122906 0
M  V30 62 H 1.236460 1.437000 0.122002 0
M  V30 END ATOM
M  V30 BEGIN BOND
M  V30 1 1 1 2
M  V30 2 2 2 3
M  V30 3 1 3 4
M  V30 4 2 4 5
M  V30 5 1 5 6
M  V30 6 2 6 7
M  V30 7 1 6 8
M  V30 8 1 8 9
M  V30 9 1 9 10
M  V30 10 1 10 11
M  V30 11 1 5 12
M  V30 12 2 12 13
M  V30 13 1 13 14
M  V30 14 2 14 15
M  V30 15 1 15 16
M  V30 16 2 16 17
M  V30 17 1 17 18
M  V30 18 2 18 19
M  V30 19 1 18 20
M  V30 20 1 20 21
M  V30 21 1 21 22
M  V30 22 1 22 23
M  V30 23 1 23 24
M  V30 24 1 24 25
M  V30 25 1 25 26
M  V30 26 1 26 27
M  V30 27 1 27 28
M  V30 28 1 28 29
M  V30 29 1 17 30
M  V30 30 2 30 31
M  V30 31 1 13 2
M  V30 32 1 31 14
M  V30 33 1 11 9
M  V30 34 1 29 24
M  V30 35 1 1 32
M  V30 36 1 1 33
M  V30 37 1 1 34
M  V30 38 1 3 35
M  V30 39 1 4 36
M  V30 40 1 8 37
M  V30 41 1 9 38
M  V30 42 1 10 39
M  V30 43 1 10 40
M  V30 44 1 11 41
M  V30 45 1 11 42
M  V30 46 1 12 43
M  V30 47 1 15 44
M  V30 48 1 16 45
M  V30 49 1 20 46
M  V30 50 1 21 47
M  V30 51 1 21 48
M  V30 52 1 22 49
M  V30 53 1 22 50
M  V30 54 1 23 51
M  V30 55 1 23 52
M  V30 56 1 25 53
M  V30 57 1 25 54
M  V30 58 1 26 55
M  V30 59 1 26 56
M  V30 60 1 28 57
M  V30 61 1 28 58
M  V30 62 1 29 59
M  V30 63 1 29 60
M  V30 64 1 30 61
M  V30 65 1 31 62
M  V30 END BOND
M  V30 END CTAB
M  END
>  <Dataset>  (38) 
ChEMBL_Kinases

>  <Ligand_Instance>  (38) 
nan

>  <PDB_ID>  (38) 
nan

>  <Standardized_SMILES>  (38) 
Cc1ccc(C(=O)NC2CC2)cc1-c1ccc(C(=O)NCCCN2CCOCC2)cc1

>  <Name>  (38) 
nan

>  <Pocket>  (38) 
nan

>  <ATP_Site>  (38) 
nan

>  <Peripheral>  (38) 
nan

>  <Num_H_Atoms_ProtBoundConf>  (38) 
nan

>  <Num_Resolved_Atoms>  (38) 
nan

>  <Num_Not_Resolved_Atoms>  (38) 
nan

$$$$
CHEMBL4225852
     RDKit          3D

  0  0  0  0  0  0  0  0  0  0999 V3000
M  V30 BEGIN CTAB
M  V30 COUNTS 88 94 0 0 0
M  V30 BEGIN ATOM
M  V30 1 C 1.921506 -3.663985 1.485596 0
M  V30 2 C 1.645464 -4.042917 0.044847 0
M  V30 3 C 1.101971 -5.479877 0.086334 0
M  V30 4 O 0.746872 -3.254790 -0.578803 0
M  V30 5 C 1.080130 -2.660233 -1.769046 0 CFG=1
M  V30 6 C 2.248089 -1.767558 -1.678838 0
M  V30 7 O 2.793137 -1.659332 -0.542162 0
M  V30 8 N 2.783308 -1.044788 -2.750730 0
M  V30 9 C 3.926014 -0.267573 -2.324309 0
M  V30 10 C 5.230667 -0.719257 -2.342198 0
M  V30 11 C 6.246921 0.111981 -1.908310 0
M  V30 12 C 6.024623 1.377989 -1.455267 0
M  V30 13 N 6.755573 2.412181 -0.977463 0
M  V30 14 N 5.962903 3.451900 -0.676804 0
M  V30 15 C 4.680268 3.088534 -0.965302 0
M  V30 16 C 3.587483 4.026515 -0.737806 0
M  V30 17 C 3.560333 4.736282 0.464364 0
M  V30 18 C 2.577242 5.647139 0.786258 0
M  V30 19 C 1.560164 5.870897 -0.133276 0
M  V30 20 F 0.517969 6.740999 0.040364 0
M  V30 21 C 1.554756 5.185935 -1.334212 0
M  V30 22 C 2.549522 4.279469 -1.633292 0
M  V30 23 C 4.707787 1.794861 -1.452151 0
M  V30 24 C 3.645553 1.018477 -1.870600 0
M  V30 25 C 1.006857 -3.522945 -2.976414 0
M  V30 26 C -0.472568 -3.912541 -2.985367 0
M  V30 27 N -1.082276 -2.847236 -2.330336 0
M  V30 28 C -2.409097 -2.731651 -2.045499 0
M  V30 29 C -2.979201 -3.673280 -1.036647 0
M  V30 30 O -2.490614 -4.622543 -0.336124 0
M  V30 31 N -4.380516 -3.404334 -0.858180 0
M  V30 32 C -5.246741 -2.411016 -1.485159 0
M  V30 33 C -5.874891 -1.492032 -0.495167 0
M  V30 34 N -5.273884 -1.811382 0.800441 0
M  V30 35 C -4.432646 -0.995476 1.604099 0
M  V30 36 C -3.948646 -1.314705 2.853811 0
M  V30 37 C -3.135911 -0.442976 3.530959 0
M  V30 38 C -2.749656 0.783029 3.033637 0
M  V30 39 C -1.881136 1.666074 3.802260 0
M  V30 40 N -1.416486 1.337009 5.028365 0
M  V30 41 C -0.604706 2.199490 5.705816 0
M  V30 42 C -0.251603 3.411504 5.148031 0
M  V30 43 C -0.739356 3.739955 3.878627 0
M  V30 44 N -1.547895 2.856588 3.228433 0
M  V30 45 C -3.245921 1.092247 1.770918 0
M  V30 46 C -4.064305 0.223075 1.079895 0
M  V30 47 C -5.707026 -3.166808 1.114885 0
M  V30 48 C -5.229944 -4.157701 0.071794 0
M  V30 49 C -0.157585 -1.795479 -2.102957 0
M  V30 50 H 1.337410 -4.300766 2.215533 0
M  V30 51 H 2.984886 -3.818006 1.762235 0
M  V30 52 H 1.590691 -2.630485 1.727978 0
M  V30 53 H 2.625128 -4.163306 -0.452698 0
M  V30 54 H 0.995281 -5.870894 -0.964696 0
M  V30 55 H 0.125437 -5.550190 0.558501 0
M  V30 56 H 1.890550 -6.138357 0.539871 0
M  V30 57 H 2.344004 -1.121432 -3.700029 0
M  V30 58 H 5.371536 -1.718847 -2.703947 0
M  V30 59 H 7.257639 -0.260162 -1.929998 0
M  V30 60 H 7.792912 2.317964 -0.891137 0
M  V30 61 H 4.336837 4.602718 1.231096 0
M  V30 62 H 2.535990 6.200678 1.696689 0
M  V30 63 H 0.815179 5.276628 -2.128738 0
M  V30 64 H 2.649304 3.685591 -2.538920 0
M  V30 65 H 2.622688 1.386769 -1.850820 0
M  V30 66 H 1.190810 -2.885482 -3.858653 0
M  V30 67 H 1.681462 -4.376186 -3.008562 0
M  V30 68 H -0.643002 -4.923310 -2.571111 0
M  V30 69 H -0.807975 -3.923874 -4.049388 0
M  V30 70 H -2.625631 -1.699173 -1.657816 0
M  V30 71 H -3.007661 -2.783448 -3.000945 0
M  V30 72 H -5.985457 -2.971842 -2.091114 0
M  V30 73 H -4.595973 -1.819117 -2.158579 0
M  V30 74 H -5.718618 -0.454958 -0.809278 0
M  V30 75 H -6.985147 -1.628526 -0.451750 0
M  V30 76 H -4.220243 -2.245789 3.277473 0
M  V30 77 H -2.791092 -0.758793 4.511089 0
M  V30 78 H -0.237773 1.925353 6.688111 0
M  V30 79 H 0.400611 4.070009 5.728286 0
M  V30 80 H -0.433247 4.691134 3.495928 0
M  V30 81 H -2.916112 2.068484 1.418085 0
M  V30 82 H -4.333905 0.651491 0.128114 0
M  V30 83 H -5.269548 -3.467408 2.088968 0
M  V30 84 H -6.824228 -3.130652 1.166096 0
M  V30 85 H -4.675111 -4.954139 0.565861 0
M  V30 86 H -6.113045 -4.576456 -0.460445 0
M  V30 87 H 0.062405 -1.366780 -3.104502 0
M  V30 88 H -0.394961 -1.070017 -1.349452 0
M  V30 END ATOM
M  V30 BEGIN BOND
M  V30 1 1 1 2
M  V30 2 1 2 3
M  V30 3 1 2 4
M  V30 4 1 5 4 CFG=1
M  V30 5 1 5 6
M  V30 6 2 6 7
M  V30 7 1 6 8
M  V30 8 1 8 9
M  V30 9 2 9 10
M  V30 10 1 10 11
M  V30 11 2 11 12
M  V30 12 1 12 13
M  V30 13 1 13 14
M  V30 14 2 14 15
M  V30 15 1 15 16
M  V30 16 2 16 17
M  V30 17 1 17 18
M  V30 18 2 18 19
M  V30 19 1 19 20
M  V30 20 1 19 21
M  V30 21 2 21 22
M  V30 22 1 15 23
M  V30 23 2 23 24
M  V30 24 1 5 25
M  V30 25 1 25 26
M  V30 26 1 26 27
M  V30 27 1 27 28
M  V30 28 1 28 29
M  V30 29 2 29 30
M  V30 30 1 29 31
M  V30 31 1 31 32
M  V30 32 1 32 33
M  V30 33 1 33 34
M  V30 34 1 34 35
M  V30 35 2 35 36
M  V30 36 1 36 37
M  V30 37 2 37 38
M  V30 38 1 38 39
M  V30 39 2 39 40
M  V30 40 1 40 41
M  V30 41 2 41 42
M  V30 42 1 42 43
M  V30 43 2 43 44
M  V30 44 1 38 45
M  V30 45 2 45 46
M  V30 46 1 34 47
M  V30 47 1 47 48
M  V30 48 1 27 49
M  V30 49 1 49 5
M  V30 50 1 24 9
M  V30 51 1 48 31
M  V30 52 1 23 12
M  V30 53 1 46 35
M  V30 54 1 22 16
M  V30 55 1 44 39
M  V30 56 1 1 50
M  V30 57 1 1 51
M  V30 58 1 1 52
M  V30 59 1 2 53
M  V30 60 1 3 54
M  V30 61 1 3 55
M  V30 62 1 3 56
M  V30 63 1 8 57
M  V30 64 1 10 58
M  V30 65 1 11 59
M  V30 66 1 13 60
M  V30 67 1 17 61
M  V30 68 1 18 62
M  V30 69 1 21 63
M  V30 70 1 22 64
M  V30 71 1 24 65
M  V30 72 1 25 66
M  V30 73 1 25 67
M  V30 74 1 26 68
M  V30 75 1 26 69
M  V30 76 1 28 70
M  V30 77 1 28 71
M  V30 78 1 32 72
M  V30 79 1 32 73
M  V30 80 1 33 74
M  V30 81 1 33 75
M  V30 82 1 36 76
M  V30 83 1 37 77
M  V30 84 1 41 78
M  V30 85 1 42 79
M  V30 86 1 43 80
M  V30 87 1 45 81
M  V30 88 1 46 82
M  V30 89 1 47 83
M  V30 90 1 47 84
M  V30 91 1 48 85
M  V30 92 1 48 86
M  V30 93 1 49 87
M  V30 94 1 49 88
M  V30 END BOND
M  V30 END CTAB
M  END
>  <Dataset>  (39) 
ChEMBL_Kinases

>  <Ligand_Instance>  (39) 
nan

>  <PDB_ID>  (39) 
nan

>  <Standardized_SMILES>  (39) 
CC(C)O[C@@]1(C(=O)Nc2ccc3[nH]nc(-c4ccc(F)cc4)c3c2)CCN(CC(=O)N2CCN(c3ccc(-c4ncccn4)cc3)CC2)C1

>  <Name>  (39) 
nan

>  <Pocket>  (39) 
nan

>  <ATP_Site>  (39) 
nan

>  <Peripheral>  (39) 
nan

>  <Num_H_Atoms_ProtBoundConf>  (39) 
nan

>  <Num_Resolved_Atoms>  (39) 
nan

>  <Num_Not_Resolved_Atoms>  (39) 
nan

$$$$
CHEMBL4227844
     RDKit          3D

  0  0  0  0  0  0  0  0  0  0999 V3000
M  V30 BEGIN CTAB
M  V30 COUNTS 48 52 0 0 0
M  V30 BEGIN ATOM
M  V30 1 C -1.287629 3.313846 -0.432869 0
M  V30 2 C -0.227851 2.630664 0.361276 0
M  V30 3 C 1.057501 2.492647 -0.107971 0
M  V30 4 N 2.058975 1.893616 0.544477 0
M  V30 5 C 3.332359 1.698171 0.190153 0
M  V30 6 C 4.109742 2.035779 -0.977397 0
M  V30 7 C 5.460553 1.692406 -1.084148 0
M  V30 8 N 5.961570 2.114161 -2.261484 0
M  V30 9 N 4.994957 2.731651 -2.955088 0
M  V30 10 C 3.907634 2.670321 -2.170119 0
M  V30 11 C 3.852145 1.025012 1.273673 0
M  V30 12 N 2.895991 0.846709 2.211558 0
M  V30 13 C 1.760666 1.394302 1.754584 0
M  V30 14 C 0.498936 1.490482 2.296015 0
M  V30 15 N 0.151641 0.976284 3.571437 0
M  V30 16 C -0.160955 -0.445416 3.576137 0
M  V30 17 C -0.086733 -1.306253 2.513653 0
M  V30 18 C -0.451762 -2.565663 2.841520 0
M  V30 19 C -0.451738 -3.717810 1.863515 0
M  V30 20 N -1.717516 -3.750428 1.155908 0
M  V30 21 C -1.828341 -3.055322 -0.016051 0
M  V30 22 C -3.009559 -3.062111 -0.721406 0
M  V30 23 C -4.082472 -3.776748 -0.235285 0
M  V30 24 C -3.975797 -4.483209 0.951983 0
M  V30 25 C -5.180580 -5.224916 1.401722 0
M  V30 26 C -2.773518 -4.442294 1.615171 0
M  V30 27 O -2.687032 -5.084962 2.686820 0
M  V30 28 N -0.868650 -2.954768 4.151539 0
M  V30 29 S -0.690853 -1.278899 4.940513 0
M  V30 30 N -0.496808 2.111290 1.595240 0
M  V30 31 H -1.039655 4.398371 -0.575427 0
M  V30 32 H -1.402881 2.799366 -1.395692 0
M  V30 33 H -2.230232 3.289241 0.146618 0
M  V30 34 H 1.230137 2.906568 -1.065847 0
M  V30 35 H 6.127852 1.171882 -0.413119 0
M  V30 36 H 5.083728 3.162260 -3.900594 0
M  V30 37 H 2.994534 3.089853 -2.488246 0
M  V30 38 H 4.839983 0.632014 1.501480 0
M  V30 39 H 0.116823 1.536915 4.431902 0
M  V30 40 H 0.220802 -1.044852 1.519710 0
M  V30 41 H -0.205499 -4.667169 2.333354 0
M  V30 42 H 0.340471 -3.538030 1.090411 0
M  V30 43 H -0.939284 -2.503815 -0.354322 0
M  V30 44 H -2.996076 -2.474352 -1.648487 0
M  V30 45 H -4.964511 -3.713077 -0.867223 0
M  V30 46 H -4.865497 -5.910614 2.215547 0
M  V30 47 H -5.700398 -5.723318 0.560649 0
M  V30 48 H -5.931150 -4.546998 1.868938 0
M  V30 END ATOM
M  V30 BEGIN BOND
M  V30 1 1 1 2
M  V30 2 2 2 3
M  V30 3 1 3 4
M  V30 4 1 4 5
M  V30 5 1 5 6
M  V30 6 1 6 7
M  V30 7 2 7 8
M  V30 8 1 8 9
M  V30 9 1 9 10
M  V30 10 2 5 11
M  V30 11 1 11 12
M  V30 12 2 12 13
M  V30 13 1 13 14
M  V30 14 1 14 15
M  V30 15 1 15 16
M  V30 16 2 16 17
M  V30 17 1 17 18
M  V30 18 1 18 19
M  V30 19 1 19 20
M  V30 20 1 20 21
M  V30 21 2 21 22
M  V30 22 1 22 23
M  V30 23 2 23 24
M  V30 24 1 24 25
M  V30 25 1 24 26
M  V30 26 2 26 27
M  V30 27 2 18 28
M  V30 28 1 28 29
M  V30 29 2 14 30
M  V30 30 1 30 2
M  V30 31 1 13 4
M  V30 32 1 29 16
M  V30 33 2 10 6
M  V30 34 1 26 20
M  V30 35 1 1 31
M  V30 36 1 1 32
M  V30 37 1 1 33
M  V30 38 1 3 34
M  V30 39 1 7 35
M  V30 40 1 9 36
M  V30 41 1 10 37
M  V30 42 1 11 38
M  V30 43 1 15 39
M  V30 44 1 17 40
M  V30 45 1 19 41
M  V30 46 1 19 42
M  V30 47 1 21 43
M  V30 48 1 22 44
M  V30 49 1 23 45
M  V30 50 1 25 46
M  V30 51 1 25 47
M  V30 52 1 25 48
M  V30 END BOND
M  V30 END CTAB
M  END
>  <Dataset>  (40) 
ChEMBL_Kinases

>  <Ligand_Instance>  (40) 
nan

>  <PDB_ID>  (40) 
nan

>  <Standardized_SMILES>  (40) 
Cc1cn2c(-c3cn[nH]c3)cnc2c(Nc2cc(Cn3cccc(C)c3=O)ns2)n1

>  <Name>  (40) 
nan

>  <Pocket>  (40) 
nan

>  <ATP_Site>  (40) 
nan

>  <Peripheral>  (40) 
nan

>  <Num_H_Atoms_ProtBoundConf>  (40) 
nan

>  <Num_Resolved_Atoms>  (40) 
nan

>  <Num_Not_Resolved_Atoms>  (40) 
nan

$$$$
CHEMBL4227818
     RDKit          3D

  0  0  0  0  0  0  0  0  0  0999 V3000
M  V30 BEGIN CTAB
M  V30 COUNTS 48 52 0 0 0
M  V30 BEGIN ATOM
M  V30 1 C -0.722358 2.430280 -2.012125 0
M  V30 2 C 0.237916 2.098026 -0.931718 0
M  V30 3 C 1.596721 1.973528 -1.110244 0
M  V30 4 N 2.469605 1.675070 -0.146244 0
M  V30 5 C 3.797842 1.529707 -0.201270 0
M  V30 6 C 4.778765 1.628102 -1.255064 0
M  V30 7 C 6.139946 1.417493 -1.003915 0
M  V30 8 N 6.852719 1.564416 -2.142223 0
M  V30 9 N 6.031895 1.861600 -3.134114 0
M  V30 10 C 4.801983 1.897114 -2.596749 0
M  V30 11 C 4.120147 1.226476 1.108764 0
M  V30 12 N 3.004533 1.205998 1.859601 0
M  V30 13 C 1.957751 1.486827 1.081924 0
M  V30 14 C 0.606313 1.595370 1.335068 0
M  V30 15 N 0.099835 1.390021 2.646408 0
M  V30 16 C -0.355711 0.180320 3.238676 0
M  V30 17 C -0.414191 -1.059805 2.678805 0
M  V30 18 C -0.904158 -1.989285 3.533938 0
M  V30 19 C -1.088729 -3.445918 3.185700 0
M  V30 20 C -2.459616 -3.698370 2.671749 0
M  V30 21 C -3.444397 -4.026489 3.609520 0
M  V30 22 C -4.759072 -4.284207 3.260592 0
M  V30 23 C -5.086330 -4.207381 1.921904 0
M  V30 24 C -4.092003 -3.878376 0.995371 0
M  V30 25 C -4.306235 -3.762018 -0.470836 0
M  V30 26 O -4.660249 -2.444558 -0.763985 0
M  V30 27 N -2.824760 -3.636786 1.392557 0
M  V30 28 N -1.313577 -1.708550 4.868750 0
M  V30 29 S -0.926273 0.113601 4.830132 0
M  V30 30 N -0.256388 1.901708 0.326071 0
M  V30 31 H -0.877651 3.525247 -2.144795 0
M  V30 32 H -0.396602 1.941927 -2.975355 0
M  V30 33 H -1.714118 1.976970 -1.774995 0
M  V30 34 H 1.935271 2.133233 -2.095964 0
M  V30 35 H 6.684208 1.171998 -0.106600 0
M  V30 36 H 6.281943 2.034349 -4.131892 0
M  V30 37 H 3.943240 2.114741 -3.173614 0
M  V30 38 H 5.047959 1.014982 1.613075 0
M  V30 39 H 0.121788 2.302951 3.107441 0
M  V30 40 H -0.113111 -1.299189 1.678166 0
M  V30 41 H -0.802409 -4.098664 4.004521 0
M  V30 42 H -0.399220 -3.703458 2.338874 0
M  V30 43 H -3.249507 -4.102372 4.673724 0
M  V30 44 H -5.520841 -4.536265 3.971228 0
M  V30 45 H -6.086800 -4.388408 1.522301 0
M  V30 46 H -5.215136 -4.375742 -0.705606 0
M  V30 47 H -3.419838 -4.114122 -1.027763 0
M  V30 48 H -4.357077 -1.799302 -0.055062 0
M  V30 END ATOM
M  V30 BEGIN BOND
M  V30 1 1 1 2
M  V30 2 2 2 3
M  V30 3 1 3 4
M  V30 4 1 4 5
M  V30 5 1 5 6
M  V30 6 1 6 7
M  V30 7 2 7 8
M  V30 8 1 8 9
M  V30 9 1 9 10
M  V30 10 2 5 11
M  V30 11 1 11 12
M  V30 12 2 12 13
M  V30 13 1 13 14
M  V30 14 1 14 15
M  V30 15 1 15 16
M  V30 16 2 16 17
M  V30 17 1 17 18
M  V30 18 1 18 19
M  V30 19 1 19 20
M  V30 20 2 20 21
M  V30 21 1 21 22
M  V30 22 2 22 23
M  V30 23 1 23 24
M  V30 24 1 24 25
M  V30 25 1 25 26
M  V30 26 2 24 27
M  V30 27 2 18 28
M  V30 28 1 28 29
M  V30 29 2 14 30
M  V30 30 1 30 2
M  V30 31 1 13 4
M  V30 32 1 29 16
M  V30 33 2 10 6
M  V30 34 1 27 20
M  V30 35 1 1 31
M  V30 36 1 1 32
M  V30 37 1 1 33
M  V30 38 1 3 34
M  V30 39 1 7 35
M  V30 40 1 9 36
M  V30 41 1 10 37
M  V30 42 1 11 38
M  V30 43 1 15 39
M  V30 44 1 17 40
M  V30 45 1 19 41
M  V30 46 1 19 42
M  V30 47 1 21 43
M  V30 48 1 22 44
M  V30 49 1 23 45
M  V30 50 1 25 46
M  V30 51 1 25 47
M  V30 52 1 26 48
M  V30 END BOND
M  V30 END CTAB
M  END
>  <Dataset>  (41) 
ChEMBL_Kinases

>  <Ligand_Instance>  (41) 
nan

>  <PDB_ID>  (41) 
nan

>  <Standardized_SMILES>  (41) 
Cc1cn2c(-c3cn[nH]c3)cnc2c(Nc2cc(Cc3cccc(CO)n3)ns2)n1

>  <Name>  (41) 
nan

>  <Pocket>  (41) 
nan

>  <ATP_Site>  (41) 
nan

>  <Peripheral>  (41) 
nan

>  <Num_H_Atoms_ProtBoundConf>  (41) 
nan

>  <Num_Resolved_Atoms>  (41) 
nan

>  <Num_Not_Resolved_Atoms>  (41) 
nan

$$$$
CHEMBL477558
     RDKit          3D

  0  0  0  0  0  0  0  0  0  0999 V3000
M  V30 BEGIN CTAB
M  V30 COUNTS 57 59 0 0 0
M  V30 BEGIN ATOM
M  V30 1 C -0.885919 2.185019 3.622770 0
M  V30 2 C 0.542697 2.077864 3.302708 0
M  V30 3 C 1.466225 2.681599 4.141633 0
M  V30 4 C 2.854517 2.667333 3.968021 0
M  V30 5 C 3.300026 1.984345 2.855899 0
M  V30 6 C 4.745760 1.958560 2.656456 0
M  V30 7 O 5.487305 2.524650 3.497741 0
M  V30 8 N 5.415611 1.336112 1.568565 0
M  V30 9 C 6.856653 1.353013 1.436969 0
M  V30 10 C 7.594739 0.165938 0.887037 0
M  V30 11 C 7.496945 1.468132 0.107735 0
M  V30 12 C 2.418652 1.376138 2.005736 0
M  V30 13 C 1.038121 1.404000 2.199933 0
M  V30 14 C 0.110385 0.749361 1.287129 0
M  V30 15 C 0.331719 0.938091 -0.070762 0
M  V30 16 C -0.508598 0.347359 -1.022644 0
M  V30 17 C -1.577743 -0.437063 -0.630493 0
M  V30 18 C -2.408927 -1.020711 -1.677963 0
M  V30 19 O -2.079902 -0.791070 -2.870281 0
M  V30 20 N -3.544060 -1.815743 -1.417918 0
M  V30 21 C -4.384497 -2.406237 -2.409838 0
M  V30 22 C -5.531564 -3.205155 -1.901524 0
M  V30 23 C -5.156407 -4.380669 -1.057051 0
M  V30 24 N -4.356692 -5.367001 -1.670414 0
M  V30 25 C -4.914629 -6.142418 -2.711509 0
M  V30 26 C -2.954924 -5.220974 -1.672413 0
M  V30 27 C -1.796815 -0.623848 0.718138 0
M  V30 28 C -0.950307 -0.028131 1.631718 0
M  V30 29 H -1.175188 1.486339 4.425961 0
M  V30 30 H -1.551148 2.177092 2.738270 0
M  V30 31 H -1.050132 3.209877 4.071294 0
M  V30 32 H 1.099109 3.224428 5.027104 0
M  V30 33 H 3.472849 3.179701 4.696288 0
M  V30 34 H 4.818736 0.853167 0.847315 0
M  V30 35 H 7.371970 1.874589 2.258674 0
M  V30 36 H 6.926340 -0.670326 0.597337 0
M  V30 37 H 8.596707 -0.091805 1.262679 0
M  V30 38 H 6.924012 1.460988 -0.827060 0
M  V30 39 H 8.416195 2.084373 0.017682 0
M  V30 40 H 2.789890 0.841449 1.134105 0
M  V30 41 H 1.177758 1.559190 -0.399521 0
M  V30 42 H -0.257175 0.550740 -2.047394 0
M  V30 43 H -3.820953 -2.008097 -0.421828 0
M  V30 44 H -3.828395 -3.013611 -3.154658 0
M  V30 45 H -4.828850 -1.547123 -2.992259 0
M  V30 46 H -6.312367 -2.587337 -1.422693 0
M  V30 47 H -6.039369 -3.631777 -2.816946 0
M  V30 48 H -6.105068 -4.859372 -0.730491 0
M  V30 49 H -4.631977 -4.059371 -0.117229 0
M  V30 50 H -4.380595 -7.138121 -2.724237 0
M  V30 51 H -4.743973 -5.748933 -3.743053 0
M  V30 52 H -5.968547 -6.389957 -2.503962 0
M  V30 53 H -2.541497 -5.074561 -2.705223 0
M  V30 54 H -2.668822 -4.405989 -0.971058 0
M  V30 55 H -2.482326 -6.155924 -1.298354 0
M  V30 56 H -2.621738 -1.228467 1.029301 0
M  V30 57 H -1.131801 -0.183408 2.685668 0
M  V30 END ATOM
M  V30 BEGIN BOND
M  V30 1 1 1 2
M  V30 2 2 2 3
M  V30 3 1 3 4
M  V30 4 2 4 5
M  V30 5 1 5 6
M  V30 6 2 6 7
M  V30 7 1 6 8
M  V30 8 1 8 9
M  V30 9 1 9 10
M  V30 10 1 10 11
M  V30 11 1 5 12
M  V30 12 2 12 13
M  V30 13 1 13 14
M  V30 14 2 14 15
M  V30 15 1 15 16
M  V30 16 2 16 17
M  V30 17 1 17 18
M  V30 18 2 18 19
M  V30 19 1 18 20
M  V30 20 1 20 21
M  V30 21 1 21 22
M  V30 22 1 22 23
M  V30 23 1 23 24
M  V30 24 1 24 25
M  V30 25 1 24 26
M  V30 26 1 17 27
M  V30 27 2 27 28
M  V30 28 1 13 2
M  V30 29 1 28 14
M  V30 30 1 11 9
M  V30 31 1 1 29
M  V30 32 1 1 30
M  V30 33 1 1 31
M  V30 34 1 3 32
M  V30 35 1 4 33
M  V30 36 1 8 34
M  V30 37 1 9 35
M  V30 38 1 10 36
M  V30 39 1 10 37
M  V30 40 1 11 38
M  V30 41 1 11 39
M  V30 42 1 12 40
M  V30 43 1 15 41
M  V30 44 1 16 42
M  V30 45 1 20 43
M  V30 46 1 21 44
M  V30 47 1 21 45
M  V30 48 1 22 46
M  V30 49 1 22 47
M  V30 50 1 23 48
M  V30 51 1 23 49
M  V30 52 1 25 50
M  V30 53 1 25 51
M  V30 54 1 25 52
M  V30 55 1 26 53
M  V30 56 1 26 54
M  V30 57 1 26 55
M  V30 58 1 27 56
M  V30 59 1 28 57
M  V30 END BOND
M  V30 END CTAB
M  END
>  <Dataset>  (42) 
ChEMBL_Kinases

>  <Ligand_Instance>  (42) 
nan

>  <PDB_ID>  (42) 
nan

>  <Standardized_SMILES>  (42) 
Cc1ccc(C(=O)NC2CC2)cc1-c1ccc(C(=O)NCCCN(C)C)cc1

>  <Name>  (42) 
nan

>  <Pocket>  (42) 
nan

>  <ATP_Site>  (42) 
nan

>  <Peripheral>  (42) 
nan

>  <Num_H_Atoms_ProtBoundConf>  (42) 
nan

>  <Num_Resolved_Atoms>  (42) 
nan

>  <Num_Not_Resolved_Atoms>  (42) 
nan

$$$$
CHEMBL4227816
     RDKit          3D

  0  0  0  0  0  0  0  0  0  0999 V3000
M  V30 BEGIN CTAB
M  V30 COUNTS 41 43 0 0 0
M  V30 BEGIN ATOM
M  V30 1 O 1.523972 -1.181990 2.162336 0
M  V30 2 C 0.804944 -0.153047 2.120296 0
M  V30 3 N 0.797189 0.433236 3.405407 0
M  V30 4 O 1.558796 -0.275896 4.300129 0
M  V30 5 C 2.870252 0.194212 4.291431 0
M  V30 6 C 3.715095 -0.601932 5.292956 0
M  V30 7 O 4.991430 -0.061674 5.208658 0
M  V30 8 C 0.080375 0.405915 1.010188 0
M  V30 9 C -0.592526 1.597523 1.143809 0
M  V30 10 C -1.259746 2.139500 0.038049 0
M  V30 11 C -1.254001 1.488968 -1.202833 0
M  V30 12 C -0.567945 0.275682 -1.333362 0
M  V30 13 F -0.592517 -0.307961 -2.542786 0
M  V30 14 C 0.080721 -0.228668 -0.212282 0
M  V30 15 N 0.699440 -1.479087 -0.472335 0
M  V30 16 C 0.224387 -2.810286 -0.705438 0
M  V30 17 C 0.712024 -3.202039 -1.962179 0
M  V30 18 C 0.422333 -4.449189 -2.490903 0
M  V30 19 C -0.368359 -5.319936 -1.750906 0
M  V30 20 Br -0.872011 -7.076050 -2.314237 0
M  V30 21 C -0.838601 -4.927833 -0.527159 0
M  V30 22 C -0.554085 -3.702015 -0.007640 0
M  V30 23 Cl -1.091999 -3.066557 1.514876 0
M  V30 24 O -1.983711 2.233521 -2.120936 0
M  V30 25 C -2.766633 3.195808 -1.407012 0
M  V30 26 C -2.062877 3.408052 -0.100408 0
M  V30 27 H 0.258285 1.320335 3.634598 0
M  V30 28 H 2.882551 1.246562 4.671545 0
M  V30 29 H 3.335380 0.206946 3.300698 0
M  V30 30 H 3.685124 -1.689343 5.076992 0
M  V30 31 H 3.326665 -0.422625 6.302767 0
M  V30 32 H 5.633641 -0.818386 5.264152 0
M  V30 33 H -0.654814 2.172303 2.054462 0
M  V30 34 H 1.717952 -1.258727 -0.469856 0
M  V30 35 H 1.338323 -2.655265 -2.671480 0
M  V30 36 H 0.740125 -4.846564 -3.432376 0
M  V30 37 H -1.468517 -5.527989 0.142969 0
M  V30 38 H -3.776656 2.764115 -1.306434 0
M  V30 39 H -2.867024 4.135753 -1.975937 0
M  V30 40 H -1.431814 4.310021 -0.067109 0
M  V30 41 H -2.842332 3.438557 0.692374 0
M  V30 END ATOM
M  V30 BEGIN BOND
M  V30 1 2 1 2
M  V30 2 1 2 3
M  V30 3 1 3 4
M  V30 4 1 4 5
M  V30 5 1 5 6
M  V30 6 1 6 7
M  V30 7 1 2 8
M  V30 8 2 8 9
M  V30 9 1 9 10
M  V30 10 2 10 11
M  V30 11 1 11 12
M  V30 12 1 12 13
M  V30 13 2 12 14
M  V30 14 1 14 15
M  V30 15 1 15 16
M  V30 16 2 16 17
M  V30 17 1 17 18
M  V30 18 2 18 19
M  V30 19 1 19 20
M  V30 20 1 19 21
M  V30 21 2 21 22
M  V30 22 1 22 23
M  V30 23 1 11 24
M  V30 24 1 24 25
M  V30 25 1 25 26
M  V30 26 1 14 8
M  V30 27 1 22 16
M  V30 28 1 26 10
M  V30 29 1 3 27
M  V30 30 1 5 28
M  V30 31 1 5 29
M  V30 32 1 6 30
M  V30 33 1 6 31
M  V30 34 1 7 32
M  V30 35 1 9 33
M  V30 36 1 15 34
M  V30 37 1 17 35
M  V30 38 1 18 36
M  V30 39 1 21 37
M  V30 40 1 25 38
M  V30 41 1 25 39
M  V30 42 1 26 40
M  V30 43 1 26 41
M  V30 END BOND
M  V30 END CTAB
M  END
>  <Dataset>  (43) 
ChEMBL_Kinases

>  <Ligand_Instance>  (43) 
nan

>  <PDB_ID>  (43) 
nan

>  <Standardized_SMILES>  (43) 
O=C(NOCCO)c1cc2c(c(F)c1Nc1ccc(Br)cc1Cl)OCC2

>  <Name>  (43) 
nan

>  <Pocket>  (43) 
nan

>  <ATP_Site>  (43) 
nan

>  <Peripheral>  (43) 
nan

>  <Num_H_Atoms_ProtBoundConf>  (43) 
nan

>  <Num_Resolved_Atoms>  (43) 
nan

>  <Num_Not_Resolved_Atoms>  (43) 
nan

$$$$
CHEMBL477582
     RDKit          3D

  0  0  0  0  0  0  0  0  0  0999 V3000
M  V30 BEGIN CTAB
M  V30 COUNTS 50 53 0 0 0
M  V30 BEGIN ATOM
M  V30 1 C 1.731184 -1.228362 4.522208 0
M  V30 2 C 1.919897 -0.078774 3.640580 0
M  V30 3 C 2.628622 0.991035 4.146330 0
M  V30 4 C 2.832396 2.099901 3.350074 0
M  V30 5 C 2.314254 2.108642 2.050876 0
M  V30 6 N 2.557287 3.282272 1.276146 0
M  V30 7 C 1.946699 4.529615 1.017764 0
M  V30 8 O 0.842045 4.850318 1.567561 0
M  V30 9 C 2.704615 5.375436 0.080484 0
M  V30 10 C 3.902598 5.182658 -0.597322 0
M  V30 11 C 4.124883 6.323713 -1.341372 0
M  V30 12 C 3.042072 7.167877 -1.080691 0
M  V30 13 O 2.245199 6.560081 -0.243132 0
M  V30 14 C 1.611993 1.017398 1.586400 0
M  V30 15 C 1.392375 -0.111176 2.366402 0
M  V30 16 C 0.641502 -1.237758 1.822418 0
M  V30 17 C -0.528733 -0.972452 1.127727 0
M  V30 18 C -1.295726 -1.981903 0.582737 0
M  V30 19 C -0.923237 -3.305851 0.709925 0
M  V30 20 C -1.641675 -4.462852 0.183403 0
M  V30 21 O -1.244117 -5.667551 0.334979 0
M  V30 22 N -2.848297 -4.386973 -0.547918 0
M  V30 23 C -3.519360 -5.570504 -1.047501 0
M  V30 24 C -4.786783 -5.220717 -1.795184 0
M  V30 25 C -4.573037 -4.335538 -2.992392 0
M  V30 26 C -4.988164 -5.743071 -3.182384 0
M  V30 27 C 0.242102 -3.575942 1.401262 0
M  V30 28 C 0.997465 -2.552144 1.940236 0
M  V30 29 H 2.653911 -1.839933 4.532068 0
M  V30 30 H 0.799587 -1.805368 4.363491 0
M  V30 31 H 1.641633 -0.867648 5.589309 0
M  V30 32 H 3.025386 0.968022 5.160334 0
M  V30 33 H 3.381445 2.953845 3.712307 0
M  V30 34 H 3.474606 2.971425 0.842986 0
M  V30 35 H 4.460916 4.270609 -0.481245 0
M  V30 36 H 4.994883 6.462222 -1.979931 0
M  V30 37 H 3.008731 8.135465 -1.567361 0
M  V30 38 H 1.245603 1.103975 0.573224 0
M  V30 39 H -0.889411 0.037390 0.983946 0
M  V30 40 H -2.221290 -1.825607 0.029242 0
M  V30 41 H -3.268684 -3.439277 -0.732915 0
M  V30 42 H -3.654958 -6.337292 -0.278724 0
M  V30 43 H -2.796118 -6.024104 -1.786666 0
M  V30 44 H -5.692138 -5.028419 -1.185091 0
M  V30 45 H -3.539943 -4.046728 -3.264931 0
M  V30 46 H -5.296123 -3.512838 -3.139769 0
M  V30 47 H -6.009458 -6.026725 -3.525817 0
M  V30 48 H -4.225051 -6.464945 -3.558845 0
M  V30 49 H 0.591087 -4.590141 1.537565 0
M  V30 50 H 1.888853 -2.792746 2.466473 0
M  V30 END ATOM
M  V30 BEGIN BOND
M  V30 1 1 1 2
M  V30 2 2 2 3
M  V30 3 1 3 4
M  V30 4 2 4 5
M  V30 5 1 5 6
M  V30 6 1 6 7
M  V30 7 2 7 8
M  V30 8 1 7 9
M  V30 9 2 9 10
M  V30 10 1 10 11
M  V30 11 2 11 12
M  V30 12 1 12 13
M  V30 13 1 5 14
M  V30 14 2 14 15
M  V30 15 1 15 16
M  V30 16 2 16 17
M  V30 17 1 17 18
M  V30 18 2 18 19
M  V30 19 1 19 20
M  V30 20 2 20 21
M  V30 21 1 20 22
M  V30 22 1 22 23
M  V30 23 1 23 24
M  V30 24 1 24 25
M  V30 25 1 25 26
M  V30 26 1 19 27
M  V30 27 2 27 28
M  V30 28 1 15 2
M  V30 29 1 28 16
M  V30 30 1 13 9
M  V30 31 1 26 24
M  V30 32 1 1 29
M  V30 33 1 1 30
M  V30 34 1 1 31
M  V30 35 1 3 32
M  V30 36 1 4 33
M  V30 37 1 6 34
M  V30 38 1 10 35
M  V30 39 1 11 36
M  V30 40 1 12 37
M  V30 41 1 14 38
M  V30 42 1 17 39
M  V30 43 1 18 40
M  V30 44 1 22 41
M  V30 45 1 23 42
M  V30 46 1 23 43
M  V30 47 1 24 44
M  V30 48 1 25 45
M  V30 49 1 25 46
M  V30 50 1 26 47
M  V30 51 1 26 48
M  V30 52 1 27 49
M  V30 53 1 28 50
M  V30 END BOND
M  V30 END CTAB
M  END
>  <Dataset>  (44) 
ChEMBL_Kinases

>  <Ligand_Instance>  (44) 
nan

>  <PDB_ID>  (44) 
nan

>  <Standardized_SMILES>  (44) 
Cc1ccc(NC(=O)c2ccco2)cc1-c1ccc(C(=O)NCC2CC2)cc1

>  <Name>  (44) 
nan

>  <Pocket>  (44) 
nan

>  <ATP_Site>  (44) 
nan

>  <Peripheral>  (44) 
nan

>  <Num_H_Atoms_ProtBoundConf>  (44) 
nan

>  <Num_Resolved_Atoms>  (44) 
nan

>  <Num_Not_Resolved_Atoms>  (44) 
nan

$$$$
CHEMBL477583
     RDKit          3D

  0  0  0  0  0  0  0  0  0  0999 V3000
M  V30 BEGIN CTAB
M  V30 COUNTS 50 53 0 0 0
M  V30 BEGIN ATOM
M  V30 1 C 1.130757 -0.805262 4.899506 0
M  V30 2 C 1.606916 0.196817 3.935599 0
M  V30 3 C 2.234422 1.340801 4.385253 0
M  V30 4 C 2.690967 2.297790 3.498887 0
M  V30 5 C 2.510113 2.094334 2.140461 0
M  V30 6 N 2.931165 2.998691 1.110630 0
M  V30 7 C 2.202184 4.074930 0.531666 0
M  V30 8 O 1.027162 4.342029 0.910548 0
M  V30 9 C 2.892004 4.832316 -0.508060 0
M  V30 10 C 4.175766 4.664199 -1.032432 0
M  V30 11 C 4.322800 5.651765 -1.992731 0
M  V30 12 O 3.219991 6.365048 -2.050914 0
M  V30 13 C 2.341100 5.906596 -1.179083 0
M  V30 14 C 1.870524 0.925050 1.714029 0
M  V30 15 C 1.402857 -0.052557 2.595694 0
M  V30 16 C 0.749677 -1.234985 2.045343 0
M  V30 17 C -0.174900 -0.921856 1.039751 0
M  V30 18 C -0.898989 -1.902120 0.391914 0
M  V30 19 C -0.728404 -3.232146 0.722473 0
M  V30 20 C -1.419231 -4.376486 0.128190 0
M  V30 21 O -1.211369 -5.582841 0.483609 0
M  V30 22 N -2.387852 -4.234442 -0.903975 0
M  V30 23 C -3.060544 -5.372871 -1.479940 0
M  V30 24 C -4.035209 -4.898081 -2.556375 0
M  V30 25 C -5.136181 -3.962157 -2.155227 0
M  V30 26 C -5.447458 -5.371864 -2.531414 0
M  V30 27 C 0.192866 -3.529505 1.722799 0
M  V30 28 C 0.917461 -2.548071 2.371033 0
M  V30 29 H 1.940312 -1.460500 5.290747 0
M  V30 30 H 0.232490 -1.374876 4.556439 0
M  V30 31 H 0.749907 -0.264982 5.816792 0
M  V30 32 H 2.379278 1.506718 5.444514 0
M  V30 33 H 3.188732 3.212020 3.789754 0
M  V30 34 H 3.902410 2.699810 0.867265 0
M  V30 35 H 4.867704 3.897543 -0.710587 0
M  V30 36 H 5.216889 5.793551 -2.589405 0
M  V30 37 H 1.356231 6.299833 -1.013085 0
M  V30 38 H 1.723710 0.755391 0.655132 0
M  V30 39 H -0.415508 0.088164 0.672212 0
M  V30 40 H -1.614123 -1.706357 -0.380600 0
M  V30 41 H -2.612545 -3.258207 -1.250811 0
M  V30 42 H -3.652490 -5.961953 -0.748207 0
M  V30 43 H -2.379926 -6.089556 -1.965231 0
M  V30 44 H -3.591035 -4.637872 -3.549533 0
M  V30 45 H -5.465804 -3.164949 -2.840154 0
M  V30 46 H -5.305187 -3.713347 -1.090451 0
M  V30 47 H -5.917241 -5.565379 -3.517108 0
M  V30 48 H -5.677516 -6.116820 -1.725234 0
M  V30 49 H 0.416841 -4.530200 2.071825 0
M  V30 50 H 1.639799 -2.714591 3.147754 0
M  V30 END ATOM
M  V30 BEGIN BOND
M  V30 1 1 1 2
M  V30 2 2 2 3
M  V30 3 1 3 4
M  V30 4 2 4 5
M  V30 5 1 5 6
M  V30 6 1 6 7
M  V30 7 2 7 8
M  V30 8 1 7 9
M  V30 9 1 9 10
M  V30 10 2 10 11
M  V30 11 1 11 12
M  V30 12 1 12 13
M  V30 13 1 5 14
M  V30 14 2 14 15
M  V30 15 1 15 16
M  V30 16 2 16 17
M  V30 17 1 17 18
M  V30 18 2 18 19
M  V30 19 1 19 20
M  V30 20 2 20 21
M  V30 21 1 20 22
M  V30 22 1 22 23
M  V30 23 1 23 24
M  V30 24 1 24 25
M  V30 25 1 25 26
M  V30 26 1 19 27
M  V30 27 2 27 28
M  V30 28 1 15 2
M  V30 29 1 28 16
M  V30 30 2 13 9
M  V30 31 1 26 24
M  V30 32 1 1 29
M  V30 33 1 1 30
M  V30 34 1 1 31
M  V30 35 1 3 32
M  V30 36 1 4 33
M  V30 37 1 6 34
M  V30 38 1 10 35
M  V30 39 1 11 36
M  V30 40 1 13 37
M  V30 41 1 14 38
M  V30 42 1 17 39
M  V30 43 1 18 40
M  V30 44 1 22 41
M  V30 45 1 23 42
M  V30 46 1 23 43
M  V30 47 1 24 44
M  V30 48 1 25 45
M  V30 49 1 25 46
M  V30 50 1 26 47
M  V30 51 1 26 48
M  V30 52 1 27 49
M  V30 53 1 28 50
M  V30 END BOND
M  V30 END CTAB
M  END
>  <Dataset>  (45) 
ChEMBL_Kinases

>  <Ligand_Instance>  (45) 
nan

>  <PDB_ID>  (45) 
nan

>  <Standardized_SMILES>  (45) 
Cc1ccc(NC(=O)c2ccoc2)cc1-c1ccc(C(=O)NCC2CC2)cc1

>  <Name>  (45) 
GW743024X

>  <Pocket>  (45) 
nan

>  <ATP_Site>  (45) 
nan

>  <Peripheral>  (45) 
nan

>  <Num_H_Atoms_ProtBoundConf>  (45) 
nan

>  <Num_Resolved_Atoms>  (45) 
nan

>  <Num_Not_Resolved_Atoms>  (45) 
nan

$$$$
CHEMBL4227754
     RDKit          3D

  0  0  0  0  0  0  0  0  0  0999 V3000
M  V30 BEGIN CTAB
M  V30 COUNTS 67 71 0 0 0
M  V30 BEGIN ATOM
M  V30 1 C 2.119516 -0.879721 6.486324 0
M  V30 2 C 2.033423 -1.899812 5.407246 0
M  V30 3 C 1.860087 -1.397920 4.213902 0
M  V30 4 C 1.737201 -0.059091 3.684826 0
M  V30 5 O 1.565518 0.177524 2.432503 0
M  V30 6 N 1.738401 1.287802 4.111840 0
M  V30 7 C 1.551041 2.095171 2.934842 0
M  V30 8 C 2.628124 2.543200 2.197248 0
M  V30 9 C 2.414278 3.308824 1.082948 0
M  V30 10 C 1.110742 3.591089 0.759204 0
M  V30 11 N 0.627124 4.315667 -0.275423 0
M  V30 12 N -0.706684 4.366342 -0.255154 0
M  V30 13 C -1.115828 3.650720 0.829917 0
M  V30 14 C 0.024938 3.163465 1.467603 0
M  V30 15 C 0.234377 2.386734 2.598552 0
M  V30 16 C 1.698571 -2.394667 3.129859 0
M  V30 17 C 0.283134 -2.313567 2.637625 0
M  V30 18 C -0.738010 -1.498754 3.068162 0
M  V30 19 C -1.984108 -1.542015 2.491578 0
M  V30 20 C -2.215371 -2.417790 1.463637 0
M  V30 21 F -3.453070 -2.446368 0.962292 0
M  V30 22 C -1.282278 -3.282052 0.941851 0
M  V30 23 C -1.430421 -4.224784 -0.183492 0
M  V30 24 C -1.211822 -3.532934 -1.487541 0
M  V30 25 C -2.102998 -2.429707 -1.838466 0
M  V30 26 O -3.042395 -1.560720 -1.796118 0
M  V30 27 N -1.645566 -1.937476 -3.139989 0
M  V30 28 C -2.349211 -0.816883 -3.763686 0
M  V30 29 C -1.803668 -0.399664 -5.080789 0
M  V30 30 C -0.375216 0.074453 -5.204659 0
M  V30 31 O -0.191706 1.207999 -4.389127 0
M  V30 32 C -2.786508 0.375029 -5.945629 0
M  V30 33 C -2.392006 -0.988644 -6.348580 0
M  V30 34 C -0.035252 -3.180153 1.581730 0
M  V30 35 N 2.054107 -3.724424 3.473108 0
M  V30 36 C 2.228709 -4.246987 4.773156 0
M  V30 37 O 2.380703 -5.470324 5.013960 0
M  V30 38 N 2.212615 -3.240992 5.763406 0
M  V30 39 H 2.992890 -0.233944 6.403200 0
M  V30 40 H 1.164340 -0.351785 6.522196 0
M  V30 41 H 2.192219 -1.402029 7.482567 0
M  V30 42 H 1.874938 1.310351 5.144834 0
M  V30 43 H 3.619797 2.258781 2.546444 0
M  V30 44 H 3.270470 3.659598 0.504375 0
M  V30 45 H 1.157181 4.803896 -1.033784 0
M  V30 46 H -2.142542 3.487424 1.144013 0
M  V30 47 H -0.629073 2.050709 3.156160 0
M  V30 48 H 2.349287 -2.081716 2.266637 0
M  V30 49 H -0.523056 -0.842113 3.871277 0
M  V30 50 H -2.748131 -0.890444 2.857234 0
M  V30 51 H -0.606917 -4.986920 -0.093271 0
M  V30 52 H -2.414980 -4.753936 -0.139394 0
M  V30 53 H -0.133058 -3.237663 -1.551037 0
M  V30 54 H -1.335104 -4.317263 -2.301773 0
M  V30 55 H -0.830343 -2.274097 -3.761923 0
M  V30 56 H -2.269198 0.061620 -3.074081 0
M  V30 57 H -3.395992 -1.148748 -3.928133 0
M  V30 58 H 0.278295 -0.750963 -4.925152 0
M  V30 59 H -0.186864 0.422642 -6.240123 0
M  V30 60 H 0.381110 0.939871 -3.628245 0
M  V30 61 H -2.395418 1.209486 -6.573208 0
M  V30 62 H -3.804594 0.589314 -5.570879 0
M  V30 63 H -3.039806 -1.881953 -6.157146 0
M  V30 64 H -1.719960 -1.110567 -7.230704 0
M  V30 65 H 0.740394 -3.844298 1.207007 0
M  V30 66 H 2.189067 -4.345242 2.639902 0
M  V30 67 H 2.335325 -3.498799 6.769117 0
M  V30 END ATOM
M  V30 BEGIN BOND
M  V30 1 1 1 2
M  V30 2 2 2 3
M  V30 3 1 3 4
M  V30 4 2 4 5
M  V30 5 1 4 6
M  V30 6 1 6 7
M  V30 7 2 7 8
M  V30 8 1 8 9
M  V30 9 2 9 10
M  V30 10 1 10 11
M  V30 11 1 11 12
M  V30 12 2 12 13
M  V30 13 1 13 14
M  V30 14 2 14 15
M  V30 15 1 3 16
M  V30 16 1 16 17
M  V30 17 2 17 18
M  V30 18 1 18 19
M  V30 19 2 19 20
M  V30 20 1 20 21
M  V30 21 1 20 22
M  V30 22 1 22 23
M  V30 23 1 23 24
M  V30 24 1 24 25
M  V30 25 2 25 26
M  V30 26 1 25 27
M  V30 27 1 27 28
M  V30 28 1 28 29
M  V30 29 1 29 30
M  V30 30 1 30 31
M  V30 31 1 29 32
M  V30 32 1 32 33
M  V30 33 2 22 34
M  V30 34 1 16 35
M  V30 35 1 35 36
M  V30 36 2 36 37
M  V30 37 1 36 38
M  V30 38 1 38 2
M  V30 39 1 15 7
M  V30 40 1 34 17
M  V30 41 1 14 10
M  V30 42 1 33 29
M  V30 43 1 1 39
M  V30 44 1 1 40
M  V30 45 1 1 41
M  V30 46 1 6 42
M  V30 47 1 8 43
M  V30 48 1 9 44
M  V30 49 1 11 45
M  V30 50 1 13 46
M  V30 51 1 15 47
M  V30 52 1 16 48
M  V30 53 1 18 49
M  V30 54 1 19 50
M  V30 55 1 23 51
M  V30 56 1 23 52
M  V30 57 1 24 53
M  V30 58 1 24 54
M  V30 59 1 27 55
M  V30 60 1 28 56
M  V30 61 1 28 57
M  V30 62 1 30 58
M  V30 63 1 30 59
M  V30 64 1 31 60
M  V30 65 1 32 61
M  V30 66 1 32 62
M  V30 67 1 33 63
M  V30 68 1 33 64
M  V30 69 1 34 65
M  V30 70 1 35 66
M  V30 71 1 38 67
M  V30 END BOND
M  V30 END CTAB
M  END
>  <Dataset>  (46) 
ChEMBL_Kinases

>  <Ligand_Instance>  (46) 
nan

>  <PDB_ID>  (46) 
nan

>  <Standardized_SMILES>  (46) 
CC1=C(C(=O)Nc2ccc3[nH]ncc3c2)C(c2ccc(F)c(CCC(=O)NCC3(CO)CC3)c2)NC(=O)N1

>  <Name>  (46) 
nan

>  <Pocket>  (46) 
nan

>  <ATP_Site>  (46) 
nan

>  <Peripheral>  (46) 
nan

>  <Num_H_Atoms_ProtBoundConf>  (46) 
nan

>  <Num_Resolved_Atoms>  (46) 
nan

>  <Num_Not_Resolved_Atoms>  (46) 
nan

$$$$
CHEMBL4227689
     RDKit          3D

  0  0  0  0  0  0  0  0  0  0999 V3000
M  V30 BEGIN CTAB
M  V30 COUNTS 53 57 0 0 0
M  V30 BEGIN ATOM
M  V30 1 C 5.067366 -3.773822 6.145356 0
M  V30 2 C 4.438822 -3.260743 4.893589 0
M  V30 3 C 3.888960 -1.982959 4.890584 0
M  V30 4 C 3.303169 -1.506464 3.723773 0
M  V30 5 C 3.298698 -2.322729 2.636702 0
M  V30 6 C 2.705125 -1.915728 1.360740 0
M  V30 7 O 2.675017 -2.629668 0.302170 0
M  V30 8 N 2.080495 -0.648798 1.153469 0
M  V30 9 C 1.506466 -0.272126 -0.103154 0
M  V30 10 C 0.165809 -0.597948 -0.291481 0
M  V30 11 C -0.355420 -0.227458 -1.500869 0
M  V30 12 C -1.722961 -0.508863 -1.830253 0
M  V30 13 C -2.802752 -0.013410 -1.180112 0
M  V30 14 C -2.960383 0.885073 -0.045709 0
M  V30 15 C -3.137474 0.275188 1.191403 0
M  V30 16 C -3.307650 0.985950 2.366708 0
M  V30 17 C -3.295201 2.360597 2.265640 0
M  V30 18 F -3.457554 3.097696 3.385796 0
M  V30 19 C -3.123370 3.018818 1.065422 0
M  V30 20 C -3.111539 4.501742 0.955312 0
M  V30 21 C -2.957327 2.277942 -0.080240 0
M  V30 22 N -3.901194 -0.509237 -1.781658 0
M  V30 23 C -3.509158 -1.316210 -2.809926 0
M  V30 24 C -4.213942 -2.072820 -3.749376 0
M  V30 25 C -3.518291 -2.819699 -4.708130 0
M  V30 26 C -2.139535 -2.766364 -4.671870 0
M  V30 27 N -1.496732 -2.024819 -3.750102 0
M  V30 28 N -2.155989 -1.309134 -2.831544 0
M  V30 29 C 0.361411 0.433006 -2.509829 0
M  V30 30 C 1.703765 0.717830 -2.226639 0
M  V30 31 N 2.251589 0.359530 -1.027701 0
M  V30 32 C 3.844949 -3.606214 2.621061 0
M  V30 33 C 4.433143 -4.085095 3.792021 0
M  V30 34 H 4.470048 -3.326510 6.991072 0
M  V30 35 H 6.115282 -3.445854 6.192206 0
M  V30 36 H 5.002680 -4.883157 6.212642 0
M  V30 37 H 3.908783 -1.355122 5.777625 0
M  V30 38 H 2.875430 -0.526660 3.701513 0
M  V30 39 H 2.035757 0.032266 1.934691 0
M  V30 40 H -0.400249 -1.095513 0.451248 0
M  V30 41 H -3.152785 -0.819697 1.309226 0
M  V30 42 H -3.444045 0.459001 3.319879 0
M  V30 43 H -4.179352 4.837763 0.808229 0
M  V30 44 H -2.812618 4.913398 1.919109 0
M  V30 45 H -2.456688 4.880682 0.157629 0
M  V30 46 H -2.815158 2.711176 -1.070368 0
M  V30 47 H -5.288005 -2.008552 -3.643623 0
M  V30 48 H -4.130609 -3.384568 -5.407699 0
M  V30 49 H -1.659763 -3.350328 -5.420241 0
M  V30 50 H -0.088768 0.708798 -3.453594 0
M  V30 51 H 2.325119 1.233294 -2.971262 0
M  V30 52 H 3.842578 -4.257114 1.757385 0
M  V30 53 H 4.880116 -5.080350 3.850781 0
M  V30 END ATOM
M  V30 BEGIN BOND
M  V30 1 1 1 2
M  V30 2 2 2 3
M  V30 3 1 3 4
M  V30 4 2 4 5
M  V30 5 1 5 6
M  V30 6 2 6 7
M  V30 7 1 6 8
M  V30 8 1 8 9
M  V30 9 2 9 10
M  V30 10 1 10 11
M  V30 11 1 11 12
M  V30 12 2 12 13
M  V30 13 1 13 14
M  V30 14 2 14 15
M  V30 15 1 15 16
M  V30 16 2 16 17
M  V30 17 1 17 18
M  V30 18 1 17 19
M  V30 19 1 19 20
M  V30 20 2 19 21
M  V30 21 1 13 22
M  V30 22 2 22 23
M  V30 23 1 23 24
M  V30 24 2 24 25
M  V30 25 1 25 26
M  V30 26 2 26 27
M  V30 27 1 27 28
M  V30 28 2 11 29
M  V30 29 1 29 30
M  V30 30 2 30 31
M  V30 31 1 5 32
M  V30 32 2 32 33
M  V30 33 1 33 2
M  V30 34 1 31 9
M  V30 35 1 28 12
M  V30 36 1 21 14
M  V30 37 1 28 23
M  V30 38 1 1 34
M  V30 39 1 1 35
M  V30 40 1 1 36
M  V30 41 1 3 37
M  V30 42 1 4 38
M  V30 43 1 8 39
M  V30 44 1 10 40
M  V30 45 1 15 41
M  V30 46 1 16 42
M  V30 47 1 20 43
M  V30 48 1 20 44
M  V30 49 1 20 45
M  V30 50 1 21 46
M  V30 51 1 24 47
M  V30 52 1 25 48
M  V30 53 1 26 49
M  V30 54 1 29 50
M  V30 55 1 30 51
M  V30 56 1 32 52
M  V30 57 1 33 53
M  V30 END BOND
M  V30 END CTAB
M  END
>  <Dataset>  (47) 
ChEMBL_Kinases

>  <Ligand_Instance>  (47) 
nan

>  <PDB_ID>  (47) 
nan

>  <Standardized_SMILES>  (47) 
Cc1ccc(C(=O)Nc2cc(-c3c(-c4ccc(F)c(C)c4)nc4cccnn34)ccn2)cc1

>  <Name>  (47) 
nan

>  <Pocket>  (47) 
nan

>  <ATP_Site>  (47) 
nan

>  <Peripheral>  (47) 
nan

>  <Num_H_Atoms_ProtBoundConf>  (47) 
nan

>  <Num_Resolved_Atoms>  (47) 
nan

>  <Num_Not_Resolved_Atoms>  (47) 
nan

$$$$
CHEMBL4227666
     RDKit          3D

  0  0  0  0  0  0  0  0  0  0999 V3000
M  V30 BEGIN CTAB
M  V30 COUNTS 65 69 0 0 0
M  V30 BEGIN ATOM
M  V30 1 C 3.835022 1.038499 4.705558 0
M  V30 2 C 2.547445 0.325023 4.677394 0
M  V30 3 C 1.769384 0.490343 3.622889 0
M  V30 4 C 1.990983 1.296591 2.443288 0
M  V30 5 O 1.143963 1.369139 1.482557 0
M  V30 6 N 2.916824 2.164063 1.852572 0
M  V30 7 C 2.569742 2.701406 0.579194 0
M  V30 8 C 2.815063 2.208864 -0.683631 0
M  V30 9 C 2.382911 2.905104 -1.792167 0
M  V30 10 C 1.699498 4.103235 -1.661540 0
M  V30 11 N 1.205594 4.915033 -2.621963 0
M  V30 12 N 0.629414 5.952044 -1.992849 0
M  V30 13 C 0.764983 5.784284 -0.661478 0
M  V30 14 C 1.448382 4.605980 -0.399964 0
M  V30 15 C 1.879783 3.912119 0.731468 0
M  V30 16 C 0.450122 -0.219557 3.526230 0
M  V30 17 C 0.422505 -1.168234 2.379131 0
M  V30 18 C 1.287227 -2.223098 2.565431 0
M  V30 19 C 1.361394 -3.199923 1.573722 0
M  V30 20 C 0.558113 -3.038248 0.470772 0
M  V30 21 F 0.625596 -3.981944 -0.492153 0
M  V30 22 C -0.318310 -2.005096 0.241581 0
M  V30 23 C -1.187301 -1.763267 -0.887130 0
M  V30 24 O -1.965385 -0.762239 -0.932416 0
M  V30 25 N -1.318099 -2.540784 -2.059980 0
M  V30 26 C -2.183899 -2.296910 -3.176866 0
M  V30 27 C -3.630258 -2.297034 -2.799649 0
M  V30 28 C -4.090060 -3.580060 -2.211234 0
M  V30 29 C -4.322050 -4.706052 -3.006634 0
M  V30 30 C -4.169281 -4.840032 -4.473510 0
M  V30 31 N -4.727318 -5.691010 -2.161679 0
M  V30 32 O -4.749559 -5.227216 -0.937553 0
M  V30 33 C -4.378662 -3.977750 -0.919099 0
M  V30 34 C -4.251399 -3.052397 0.216714 0
M  V30 35 C -0.364882 -1.047042 1.256663 0
M  V30 36 N 0.244564 -0.974599 4.737763 0
M  V30 37 C 1.015724 -1.196194 5.883011 0
M  V30 38 O 0.654109 -1.920665 6.815951 0
M  V30 39 N 2.234729 -0.481476 5.803870 0
M  V30 40 H 3.763327 2.133934 4.749136 0
M  V30 41 H 4.393896 0.759066 5.655714 0
M  V30 42 H 4.543740 0.714135 3.907470 0
M  V30 43 H 3.744315 2.275736 2.476834 0
M  V30 44 H 3.343821 1.286648 -0.674941 0
M  V30 45 H 2.601209 2.474026 -2.767158 0
M  V30 46 H 1.206536 4.860372 -3.646216 0
M  V30 47 H 0.402635 6.457231 0.129068 0
M  V30 48 H 1.616383 4.419393 1.649898 0
M  V30 49 H -0.401042 0.472932 3.399552 0
M  V30 50 H 1.937082 -2.392452 3.414000 0
M  V30 51 H 2.012245 -4.060201 1.639301 0
M  V30 52 H -0.725563 -3.393937 -2.141825 0
M  V30 53 H -1.976936 -2.941564 -4.040592 0
M  V30 54 H -1.960420 -1.252998 -3.536534 0
M  V30 55 H -3.826469 -1.482707 -2.083599 0
M  V30 56 H -4.237240 -2.051049 -3.704350 0
M  V30 57 H -3.148733 -5.166115 -4.753617 0
M  V30 58 H -4.442632 -3.882443 -5.003244 0
M  V30 59 H -4.862082 -5.654133 -4.830643 0
M  V30 60 H -4.356931 -1.990818 -0.083575 0
M  V30 61 H -3.261990 -3.255301 0.717667 0
M  V30 62 H -5.026480 -3.330164 0.985264 0
M  V30 63 H -1.022576 -0.203340 1.184211 0
M  V30 64 H -0.710761 -1.423171 4.657497 0
M  V30 65 H 2.916991 -0.561789 6.611211 0
M  V30 END ATOM
M  V30 BEGIN BOND
M  V30 1 1 1 2
M  V30 2 2 2 3
M  V30 3 1 3 4
M  V30 4 2 4 5
M  V30 5 1 4 6
M  V30 6 1 6 7
M  V30 7 2 7 8
M  V30 8 1 8 9
M  V30 9 2 9 10
M  V30 10 1 10 11
M  V30 11 1 11 12
M  V30 12 2 12 13
M  V30 13 1 13 14
M  V30 14 2 14 15
M  V30 15 1 3 16
M  V30 16 1 16 17
M  V30 17 2 17 18
M  V30 18 1 18 19
M  V30 19 2 19 20
M  V30 20 1 20 21
M  V30 21 1 20 22
M  V30 22 1 22 23
M  V30 23 2 23 24
M  V30 24 1 23 25
M  V30 25 1 25 26
M  V30 26 1 26 27
M  V30 27 1 27 28
M  V30 28 1 28 29
M  V30 29 1 29 30
M  V30 30 2 29 31
M  V30 31 1 31 32
M  V30 32 1 32 33
M  V30 33 1 33 34
M  V30 34 2 22 35
M  V30 35 1 16 36
M  V30 36 1 36 37
M  V30 37 2 37 38
M  V30 38 1 37 39
M  V30 39 1 39 2
M  V30 40 1 15 7
M  V30 41 1 35 17
M  V30 42 1 14 10
M  V30 43 2 33 28
M  V30 44 1 1 40
M  V30 45 1 1 41
M  V30 46 1 1 42
M  V30 47 1 6 43
M  V30 48 1 8 44
M  V30 49 1 9 45
M  V30 50 1 11 46
M  V30 51 1 13 47
M  V30 52 1 15 48
M  V30 53 1 16 49
M  V30 54 1 18 50
M  V30 55 1 19 51
M  V30 56 1 25 52
M  V30 57 1 26 53
M  V30 58 1 26 54
M  V30 59 1 27 55
M  V30 60 1 27 56
M  V30 61 1 30 57
M  V30 62 1 30 58
M  V30 63 1 30 59
M  V30 64 1 34 60
M  V30 65 1 34 61
M  V30 66 1 34 62
M  V30 67 1 35 63
M  V30 68 1 36 64
M  V30 69 1 39 65
M  V30 END BOND
M  V30 END CTAB
M  END
>  <Dataset>  (48) 
ChEMBL_Kinases

>  <Ligand_Instance>  (48) 
nan

>  <PDB_ID>  (48) 
nan

>  <Standardized_SMILES>  (48) 
CC1=C(C(=O)Nc2ccc3[nH]ncc3c2)C(c2ccc(F)c(C(=O)NCCc3c(C)noc3C)c2)NC(=O)N1

>  <Name>  (48) 
nan

>  <Pocket>  (48) 
nan

>  <ATP_Site>  (48) 
nan

>  <Peripheral>  (48) 
nan

>  <Num_H_Atoms_ProtBoundConf>  (48) 
nan

>  <Num_Resolved_Atoms>  (48) 
nan

>  <Num_Not_Resolved_Atoms>  (48) 
nan

$$$$
CHEMBL4775990
     RDKit          3D

  0  0  0  0  0  0  0  0  0  0999 V3000
M  V30 BEGIN CTAB
M  V30 COUNTS 37 39 0 0 0
M  V30 BEGIN ATOM
M  V30 1 C 0.109739 -3.923756 6.535642 0
M  V30 2 C 0.187639 -3.770187 5.346249 0
M  V30 3 C 0.299986 -3.570564 3.928309 0
M  V30 4 N 0.373841 -2.343527 3.401945 0
M  V30 5 C 0.481101 -2.133689 2.054279 0
M  V30 6 N 0.561487 -0.794405 1.589908 0
M  V30 7 C 0.656038 -0.359220 0.246156 0
M  V30 8 C 0.613450 -1.153907 -0.875117 0
M  V30 9 C 0.716188 -0.732649 -2.181180 0
M  V30 10 C 0.881301 0.645804 -2.366743 0
M  V30 11 C 0.935371 1.519427 -1.274627 0
M  V30 12 C 1.106974 2.974067 -1.494540 0
M  V30 13 O 2.323362 2.943961 -1.805446 0
M  V30 14 N -0.123662 3.639679 -1.257246 0
M  V30 15 C -1.423645 3.085615 -0.858061 0
M  V30 16 C -0.109382 5.078972 -1.429721 0
M  V30 17 C 0.820552 0.976331 -0.017973 0
M  V30 18 N 0.508419 -3.221041 1.287036 0
M  V30 19 C 0.436540 -4.460961 1.780920 0
M  V30 20 N 0.450515 -5.679788 1.177863 0
M  V30 21 C 0.352665 -6.643381 2.118657 0
M  V30 22 N 0.278728 -6.045284 3.318273 0
M  V30 23 C 0.329141 -4.698577 3.131366 0
M  V30 24 H 0.051929 -4.061064 7.606081 0
M  V30 25 H 0.549897 -0.037706 2.320008 0
M  V30 26 H 0.487449 -2.202978 -0.775640 0
M  V30 27 H 0.671920 -1.405135 -3.024247 0
M  V30 28 H 0.971015 1.062791 -3.348597 0
M  V30 29 H -1.343593 2.017172 -0.563366 0
M  V30 30 H -1.809628 3.625230 0.029785 0
M  V30 31 H -2.179608 3.137958 -1.658792 0
M  V30 32 H -1.111488 5.496604 -1.709050 0
M  V30 33 H 0.576998 5.393191 -2.245030 0
M  V30 34 H 0.237690 5.513261 -0.469047 0
M  V30 35 H 0.869194 1.701319 0.783528 0
M  V30 36 H 0.525680 -5.808720 0.150727 0
M  V30 37 H 0.333845 -7.721267 1.990662 0
M  V30 END ATOM
M  V30 BEGIN BOND
M  V30 1 3 1 2
M  V30 2 1 2 3
M  V30 3 2 3 4
M  V30 4 1 4 5
M  V30 5 1 5 6
M  V30 6 1 6 7
M  V30 7 2 7 8
M  V30 8 1 8 9
M  V30 9 2 9 10
M  V30 10 1 10 11
M  V30 11 1 11 12
M  V30 12 2 12 13
M  V30 13 1 12 14
M  V30 14 1 14 15
M  V30 15 1 14 16
M  V30 16 2 11 17
M  V30 17 2 5 18
M  V30 18 1 18 19
M  V30 19 1 19 20
M  V30 20 1 20 21
M  V30 21 2 21 22
M  V30 22 1 22 23
M  V30 23 1 23 3
M  V30 24 1 17 7
M  V30 25 2 23 19
M  V30 26 1 1 24
M  V30 27 1 6 25
M  V30 28 1 8 26
M  V30 29 1 9 27
M  V30 30 1 10 28
M  V30 31 1 15 29
M  V30 32 1 15 30
M  V30 33 1 15 31
M  V30 34 1 16 32
M  V30 35 1 16 33
M  V30 36 1 16 34
M  V30 37 1 17 35
M  V30 38 1 20 36
M  V30 39 1 21 37
M  V30 END BOND
M  V30 END CTAB
M  END
>  <Dataset>  (49) 
ChEMBL_Kinases

>  <Ligand_Instance>  (49) 
nan

>  <PDB_ID>  (49) 
nan

>  <Standardized_SMILES>  (49) 
C#Cc1nc(Nc2cccc(C(=O)N(C)C)c2)nc2[nH]cnc12

>  <Name>  (49) 
nan

>  <Pocket>  (49) 
nan

>  <ATP_Site>  (49) 
nan

>  <Peripheral>  (49) 
nan

>  <Num_H_Atoms_ProtBoundConf>  (49) 
nan

>  <Num_Resolved_Atoms>  (49) 
nan

>  <Num_Not_Resolved_Atoms>  (49) 
nan

$$$$
CHEMBL4227611
     RDKit          3D

  0  0  0  0  0  0  0  0  0  0999 V3000
M  V30 BEGIN CTAB
M  V30 COUNTS 68 72 0 0 0
M  V30 BEGIN ATOM
M  V30 1 C 3.631982 -0.340925 4.131538 0
M  V30 2 C 3.061742 -1.681651 3.874392 0
M  V30 3 C 2.186821 -1.768851 2.898346 0
M  V30 4 C 1.622276 -0.828007 1.980421 0
M  V30 5 O 0.785512 -0.961366 1.062140 0
M  V30 6 N 1.823013 0.552315 1.808343 0
M  V30 7 C 1.380691 1.622826 1.001225 0
M  V30 8 C 2.086506 1.780861 -0.186343 0
M  V30 9 C 1.787360 2.797526 -1.080267 0
M  V30 10 C 0.756474 3.654118 -0.746677 0
M  V30 11 N 0.160570 4.737758 -1.311710 0
M  V30 12 N -0.807594 5.202259 -0.560987 0
M  V30 13 C -0.905511 4.438368 0.557779 0
M  V30 14 C 0.068531 3.477629 0.437944 0
M  V30 15 C 0.347402 2.483624 1.330878 0
M  V30 16 C 1.577094 -3.086887 2.533882 0
M  V30 17 C 0.119390 -3.046909 2.451937 0
M  V30 18 C -0.755072 -2.772117 3.482857 0
M  V30 19 C -2.125087 -2.771714 3.341804 0
M  V30 20 C -2.692199 -3.055357 2.119157 0
M  V30 21 F -4.037224 -3.084297 1.842978 0
M  V30 22 C -1.929221 -3.353198 0.979193 0
M  V30 23 C -2.327583 -3.687026 -0.389526 0
M  V30 24 C -2.746449 -2.544409 -1.220940 0
M  V30 25 O -3.811554 -1.926403 -0.894438 0
M  V30 26 N -1.875795 -2.278692 -2.307956 0
M  V30 27 C -0.623507 -2.871551 -2.804302 0
M  V30 28 C 0.302626 -1.681368 -3.012633 0
M  V30 29 O -0.098147 -0.533731 -2.379050 0
M  V30 30 C -1.333884 -0.033983 -2.776135 0
M  V30 31 C -1.869111 0.807287 -1.646227 0
M  V30 32 C -3.210221 1.410933 -1.941798 0
M  V30 33 O -3.185076 2.233683 -3.050244 0
M  V30 34 C -2.283947 -1.147093 -3.152268 0
M  V30 35 C -0.558581 -3.316795 1.276023 0
M  V30 36 N 1.991191 -4.067137 3.481421 0
M  V30 37 C 2.922043 -4.060362 4.539110 0
M  V30 38 O 3.213134 -5.060458 5.216812 0
M  V30 39 N 3.456837 -2.759011 4.699237 0
M  V30 40 H 4.256752 0.059550 3.335550 0
M  V30 41 H 4.273614 -0.419982 5.066636 0
M  V30 42 H 2.795445 0.293822 4.474367 0
M  V30 43 H 2.483942 1.082125 2.399991 0
M  V30 44 H 2.899909 1.145618 -0.511827 0
M  V30 45 H 2.308665 2.959083 -2.018844 0
M  V30 46 H 0.530777 5.060851 -2.248020 0
M  V30 47 H -1.644867 4.669321 1.295413 0
M  V30 48 H -0.169847 2.319663 2.263153 0
M  V30 49 H 1.974673 -3.376793 1.530529 0
M  V30 50 H -0.338450 -2.546233 4.460300 0
M  V30 51 H -2.823225 -2.554687 4.146959 0
M  V30 52 H -1.546907 -4.325741 -0.828624 0
M  V30 53 H -3.218722 -4.372686 -0.297554 0
M  V30 54 H -0.212799 -3.638128 -2.157990 0
M  V30 55 H -0.844835 -3.274982 -3.825945 0
M  V30 56 H 1.256612 -1.988790 -2.494906 0
M  V30 57 H 0.597644 -1.545189 -4.063253 0
M  V30 58 H -1.163701 0.600329 -3.662268 0
M  V30 59 H -1.157869 1.627514 -1.437252 0
M  V30 60 H -1.967278 0.210026 -0.719594 0
M  V30 61 H -3.446980 2.074043 -1.060038 0
M  V30 62 H -4.037402 0.663689 -1.950394 0
M  V30 63 H -3.956962 2.088018 -3.646173 0
M  V30 64 H -2.149476 -1.475033 -4.200504 0
M  V30 65 H -3.344385 -0.907210 -3.047362 0
M  V30 66 H 0.109710 -3.542599 0.421336 0
M  V30 67 H 1.448736 -4.952893 3.278649 0
M  V30 68 H 4.164573 -2.593458 5.446517 0
M  V30 END ATOM
M  V30 BEGIN BOND
M  V30 1 1 1 2
M  V30 2 2 2 3
M  V30 3 1 3 4
M  V30 4 2 4 5
M  V30 5 1 4 6
M  V30 6 1 6 7
M  V30 7 2 7 8
M  V30 8 1 8 9
M  V30 9 2 9 10
M  V30 10 1 10 11
M  V30 11 1 11 12
M  V30 12 2 12 13
M  V30 13 1 13 14
M  V30 14 2 14 15
M  V30 15 1 3 16
M  V30 16 1 16 17
M  V30 17 2 17 18
M  V30 18 1 18 19
M  V30 19 2 19 20
M  V30 20 1 20 21
M  V30 21 1 20 22
M  V30 22 1 22 23
M  V30 23 1 23 24
M  V30 24 2 24 25
M  V30 25 1 24 26
M  V30 26 1 26 27
M  V30 27 1 27 28
M  V30 28 1 28 29
M  V30 29 1 29 30
M  V30 30 1 30 31
M  V30 31 1 31 32
M  V30 32 1 32 33
M  V30 33 1 30 34
M  V30 34 2 22 35
M  V30 35 1 16 36
M  V30 36 1 36 37
M  V30 37 2 37 38
M  V30 38 1 37 39
M  V30 39 1 39 2
M  V30 40 1 15 7
M  V30 41 1 35 17
M  V30 42 1 14 10
M  V30 43 1 34 26
M  V30 44 1 1 40
M  V30 45 1 1 41
M  V30 46 1 1 42
M  V30 47 1 6 43
M  V30 48 1 8 44
M  V30 49 1 9 45
M  V30 50 1 11 46
M  V30 51 1 13 47
M  V30 52 1 15 48
M  V30 53 1 16 49
M  V30 54 1 18 50
M  V30 55 1 19 51
M  V30 56 1 23 52
M  V30 57 1 23 53
M  V30 58 1 27 54
M  V30 59 1 27 55
M  V30 60 1 28 56
M  V30 61 1 28 57
M  V30 62 1 30 58
M  V30 63 1 31 59
M  V30 64 1 31 60
M  V30 65 1 32 61
M  V30 66 1 32 62
M  V30 67 1 33 63
M  V30 68 1 34 64
M  V30 69 1 34 65
M  V30 70 1 35 66
M  V30 71 1 36 67
M  V30 72 1 39 68
M  V30 END BOND
M  V30 END CTAB
M  END
>  <Dataset>  (50) 
ChEMBL_Kinases

>  <Ligand_Instance>  (50) 
nan

>  <PDB_ID>  (50) 
nan

>  <Standardized_SMILES>  (50) 
CC1=C(C(=O)Nc2ccc3[nH]ncc3c2)C(c2ccc(F)c(CC(=O)N3CCOC(CCO)C3)c2)NC(=O)N1

>  <Name>  (50) 
nan

>  <Pocket>  (50) 
nan

>  <ATP_Site>  (50) 
nan

>  <Peripheral>  (50) 
nan

>  <Num_H_Atoms_ProtBoundConf>  (50) 
nan

>  <Num_Resolved_Atoms>  (50) 
nan

>  <Num_Not_Resolved_Atoms>  (50) 
nan

$$$$
CHEMBL4227869
     RDKit          3D

  0  0  0  0  0  0  0  0  0  0999 V3000
M  V30 BEGIN CTAB
M  V30 COUNTS 78 84 0 0 0
M  V30 BEGIN ATOM
M  V30 1 O 0.733294 -5.521567 1.797598 0
M  V30 2 C -0.134957 -4.717157 1.311349 0
M  V30 3 N 0.246987 -4.206972 0.072246 0
M  V30 4 C 1.392396 -4.393590 -0.731948 0
M  V30 5 C 1.635286 -5.357134 -1.663878 0
M  V30 6 C 2.811069 -5.392485 -2.380355 0
M  V30 7 C 3.760975 -4.401637 -2.123650 0
M  V30 8 N 4.999397 -4.126915 -2.622045 0
M  V30 9 N 5.505490 -3.066539 -2.048235 0
M  V30 10 C 4.645733 -2.560404 -1.132127 0
M  V30 11 C 4.875493 -1.392431 -0.308780 0
M  V30 12 C 3.811286 -0.493276 -0.260005 0
M  V30 13 C 3.904290 0.652633 0.488790 0
M  V30 14 C 5.032997 0.988957 1.230574 0
M  V30 15 F 5.145156 2.113346 1.977418 0
M  V30 16 C 6.077371 0.081276 1.167125 0
M  V30 17 C 6.016031 -1.081151 0.423848 0
M  V30 18 C 3.552055 -3.410771 -1.188762 0
M  V30 19 C 2.349960 -3.399979 -0.476797 0
M  V30 20 C -1.422836 -4.347675 1.972919 0
M  V30 21 C -2.593821 -4.508882 1.052244 0
M  V30 22 N -3.780815 -4.037945 1.737875 0
M  V30 23 C -4.743643 -3.609326 0.744789 0
M  V30 24 C -4.440999 -2.374837 0.029583 0
M  V30 25 O -5.416965 -2.274191 -0.806799 0
M  V30 26 N -3.503277 -1.315884 -0.054068 0
M  V30 27 C -2.347961 -1.143527 0.789204 0
M  V30 28 C -1.848276 0.253151 0.823220 0
M  V30 29 C -1.776960 1.074558 -0.213797 0
M  V30 30 C -1.291987 2.445835 -0.231303 0
M  V30 31 C -0.854917 3.028647 0.936408 0
M  V30 32 C -0.375707 4.322517 0.954884 0
M  V30 33 C -0.344659 5.022609 -0.231564 0
M  V30 34 C 0.162108 6.387407 -0.247424 0
M  V30 35 N 0.242278 7.134084 -1.341382 0
M  V30 36 C 0.698617 8.385935 -1.403875 0
M  V30 37 C 1.140262 9.001631 -0.240145 0
M  V30 38 C 1.070655 8.244266 0.934884 0
M  V30 39 N 0.590704 6.991017 0.870876 0
M  V30 40 C -0.780957 4.454694 -1.423891 0
M  V30 41 C -1.254690 3.155647 -1.404323 0
M  V30 42 C -2.311322 0.341660 -1.395912 0
M  V30 43 C -3.645963 -0.294215 -1.058168 0
M  V30 44 C -4.331541 -5.114863 2.511305 0
M  V30 45 C -3.490582 -5.615598 3.621133 0
M  V30 46 S -1.710926 -5.437113 3.401045 0
M  V30 47 H -0.311237 -3.563229 -0.489647 0
M  V30 48 H 0.854861 -6.076247 -1.794868 0
M  V30 49 H 3.003735 -6.153846 -3.121644 0
M  V30 50 H 5.388043 -4.758063 -3.367199 0
M  V30 51 H 2.852619 -0.535271 -0.745419 0
M  V30 52 H 3.125922 1.425591 0.595068 0
M  V30 53 H 6.987729 0.282084 1.721064 0
M  V30 54 H 6.799443 -1.819756 0.339535 0
M  V30 55 H 2.233822 -2.597670 0.260999 0
M  V30 56 H -1.425358 -3.322683 2.379609 0
M  V30 57 H -2.510878 -3.958988 0.092234 0
M  V30 58 H -2.765178 -5.601119 0.869881 0
M  V30 59 H -4.757246 -4.448721 -0.019729 0
M  V30 60 H -5.768687 -3.640132 1.176605 0
M  V30 61 H -1.525225 -1.843430 0.527415 0
M  V30 62 H -2.714987 -1.369791 1.833812 0
M  V30 63 H -1.499689 0.661327 1.788712 0
M  V30 64 H -0.844844 2.554128 1.907075 0
M  V30 65 H -0.023708 4.807400 1.857981 0
M  V30 66 H 0.728097 8.930049 -2.361495 0
M  V30 67 H 1.498038 10.006419 -0.354803 0
M  V30 68 H 1.421384 8.761015 1.813303 0
M  V30 69 H -0.734052 5.047174 -2.314307 0
M  V30 70 H -1.572376 2.781158 -2.357645 0
M  V30 71 H -1.600158 -0.477205 -1.617356 0
M  V30 72 H -2.406614 0.955197 -2.303342 0
M  V30 73 H -4.293900 0.500154 -0.631746 0
M  V30 74 H -4.148797 -0.707262 -1.929557 0
M  V30 75 H -4.697590 -5.917013 1.839767 0
M  V30 76 H -5.268210 -4.697033 2.986256 0
M  V30 77 H -3.748010 -6.708026 3.780276 0
M  V30 78 H -3.738222 -5.150489 4.600996 0
M  V30 END ATOM
M  V30 BEGIN BOND
M  V30 1 2 1 2
M  V30 2 1 2 3
M  V30 3 1 3 4
M  V30 4 2 4 5
M  V30 5 1 5 6
M  V30 6 2 6 7
M  V30 7 1 7 8
M  V30 8 1 8 9
M  V30 9 2 9 10
M  V30 10 1 10 11
M  V30 11 2 11 12
M  V30 12 1 12 13
M  V30 13 2 13 14
M  V30 14 1 14 15
M  V30 15 1 14 16
M  V30 16 2 16 17
M  V30 17 1 10 18
M  V30 18 2 18 19
M  V30 19 1 2 20
M  V30 20 1 20 21
M  V30 21 1 21 22
M  V30 22 1 22 23
M  V30 23 1 23 24
M  V30 24 2 24 25
M  V30 25 1 24 26
M  V30 26 1 26 27
M  V30 27 1 27 28
M  V30 28 2 28 29
M  V30 29 1 29 30
M  V30 30 2 30 31
M  V30 31 1 31 32
M  V30 32 2 32 33
M  V30 33 1 33 34
M  V30 34 2 34 35
M  V30 35 1 35 36
M  V30 36 2 36 37
M  V30 37 1 37 38
M  V30 38 2 38 39
M  V30 39 1 33 40
M  V30 40 2 40 41
M  V30 41 1 29 42
M  V30 42 1 42 43
M  V30 43 1 22 44
M  V30 44 1 44 45
M  V30 45 1 45 46
M  V30 46 1 19 4
M  V30 47 1 46 20
M  V30 48 1 18 7
M  V30 49 1 43 26
M  V30 50 1 17 11
M  V30 51 1 41 30
M  V30 52 1 39 34
M  V30 53 1 3 47
M  V30 54 1 5 48
M  V30 55 1 6 49
M  V30 56 1 8 50
M  V30 57 1 12 51
M  V30 58 1 13 52
M  V30 59 1 16 53
M  V30 60 1 17 54
M  V30 61 1 19 55
M  V30 62 1 20 56
M  V30 63 1 21 57
M  V30 64 1 21 58
M  V30 65 1 23 59
M  V30 66 1 23 60
M  V30 67 1 27 61
M  V30 68 1 27 62
M  V30 69 1 28 63
M  V30 70 1 31 64
M  V30 71 1 32 65
M  V30 72 1 36 66
M  V30 73 1 37 67
M  V30 74 1 38 68
M  V30 75 1 40 69
M  V30 76 1 41 70
M  V30 77 1 42 71
M  V30 78 1 42 72
M  V30 79 1 43 73
M  V30 80 1 43 74
M  V30 81 1 44 75
M  V30 82 1 44 76
M  V30 83 1 45 77
M  V30 84 1 45 78
M  V30 END BOND
M  V30 END CTAB
M  END
>  <Dataset>  (51) 
ChEMBL_Kinases

>  <Ligand_Instance>  (51) 
nan

>  <PDB_ID>  (51) 
nan

>  <Standardized_SMILES>  (51) 
O=C(Nc1ccc2[nH]nc(-c3ccc(F)cc3)c2c1)C1CN(CC(=O)N2CC=C(c3ccc(-c4ncccn4)cc3)CC2)CCS1

>  <Name>  (51) 
nan

>  <Pocket>  (51) 
nan

>  <ATP_Site>  (51) 
nan

>  <Peripheral>  (51) 
nan

>  <Num_H_Atoms_ProtBoundConf>  (51) 
nan

>  <Num_Resolved_Atoms>  (51) 
nan

>  <Num_Not_Resolved_Atoms>  (51) 
nan

$$$$
CHEMBL476542
     RDKit          3D

  0  0  0  0  0  0  0  0  0  0999 V3000
M  V30 BEGIN CTAB
M  V30 COUNTS 50 53 0 0 0
M  V30 BEGIN ATOM
M  V30 1 C 0.577021 -0.577952 4.678344 0
M  V30 2 C 1.284596 0.370837 3.779000 0
M  V30 3 C 1.938699 1.483871 4.263638 0
M  V30 4 C 2.590671 2.359175 3.440930 0
M  V30 5 C 2.597931 2.125112 2.071853 0
M  V30 6 N 3.244836 2.965517 1.098827 0
M  V30 7 C 2.539906 4.040692 0.495270 0
M  V30 8 O 1.369177 4.142715 0.899894 0
M  V30 9 C 3.118744 4.937153 -0.496121 0
M  V30 10 C 4.413095 4.773568 -0.901028 0
M  V30 11 C 4.919530 5.641841 -1.838573 0
M  V30 12 S 3.529864 6.799116 -2.224220 0
M  V30 13 C 2.361768 5.967273 -1.040251 0
M  V30 14 C 1.929966 0.993693 1.605970 0
M  V30 15 C 1.255069 0.082519 2.429205 0
M  V30 16 C 0.597232 -1.060939 1.807550 0
M  V30 17 C -0.135416 -0.711717 0.669910 0
M  V30 18 C -0.826389 -1.659734 -0.052488 0
M  V30 19 C -0.820948 -2.988858 0.319979 0
M  V30 20 C -1.511114 -4.081409 -0.361594 0
M  V30 21 O -1.456584 -5.290115 0.047535 0
M  V30 22 N -2.298799 -3.921239 -1.525491 0
M  V30 23 C -2.959730 -5.034433 -2.159833 0
M  V30 24 C -3.933600 -5.731476 -1.281208 0
M  V30 25 C -5.109493 -5.063872 -0.685171 0
M  V30 26 C -5.310547 -5.951065 -1.902147 0
M  V30 27 C -0.092633 -3.313157 1.444617 0
M  V30 28 C 0.605978 -2.375571 2.180739 0
M  V30 29 H 0.196441 0.014577 5.552122 0
M  V30 30 H 1.235452 -1.336910 5.124033 0
M  V30 31 H -0.305020 -0.961095 4.167212 0
M  V30 32 H 1.937433 1.672664 5.327766 0
M  V30 33 H 3.116979 3.243584 3.768581 0
M  V30 34 H 4.256804 2.794408 0.818374 0
M  V30 35 H 5.115829 4.025574 -0.569976 0
M  V30 36 H 5.845170 5.757304 -2.322401 0
M  V30 37 H 1.381092 6.228756 -0.848420 0
M  V30 38 H 1.923494 0.789554 0.523972 0
M  V30 39 H -0.222411 0.301343 0.268209 0
M  V30 40 H -1.399039 -1.416264 -0.933596 0
M  V30 41 H -2.370189 -2.928056 -1.899470 0
M  V30 42 H -3.480323 -4.642838 -3.053918 0
M  V30 43 H -2.242883 -5.789130 -2.555354 0
M  V30 44 H -3.516111 -6.624396 -0.739452 0
M  V30 45 H -5.275597 -3.983650 -0.756624 0
M  V30 46 H -5.531669 -5.521318 0.228994 0
M  V30 47 H -5.593525 -5.365322 -2.801026 0
M  V30 48 H -5.779162 -6.934147 -1.811332 0
M  V30 49 H -0.000646 -4.317273 1.850961 0
M  V30 50 H 1.190577 -2.570348 3.065473 0
M  V30 END ATOM
M  V30 BEGIN BOND
M  V30 1 1 1 2
M  V30 2 2 2 3
M  V30 3 1 3 4
M  V30 4 2 4 5
M  V30 5 1 5 6
M  V30 6 1 6 7
M  V30 7 2 7 8
M  V30 8 1 7 9
M  V30 9 1 9 10
M  V30 10 2 10 11
M  V30 11 1 11 12
M  V30 12 1 12 13
M  V30 13 1 5 14
M  V30 14 2 14 15
M  V30 15 1 15 16
M  V30 16 2 16 17
M  V30 17 1 17 18
M  V30 18 2 18 19
M  V30 19 1 19 20
M  V30 20 2 20 21
M  V30 21 1 20 22
M  V30 22 1 22 23
M  V30 23 1 23 24
M  V30 24 1 24 25
M  V30 25 1 25 26
M  V30 26 1 19 27
M  V30 27 2 27 28
M  V30 28 1 15 2
M  V30 29 1 28 16
M  V30 30 2 13 9
M  V30 31 1 26 24
M  V30 32 1 1 29
M  V30 33 1 1 30
M  V30 34 1 1 31
M  V30 35 1 3 32
M  V30 36 1 4 33
M  V30 37 1 6 34
M  V30 38 1 10 35
M  V30 39 1 11 36
M  V30 40 1 13 37
M  V30 41 1 14 38
M  V30 42 1 17 39
M  V30 43 1 18 40
M  V30 44 1 22 41
M  V30 45 1 23 42
M  V30 46 1 23 43
M  V30 47 1 24 44
M  V30 48 1 25 45
M  V30 49 1 25 46
M  V30 50 1 26 47
M  V30 51 1 26 48
M  V30 52 1 27 49
M  V30 53 1 28 50
M  V30 END BOND
M  V30 END CTAB
M  END
>  <Dataset>  (52) 
ChEMBL_Kinases

>  <Ligand_Instance>  (52) 
nan

>  <PDB_ID>  (52) 
nan

>  <Standardized_SMILES>  (52) 
Cc1ccc(NC(=O)c2ccsc2)cc1-c1ccc(C(=O)NCC2CC2)cc1

>  <Name>  (52) 
nan

>  <Pocket>  (52) 
nan

>  <ATP_Site>  (52) 
nan

>  <Peripheral>  (52) 
nan

>  <Num_H_Atoms_ProtBoundConf>  (52) 
nan

>  <Num_Resolved_Atoms>  (52) 
nan

>  <Num_Not_Resolved_Atoms>  (52) 
nan

$$$$
CHEMBL476543
     RDKit          3D

  0  0  0  0  0  0  0  0  0  0999 V3000
M  V30 BEGIN CTAB
M  V30 COUNTS 49 52 0 0 0
M  V30 BEGIN ATOM
M  V30 1 C -0.375254 0.112533 4.860231 0
M  V30 2 C 0.486921 0.810863 3.877486 0
M  V30 3 C 1.299243 1.822651 4.317921 0
M  V30 4 C 2.110619 2.482559 3.420470 0
M  V30 5 C 2.184513 2.216887 2.096505 0
M  V30 6 N 2.992371 2.852979 1.122373 0
M  V30 7 C 3.912658 3.915020 1.294191 0
M  V30 8 O 4.079734 4.398183 2.427412 0
M  V30 9 C 4.680788 4.472174 0.187579 0
M  V30 10 C 4.617793 4.061409 -1.108581 0
M  V30 11 C 5.507551 4.849246 -1.848662 0
M  V30 12 N 6.046641 5.685574 -0.933754 0
M  V30 13 O 5.553118 5.448038 0.234506 0
M  V30 14 C 1.359007 1.197399 1.681847 0
M  V30 15 C 0.533901 0.510793 2.535004 0
M  V30 16 C -0.306940 -0.548631 2.011941 0
M  V30 17 C -1.644400 -0.762206 2.265625 0
M  V30 18 C -2.343265 -1.811669 1.709105 0
M  V30 19 C -1.726193 -2.708002 0.860972 0
M  V30 20 C -2.540085 -3.791019 0.314659 0
M  V30 21 O -3.739588 -3.852858 0.632259 0
M  V30 22 N -2.029862 -4.778810 -0.562484 0
M  V30 23 C -2.897561 -5.813283 -1.057496 0
M  V30 24 C -4.024249 -5.152361 -1.826318 0
M  V30 25 C -3.597006 -4.329567 -2.997477 0
M  V30 26 C -4.373037 -5.591776 -3.195938 0
M  V30 27 C -0.389093 -2.544745 0.570341 0
M  V30 28 C 0.287487 -1.475089 1.148620 0
M  V30 29 H 0.223076 0.033864 5.816298 0
M  V30 30 H -0.598899 -0.914138 4.568227 0
M  V30 31 H -1.300705 0.704790 5.044484 0
M  V30 32 H 1.284574 2.081822 5.367949 0
M  V30 33 H 2.720035 3.264763 3.838550 0
M  V30 34 H 2.942275 2.535827 0.128272 0
M  V30 35 H 4.032546 3.289379 -1.585083 0
M  V30 36 H 5.781064 4.875022 -2.896118 0
M  V30 37 H 1.343063 0.901402 0.620781 0
M  V30 38 H -2.113783 -0.057219 2.925277 0
M  V30 39 H -3.389951 -1.885561 1.976397 0
M  V30 40 H -1.025359 -4.754540 -0.848196 0
M  V30 41 H -2.348254 -6.535637 -1.692344 0
M  V30 42 H -3.327944 -6.331491 -0.173598 0
M  V30 43 H -4.862941 -4.789085 -1.190095 0
M  V30 44 H -4.100536 -3.334841 -3.065049 0
M  V30 45 H -2.533696 -4.351237 -3.321019 0
M  V30 46 H -3.824662 -6.456301 -3.615684 0
M  V30 47 H -5.417134 -5.468614 -3.515215 0
M  V30 48 H 0.098330 -3.232398 -0.084585 0
M  V30 49 H 1.345987 -1.359551 0.908013 0
M  V30 END ATOM
M  V30 BEGIN BOND
M  V30 1 1 1 2
M  V30 2 2 2 3
M  V30 3 1 3 4
M  V30 4 2 4 5
M  V30 5 1 5 6
M  V30 6 1 6 7
M  V30 7 2 7 8
M  V30 8 1 7 9
M  V30 9 2 9 10
M  V30 10 1 10 11
M  V30 11 2 11 12
M  V30 12 1 12 13
M  V30 13 1 5 14
M  V30 14 2 14 15
M  V30 15 1 15 16
M  V30 16 2 16 17
M  V30 17 1 17 18
M  V30 18 2 18 19
M  V30 19 1 19 20
M  V30 20 2 20 21
M  V30 21 1 20 22
M  V30 22 1 22 23
M  V30 23 1 23 24
M  V30 24 1 24 25
M  V30 25 1 25 26
M  V30 26 1 19 27
M  V30 27 2 27 28
M  V30 28 1 15 2
M  V30 29 1 28 16
M  V30 30 1 13 9
M  V30 31 1 26 24
M  V30 32 1 1 29
M  V30 33 1 1 30
M  V30 34 1 1 31
M  V30 35 1 3 32
M  V30 36 1 4 33
M  V30 37 1 6 34
M  V30 38 1 10 35
M  V30 39 1 11 36
M  V30 40 1 14 37
M  V30 41 1 17 38
M  V30 42 1 18 39
M  V30 43 1 22 40
M  V30 44 1 23 41
M  V30 45 1 23 42
M  V30 46 1 24 43
M  V30 47 1 25 44
M  V30 48 1 25 45
M  V30 49 1 26 46
M  V30 50 1 26 47
M  V30 51 1 27 48
M  V30 52 1 28 49
M  V30 END BOND
M  V30 END CTAB
M  END
>  <Dataset>  (53) 
ChEMBL_Kinases

>  <Ligand_Instance>  (53) 
nan

>  <PDB_ID>  (53) 
nan

>  <Standardized_SMILES>  (53) 
Cc1ccc(NC(=O)c2ccno2)cc1-c1ccc(C(=O)NCC2CC2)cc1

>  <Name>  (53) 
nan

>  <Pocket>  (53) 
nan

>  <ATP_Site>  (53) 
nan

>  <Peripheral>  (53) 
nan

>  <Num_H_Atoms_ProtBoundConf>  (53) 
nan

>  <Num_Resolved_Atoms>  (53) 
nan

>  <Num_Not_Resolved_Atoms>  (53) 
nan

$$$$
CHEMBL4228896
     RDKit          3D

  0  0  0  0  0  0  0  0  0  0999 V3000
M  V30 BEGIN CTAB
M  V30 COUNTS 69 73 0 0 0
M  V30 BEGIN ATOM
M  V30 1 C -0.393462 -3.360593 5.442252 0
M  V30 2 O 0.496998 -2.435270 4.902029 0
M  V30 3 C 0.187096 -1.301552 4.192391 0
M  V30 4 O -1.060594 -1.202414 4.083976 0
M  V30 5 C 1.407112 -0.526893 3.762986 0
M  V30 6 N 0.979567 0.668291 3.013727 0
M  V30 7 C 0.214872 0.579863 1.841436 0
M  V30 8 O -0.010679 -0.654106 1.594325 0
M  V30 9 C -0.267521 1.657012 1.011972 0
M  V30 10 C -1.162911 1.290419 0.017599 0
M  V30 11 C -1.722125 2.205505 -0.840568 0
M  V30 12 C -2.687087 1.944106 -1.953306 0
M  V30 13 N -3.854097 2.716910 -1.632090 0
M  V30 14 C -5.187461 2.359821 -1.330362 0
M  V30 15 O -6.044129 3.200315 -1.009427 0
M  V30 16 N -5.404065 0.960218 -1.439810 0
M  V30 17 C -4.292701 0.125623 -1.816476 0
M  V30 18 C -4.632798 -1.313293 -1.868396 0
M  V30 19 C -3.057446 0.510145 -2.067695 0
M  V30 20 C -1.950893 -0.274809 -2.547998 0
M  V30 21 O -0.831629 0.331165 -2.704077 0
M  V30 22 N -1.661060 -1.573222 -2.936337 0
M  V30 23 C -0.504823 -2.233992 -3.395294 0
M  V30 24 C -0.582663 -3.577940 -3.710479 0
M  V30 25 C 0.446913 -4.353061 -4.169310 0
M  V30 26 C 1.669704 -3.745915 -4.332374 0
M  V30 27 N 2.848832 -4.232767 -4.759587 0
M  V30 28 N 3.769841 -3.262247 -4.754708 0
M  V30 29 C 3.172094 -2.111702 -4.312136 0
M  V30 30 C 1.853126 -2.412350 -4.046245 0
M  V30 31 C 0.757014 -1.719065 -3.590740 0
M  V30 32 C -1.409203 3.561002 -0.747237 0
M  V30 33 C -0.509581 3.956985 0.246554 0
M  V30 34 C 0.013608 3.001958 1.069419 0
M  V30 35 F 0.878204 3.382897 2.016754 0
M  V30 36 C 2.027787 -0.015506 5.029235 0
M  V30 37 C 3.011038 -0.919303 5.681633 0
M  V30 38 C 4.066114 -1.228555 4.608281 0
M  V30 39 C 3.358749 -2.130434 3.621340 0
M  V30 40 C 2.253980 -1.414102 2.930693 0
M  V30 41 H -0.618769 -4.240832 4.849144 0
M  V30 42 H -1.376752 -2.838794 5.622590 0
M  V30 43 H -0.025384 -3.606193 6.466117 0
M  V30 44 H 1.238518 1.643515 3.342819 0
M  V30 45 H -1.460948 0.260024 -0.106161 0
M  V30 46 H -2.222840 2.319739 -2.887563 0
M  V30 47 H -3.640109 3.742107 -1.631875 0
M  V30 48 H -6.351644 0.586927 -1.246232 0
M  V30 49 H -3.927233 -1.908634 -1.261434 0
M  V30 50 H -5.612521 -1.494222 -1.302707 0
M  V30 51 H -4.713989 -1.742274 -2.871914 0
M  V30 52 H -2.504640 -2.167362 -2.880988 0
M  V30 53 H -1.526976 -4.134342 -3.604804 0
M  V30 54 H 0.311568 -5.410223 -4.398650 0
M  V30 55 H 2.984389 -5.240780 -5.047476 0
M  V30 56 H 3.639748 -1.123430 -4.187020 0
M  V30 57 H 0.965514 -0.686266 -3.386282 0
M  V30 58 H -1.764005 4.395343 -1.349047 0
M  V30 59 H -0.217529 4.992044 0.385322 0
M  V30 60 H 2.559789 0.940935 4.769141 0
M  V30 61 H 1.183036 0.251988 5.723828 0
M  V30 62 H 2.523566 -1.901194 5.929101 0
M  V30 63 H 3.437939 -0.406020 6.541773 0
M  V30 64 H 4.248188 -0.261127 4.088798 0
M  V30 65 H 4.971757 -1.664142 5.033518 0
M  V30 66 H 4.051520 -2.519677 2.847191 0
M  V30 67 H 2.968772 -2.988028 4.172604 0
M  V30 68 H 1.592149 -2.225722 2.501229 0
M  V30 69 H 2.710004 -0.832281 2.091354 0
M  V30 END ATOM
M  V30 BEGIN BOND
M  V30 1 1 1 2
M  V30 2 1 2 3
M  V30 3 2 3 4
M  V30 4 1 3 5
M  V30 5 1 5 6
M  V30 6 1 6 7
M  V30 7 2 7 8
M  V30 8 1 7 9
M  V30 9 2 9 10
M  V30 10 1 10 11
M  V30 11 1 11 12
M  V30 12 1 12 13
M  V30 13 1 13 14
M  V30 14 2 14 15
M  V30 15 1 14 16
M  V30 16 1 16 17
M  V30 17 1 17 18
M  V30 18 2 17 19
M  V30 19 1 19 20
M  V30 20 2 20 21
M  V30 21 1 20 22
M  V30 22 1 22 23
M  V30 23 2 23 24
M  V30 24 1 24 25
M  V30 25 2 25 26
M  V30 26 1 26 27
M  V30 27 1 27 28
M  V30 28 2 28 29
M  V30 29 1 29 30
M  V30 30 2 30 31
M  V30 31 2 11 32
M  V30 32 1 32 33
M  V30 33 2 33 34
M  V30 34 1 34 35
M  V30 35 1 5 36
M  V30 36 1 36 37
M  V30 37 1 37 38
M  V30 38 1 38 39
M  V30 39 1 39 40
M  V30 40 1 40 5
M  V30 41 1 34 9
M  V30 42 1 19 12
M  V30 43 1 31 23
M  V30 44 1 30 26
M  V30 45 1 1 41
M  V30 46 1 1 42
M  V30 47 1 1 43
M  V30 48 1 6 44
M  V30 49 1 10 45
M  V30 50 1 12 46
M  V30 51 1 13 47
M  V30 52 1 16 48
M  V30 53 1 18 49
M  V30 54 1 18 50
M  V30 55 1 18 51
M  V30 56 1 22 52
M  V30 57 1 24 53
M  V30 58 1 25 54
M  V30 59 1 27 55
M  V30 60 1 29 56
M  V30 61 1 31 57
M  V30 62 1 32 58
M  V30 63 1 33 59
M  V30 64 1 36 60
M  V30 65 1 36 61
M  V30 66 1 37 62
M  V30 67 1 37 63
M  V30 68 1 38 64
M  V30 69 1 38 65
M  V30 70 1 39 66
M  V30 71 1 39 67
M  V30 72 1 40 68
M  V30 73 1 40 69
M  V30 END BOND
M  V30 END CTAB
M  END
>  <Dataset>  (54) 
ChEMBL_Kinases

>  <Ligand_Instance>  (54) 
nan

>  <PDB_ID>  (54) 
nan

>  <Standardized_SMILES>  (54) 
COC(=O)C1(NC(=O)c2cc(C3NC(=O)NC(C)=C3C(=O)Nc3ccc4[nH]ncc4c3)ccc2F)CCCCC1

>  <Name>  (54) 
nan

>  <Pocket>  (54) 
nan

>  <ATP_Site>  (54) 
nan

>  <Peripheral>  (54) 
nan

>  <Num_H_Atoms_ProtBoundConf>  (54) 
nan

>  <Num_Resolved_Atoms>  (54) 
nan

>  <Num_Not_Resolved_Atoms>  (54) 
nan

$$$$
CHEMBL4228816
     RDKit          3D

  0  0  0  0  0  0  0  0  0  0999 V3000
M  V30 BEGIN CTAB
M  V30 COUNTS 81 87 0 0 0
M  V30 BEGIN ATOM
M  V30 1 C -2.809480 -0.839969 3.079836 0
M  V30 2 C -2.457022 -2.028180 2.254792 0 CFG=1
M  V30 3 C -1.217868 -2.681480 2.812389 0
M  V30 4 O -0.180449 -2.807468 2.082732 0
M  V30 5 N -1.062765 -3.198992 4.124391 0
M  V30 6 C 0.296919 -3.708844 4.149441 0
M  V30 7 C 0.448179 -5.024316 3.760313 0
M  V30 8 C 1.770833 -5.481155 3.793159 0
M  V30 9 C 2.805813 -4.657693 4.186179 0
M  V30 10 N 4.130900 -4.902638 4.283732 0
M  V30 11 N 4.734152 -3.788935 4.709259 0
M  V30 12 C 3.818057 -2.803293 4.895531 0
M  V30 13 C 4.062263 -1.436045 5.351783 0
M  V30 14 C 3.299307 -0.785149 6.321422 0
M  V30 15 C 3.663298 0.513987 6.640134 0
M  V30 16 C 4.737693 1.135726 6.021805 0
M  V30 17 F 5.041162 2.405080 6.378885 0
M  V30 18 C 5.489486 0.483526 5.060974 0
M  V30 19 C 5.130522 -0.815350 4.737673 0
M  V30 20 C 2.590025 -3.348872 4.564984 0
M  V30 21 C 1.294469 -2.843165 4.550811 0
M  V30 22 C -3.532794 -3.043510 2.074645 0
M  V30 23 C -3.703787 -3.166121 0.563995 0
M  V30 24 N -2.558739 -2.579664 -0.035315 0
M  V30 25 C -2.652091 -2.203085 -1.397582 0
M  V30 26 C -3.562920 -1.091263 -1.705343 0
M  V30 27 O -4.284011 -0.409644 -0.899833 0
M  V30 28 N -3.635306 -0.744531 -3.104717 0
M  V30 29 C -2.878772 -1.420260 -4.154099 0
M  V30 30 C -2.606666 -0.446437 -5.269532 0
M  V30 31 N -2.467300 0.871298 -4.743939 0
M  V30 32 C -1.258057 1.592013 -4.564963 0
M  V30 33 C -0.032387 1.011642 -4.800723 0
M  V30 34 C 1.167350 1.684923 -4.639417 0
M  V30 35 C 1.177329 2.998616 -4.224855 0
M  V30 36 C 2.440966 3.702703 -4.057900 0
M  V30 37 N 2.468752 4.994242 -3.650345 0
M  V30 38 C 3.635423 5.657354 -3.492321 0
M  V30 39 C 4.825367 5.017707 -3.747382 0
M  V30 40 C 4.788929 3.703742 -4.161708 0
M  V30 41 N 3.596202 3.066385 -4.310585 0
M  V30 42 C -0.051015 3.572043 -3.991097 0
M  V30 43 C -1.248859 2.905863 -4.150330 0
M  V30 44 C -3.774295 1.350812 -4.410427 0
M  V30 45 C -4.506791 0.336568 -3.549584 0
M  V30 46 C -2.163824 -1.533647 0.832030 0
M  V30 47 H -3.902044 -0.577277 3.019440 0
M  V30 48 H -2.250271 0.038957 2.694676 0
M  V30 49 H -2.521005 -0.945407 4.148635 0
M  V30 50 H -1.915692 -3.105075 4.752914 0
M  V30 51 H -0.387657 -5.628131 3.460522 0
M  V30 52 H 1.949760 -6.511069 3.496147 0
M  V30 53 H 4.683592 -5.784026 4.082839 0
M  V30 54 H 2.486586 -1.354768 6.742744 0
M  V30 55 H 3.037705 0.971021 7.396983 0
M  V30 56 H 6.321064 1.007811 4.603101 0
M  V30 57 H 5.744541 -1.304930 3.973046 0
M  V30 58 H 1.086257 -1.822474 4.840154 0
M  V30 59 H -4.473504 -2.739144 2.546161 0
M  V30 60 H -3.193136 -4.046225 2.416713 0
M  V30 61 H -3.896945 -4.207825 0.234777 0
M  V30 62 H -4.579390 -2.499690 0.311877 0
M  V30 63 H -2.885120 -3.083270 -2.066806 0
M  V30 64 H -1.637238 -1.877108 -1.783685 0
M  V30 65 H -3.401377 -2.327588 -4.543356 0
M  V30 66 H -1.864138 -1.749337 -3.782348 0
M  V30 67 H -1.661083 -0.714954 -5.795517 0
M  V30 68 H -3.403289 -0.509657 -6.056386 0
M  V30 69 H 0.093711 -0.001172 -5.124169 0
M  V30 70 H 2.131151 1.228801 -4.824387 0
M  V30 71 H 3.611013 6.701703 -3.161137 0
M  V30 72 H 5.774472 5.516504 -3.631032 0
M  V30 73 H 5.656990 3.113448 -4.387223 0
M  V30 74 H -0.048066 4.605466 -3.665713 0
M  V30 75 H -2.150017 3.462688 -3.935706 0
M  V30 76 H -3.831421 2.356799 -3.997041 0
M  V30 77 H -4.337508 1.405563 -5.386917 0
M  V30 78 H -4.881589 0.853589 -2.655017 0
M  V30 79 H -5.337829 -0.130477 -4.091875 0
M  V30 80 H -1.049751 -1.441590 0.767389 0
M  V30 81 H -2.576488 -0.542612 0.662472 0
M  V30 END ATOM
M  V30 BEGIN BOND
M  V30 1 1 2 1 CFG=1
M  V30 2 1 2 3
M  V30 3 2 3 4
M  V30 4 1 3 5
M  V30 5 1 5 6
M  V30 6 2 6 7
M  V30 7 1 7 8
M  V30 8 2 8 9
M  V30 9 1 9 10
M  V30 10 1 10 11
M  V30 11 2 11 12
M  V30 12 1 12 13
M  V30 13 2 13 14
M  V30 14 1 14 15
M  V30 15 2 15 16
M  V30 16 1 16 17
M  V30 17 1 16 18
M  V30 18 2 18 19
M  V30 19 1 12 20
M  V30 20 2 20 21
M  V30 21 1 2 22
M  V30 22 1 22 23
M  V30 23 1 23 24
M  V30 24 1 24 25
M  V30 25 1 25 26
M  V30 26 2 26 27
M  V30 27 1 26 28
M  V30 28 1 28 29
M  V30 29 1 29 30
M  V30 30 1 30 31
M  V30 31 1 31 32
M  V30 32 2 32 33
M  V30 33 1 33 34
M  V30 34 2 34 35
M  V30 35 1 35 36
M  V30 36 2 36 37
M  V30 37 1 37 38
M  V30 38 2 38 39
M  V30 39 1 39 40
M  V30 40 2 40 41
M  V30 41 1 35 42
M  V30 42 2 42 43
M  V30 43 1 31 44
M  V30 44 1 44 45
M  V30 45 1 24 46
M  V30 46 1 46 2
M  V30 47 1 21 6
M  V30 48 1 45 28
M  V30 49 1 20 9
M  V30 50 1 43 32
M  V30 51 1 19 13
M  V30 52 1 41 36
M  V30 53 1 1 47
M  V30 54 1 1 48
M  V30 55 1 1 49
M  V30 56 1 5 50
M  V30 57 1 7 51
M  V30 58 1 8 52
M  V30 59 1 10 53
M  V30 60 1 14 54
M  V30 61 1 15 55
M  V30 62 1 18 56
M  V30 63 1 19 57
M  V30 64 1 21 58
M  V30 65 1 22 59
M  V30 66 1 22 60
M  V30 67 1 23 61
M  V30 68 1 23 62
M  V30 69 1 25 63
M  V30 70 1 25 64
M  V30 71 1 29 65
M  V30 72 1 29 66
M  V30 73 1 30 67
M  V30 74 1 30 68
M  V30 75 1 33 69
M  V30 76 1 34 70
M  V30 77 1 38 71
M  V30 78 1 39 72
M  V30 79 1 40 73
M  V30 80 1 42 74
M  V30 81 1 43 75
M  V30 82 1 44 76
M  V30 83 1 44 77
M  V30 84 1 45 78
M  V30 85 1 45 79
M  V30 86 1 46 80
M  V30 87 1 46 81
M  V30 END BOND
M  V30 END CTAB
M  END
>  <Dataset>  (55) 
ChEMBL_Kinases

>  <Ligand_Instance>  (55) 
nan

>  <PDB_ID>  (55) 
nan

>  <Standardized_SMILES>  (55) 
C[C@@]1(C(=O)Nc2ccc3[nH]nc(-c4ccc(F)cc4)c3c2)CCN(CC(=O)N2CCN(c3ccc(-c4ncccn4)cc3)CC2)C1

>  <Name>  (55) 
nan

>  <Pocket>  (55) 
nan

>  <ATP_Site>  (55) 
nan

>  <Peripheral>  (55) 
nan

>  <Num_H_Atoms_ProtBoundConf>  (55) 
nan

>  <Num_Resolved_Atoms>  (55) 
nan

>  <Num_Not_Resolved_Atoms>  (55) 
nan

$$$$
CHEMBL4228790
     RDKit          3D

  0  0  0  0  0  0  0  0  0  0999 V3000
M  V30 BEGIN CTAB
M  V30 COUNTS 147 152 0 0 0
M  V30 BEGIN ATOM
M  V30 1 C -0.727355 5.588359 0.594208 0
M  V30 2 C -0.662019 5.401795 2.071076 0
M  V30 3 N -1.581519 5.849560 2.899581 0
M  V30 4 C -1.684324 5.794972 4.027919 0
M  V30 5 S -0.096913 4.838171 4.425390 0
M  V30 6 C 0.369191 4.748587 2.645645 0
M  V30 7 C 1.571565 4.100289 2.247400 0
M  V30 8 C 2.089277 3.925733 0.984046 0
M  V30 9 C 3.265133 3.294949 0.649000 0
M  V30 10 C 4.045845 2.762363 1.652464 0
M  V30 11 C 5.278917 2.116763 1.232922 0
M  V30 12 N 5.245385 0.743151 0.903538 0
M  V30 13 C 5.186314 -0.314944 1.834082 0
M  V30 14 O 5.163561 0.040503 3.068755 0
M  V30 15 C 5.139235 -1.783103 1.904353 0 CFG=2
M  V30 16 C 6.378638 -2.271303 2.610753 0
M  V30 17 C 6.962258 -3.305896 1.686294 0 CFG=1
M  V30 18 O 7.424897 -4.363869 2.471263 0
M  V30 19 C 5.785557 -3.780902 0.862136 0
M  V30 20 N 5.111113 -2.491602 0.662885 0
M  V30 21 C 4.593836 -2.222379 -0.623929 0
M  V30 22 O 3.938348 -1.471959 -1.403214 0
M  V30 23 C 4.555512 -2.799066 -1.982418 0 CFG=1
M  V30 24 N 3.516996 -2.060585 -2.762370 0
M  V30 25 C 2.403335 -2.830700 -3.128461 0
M  V30 26 O 2.241655 -4.069115 -2.829627 0
M  V30 27 C 1.152942 -2.514346 -3.908023 0
M  V30 28 O 0.358084 -3.649474 -3.975245 0
M  V30 29 C -0.803127 -3.487546 -4.670815 0
M  V30 30 C -0.639585 -3.172737 -6.140339 0
M  V30 31 C -2.018657 -2.999699 -6.787530 0
M  V30 32 O -2.734563 -1.960345 -6.230849 0
M  V30 33 C -2.206283 -0.707444 -6.443582 0
M  V30 34 C -2.987948 0.389041 -5.736953 0
M  V30 35 C -2.390771 1.752317 -6.058735 0
M  V30 36 C -3.079762 2.844033 -5.320033 0
M  V30 37 O -4.469336 2.920321 -5.573902 0
M  V30 38 C -4.911563 3.936206 -4.765124 0
M  V30 39 C -6.380568 4.192812 -4.730862 0
M  V30 40 C -7.140017 2.939752 -4.282315 0
M  V30 41 O -6.594806 2.542364 -3.054765 0
M  V30 42 C -6.992855 1.469123 -2.293435 0
M  V30 43 C -7.942995 0.480560 -2.327132 0
M  V30 44 C -8.053005 -0.487727 -1.356704 0
M  V30 45 C -7.165095 -0.487181 -0.273562 0
M  V30 46 N -7.380743 -1.555720 0.674222 0
M  V30 47 C -6.094902 -1.844483 1.207765 0
M  V30 48 N -5.634771 -2.794331 0.343714 0
M  V30 49 C -4.414809 -3.364311 0.446315 0
M  V30 50 C -3.653689 -2.921252 1.490832 0
M  V30 51 F -2.396266 -3.447340 1.674212 0
M  V30 52 C -4.066374 -1.967766 2.392204 0
M  V30 53 N -3.265063 -1.495773 3.456230 0
M  V30 54 C -3.470372 -0.538136 4.507812 0
M  V30 55 C -2.242829 -0.327746 5.366818 0
M  V30 56 C -1.817341 -1.609034 6.012500 0
M  V30 57 N -0.629216 -1.426776 6.831902 0
M  V30 58 C -0.907265 -1.091468 8.236223 0
M  V30 59 C 0.615293 -1.606057 6.132090 0
M  V30 60 O 0.203871 -1.874501 4.971533 0
M  V30 61 C 1.958324 -1.473168 6.763285 0
M  V30 62 C 2.211679 -0.112777 7.391252 0
M  V30 63 C 3.590074 -0.159481 6.748297 0
M  V30 64 C 3.053347 -1.177614 5.739863 0
M  V30 65 N -5.307154 -1.446701 2.216724 0
M  V30 66 C -6.206581 0.497466 -0.221582 0
M  V30 67 C -6.093014 1.485837 -1.208850 0
M  V30 68 C 5.795728 -2.587042 -2.804429 0
M  V30 69 C 5.658288 -3.214639 -4.181594 0
M  V30 70 C 6.034347 -1.087859 -3.038933 0
M  V30 71 C 7.068036 -3.120944 -2.221684 0
M  V30 72 C 3.600955 2.895002 2.925492 0
M  V30 73 C 2.417843 3.534459 3.211076 0
M  V30 74 H -0.822022 4.571074 0.121083 0
M  V30 75 H 0.093601 6.184444 0.184481 0
M  V30 76 H -1.654838 6.113391 0.258674 0
M  V30 77 H -2.449294 6.165343 4.738736 0
M  V30 78 H 1.494006 4.335404 0.186482 0
M  V30 79 H 3.543636 3.233550 -0.390926 0
M  V30 80 H 6.013381 2.220923 2.089382 0
M  V30 81 H 5.739209 2.715863 0.419774 0
M  V30 82 H 5.267958 0.337716 -0.029261 0
M  V30 83 H 4.272091 -2.138583 2.532935 0
M  V30 84 H 6.171844 -2.687375 3.622282 0
M  V30 85 H 7.128954 -1.459995 2.793079 0
M  V30 86 H 7.732359 -2.913227 1.023775 0
M  V30 87 H 8.249892 -4.119994 2.948213 0
M  V30 88 H 5.079800 -4.333922 1.567756 0
M  V30 89 H 5.985259 -4.367270 0.001918 0
M  V30 90 H 4.290667 -3.852028 -1.986838 0
M  V30 91 H 3.307641 -1.121690 -3.158308 0
M  V30 92 H 1.441381 -2.136576 -4.892693 0
M  V30 93 H 0.570500 -1.700875 -3.414849 0
M  V30 94 H -1.441852 -4.418802 -4.621273 0
M  V30 95 H -1.406271 -2.694137 -4.158091 0
M  V30 96 H -0.031749 -2.301133 -6.349875 0
M  V30 97 H -0.212338 -4.104657 -6.621637 0
M  V30 98 H -2.625920 -3.915198 -6.725590 0
M  V30 99 H -1.878993 -2.731252 -7.877248 0
M  V30 100 H -2.141682 -0.474231 -7.545816 0
M  V30 101 H -1.148652 -0.691689 -6.101337 0
M  V30 102 H -2.856056 0.251346 -4.655667 0
M  V30 103 H -4.054390 0.342946 -6.014515 0
M  V30 104 H -1.312080 1.737941 -5.855855 0
M  V30 105 H -2.477153 1.937144 -7.162909 0
M  V30 106 H -2.616985 3.819939 -5.619100 0
M  V30 107 H -2.868353 2.761639 -4.223512 0
M  V30 108 H -4.444792 4.879405 -5.183934 0
M  V30 109 H -4.465342 3.858007 -3.740252 0
M  V30 110 H -6.688440 4.505903 -5.747103 0
M  V30 111 H -6.568364 4.982184 -3.981815 0
M  V30 112 H -7.118065 2.173683 -5.067652 0
M  V30 113 H -8.185356 3.277807 -4.096891 0
M  V30 114 H -8.530113 0.646011 -3.236207 0
M  V30 115 H -8.844891 -1.185547 -1.524764 0
M  V30 116 H -8.314503 -1.939883 0.839811 0
M  V30 117 H -3.962140 -4.127705 -0.194471 0
M  V30 118 H -2.320963 -1.939773 3.467713 0
M  V30 119 H -4.311803 -0.894972 5.124879 0
M  V30 120 H -3.767887 0.440493 4.043998 0
M  V30 121 H -1.407656 0.098529 4.775554 0
M  V30 122 H -2.523667 0.372310 6.181319 0
M  V30 123 H -2.662933 -2.012770 6.640586 0
M  V30 124 H -1.619079 -2.397192 5.275703 0
M  V30 125 H -1.510523 -0.163105 8.313201 0
M  V30 126 H 0.035825 -1.008943 8.804121 0
M  V30 127 H -1.502041 -1.897526 8.716418 0
M  V30 128 H 2.188237 -2.262902 7.485863 0
M  V30 129 H 2.236124 -0.093930 8.487138 0
M  V30 130 H 1.546456 0.657221 6.990735 0
M  V30 131 H 3.875496 0.779588 6.241695 0
M  V30 132 H 4.343365 -0.618157 7.409287 0
M  V30 133 H 2.635248 -0.716645 4.825263 0
M  V30 134 H 3.727997 -2.019520 5.522528 0
M  V30 135 H -5.578850 0.389682 0.671008 0
M  V30 136 H -5.259824 2.133987 -0.927464 0
M  V30 137 H 5.707037 -4.304889 -4.145722 0
M  V30 138 H 6.518857 -2.854403 -4.793164 0
M  V30 139 H 4.758802 -2.811209 -4.720536 0
M  V30 140 H 7.010676 -0.984595 -3.566327 0
M  V30 141 H 6.134720 -0.630862 -2.039096 0
M  V30 142 H 5.213868 -0.605146 -3.570603 0
M  V30 143 H 7.264977 -2.582709 -1.297266 0
M  V30 144 H 7.906220 -2.812600 -2.919290 0
M  V30 145 H 7.045694 -4.233143 -2.127964 0
M  V30 146 H 4.197982 2.489606 3.728815 0
M  V30 147 H 2.173092 3.574352 4.284501 0
M  V30 END ATOM
M  V30 BEGIN BOND
M  V30 1 1 1 2
M  V30 2 1 2 3
M  V30 3 2 3 4
M  V30 4 1 4 5
M  V30 5 1 5 6
M  V30 6 1 6 7
M  V30 7 2 7 8
M  V30 8 1 8 9
M  V30 9 2 9 10
M  V30 10 1 10 11
M  V30 11 1 11 12
M  V30 12 1 12 13
M  V30 13 2 13 14
M  V30 14 1 13 15
M  V30 15 1 15 16
M  V30 16 1 16 17
M  V30 17 1 17 18
M  V30 18 1 17 19
M  V30 19 1 19 20
M  V30 20 1 20 21
M  V30 21 2 21 22
M  V30 22 1 21 23
M  V30 23 1 23 24
M  V30 24 1 24 25
M  V30 25 2 25 26
M  V30 26 1 25 27
M  V30 27 1 27 28
M  V30 28 1 28 29
M  V30 29 1 29 30
M  V30 30 1 30 31
M  V30 31 1 31 32
M  V30 32 1 32 33
M  V30 33 1 33 34
M  V30 34 1 34 35
M  V30 35 1 35 36
M  V30 36 1 36 37
M  V30 37 1 37 38
M  V30 38 1 38 39
M  V30 39 1 39 40
M  V30 40 1 40 41
M  V30 41 1 41 42
M  V30 42 2 42 43
M  V30 43 1 43 44
M  V30 44 2 44 45
M  V30 45 1 45 46
M  V30 46 1 46 47
M  V30 47 2 47 48
M  V30 48 1 48 49
M  V30 49 2 49 50
M  V30 50 1 50 51
M  V30 51 1 50 52
M  V30 52 1 52 53
M  V30 53 1 53 54
M  V30 54 1 54 55
M  V30 55 1 55 56
M  V30 56 1 56 57
M  V30 57 1 57 58
M  V30 58 1 57 59
M  V30 59 2 59 60
M  V30 60 1 59 61
M  V30 61 1 61 62
M  V30 62 1 62 63
M  V30 63 1 63 64
M  V30 64 2 52 65
M  V30 65 1 45 66
M  V30 66 2 66 67
M  V30 67 1 23 68
M  V30 68 1 68 69
M  V30 69 1 68 70
M  V30 70 1 68 71
M  V30 71 1 10 72
M  V30 72 2 72 73
M  V30 73 2 6 2
M  V30 74 1 73 7
M  V30 75 1 20 15
M  V30 76 1 67 42
M  V30 77 1 65 47
M  V30 78 1 64 61
M  V30 79 1 1 74
M  V30 80 1 1 75
M  V30 81 1 1 76
M  V30 82 1 4 77
M  V30 83 1 8 78
M  V30 84 1 9 79
M  V30 85 1 11 80
M  V30 86 1 11 81
M  V30 87 1 12 82
M  V30 88 1 15 83 CFG=1
M  V30 89 1 16 84
M  V30 90 1 16 85
M  V30 91 1 17 86 CFG=3
M  V30 92 1 18 87
M  V30 93 1 19 88
M  V30 94 1 19 89
M  V30 95 1 23 90 CFG=1
M  V30 96 1 24 91
M  V30 97 1 27 92
M  V30 98 1 27 93
M  V30 99 1 29 94
M  V30 100 1 29 95
M  V30 101 1 30 96
M  V30 102 1 30 97
M  V30 103 1 31 98
M  V30 104 1 31 99
M  V30 105 1 33 100
M  V30 106 1 33 101
M  V30 107 1 34 102
M  V30 108 1 34 103
M  V30 109 1 35 104
M  V30 110 1 35 105
M  V30 111 1 36 106
M  V30 112 1 36 107
M  V30 113 1 38 108
M  V30 114 1 38 109
M  V30 115 1 39 110
M  V30 116 1 39 111
M  V30 117 1 40 112
M  V30 118 1 40 113
M  V30 119 1 43 114
M  V30 120 1 44 115
M  V30 121 1 46 116
M  V30 122 1 49 117
M  V30 123 1 53 118
M  V30 124 1 54 119
M  V30 125 1 54 120
M  V30 126 1 55 121
M  V30 127 1 55 122
M  V30 128 1 56 123
M  V30 129 1 56 124
M  V30 130 1 58 125
M  V30 131 1 58 126
M  V30 132 1 58 127
M  V30 133 1 61 128
M  V30 134 1 62 129
M  V30 135 1 62 130
M  V30 136 1 63 131
M  V30 137 1 63 132
M  V30 138 1 64 133
M  V30 139 1 64 134
M  V30 140 1 66 135
M  V30 141 1 67 136
M  V30 142 1 69 137
M  V30 143 1 69 138
M  V30 144 1 69 139
M  V30 145 1 70 140
M  V30 146 1 70 141
M  V30 147 1 70 142
M  V30 148 1 71 143
M  V30 149 1 71 144
M  V30 150 1 71 145
M  V30 151 1 72 146
M  V30 152 1 73 147
M  V30 END BOND
M  V30 END CTAB
M  END
>  <Dataset>  (56) 
ChEMBL_Kinases

>  <Ligand_Instance>  (56) 
nan

>  <PDB_ID>  (56) 
nan

>  <Standardized_SMILES>  (56) 
Cc1ncsc1-c1ccc(CNC(=O)[C@@H]2C[C@@H](O)CN2C(=O)[C@@H](NC(=O)COCCCOCCCCOCCCOc2ccc(Nc3ncc(F)c(NCCCN(C)C(=O)C4CCC4)n3)cc2)C(C)(C)C)cc1

>  <Name>  (56) 
nan

>  <Pocket>  (56) 
nan

>  <ATP_Site>  (56) 
nan

>  <Peripheral>  (56) 
nan

>  <Num_H_Atoms_ProtBoundConf>  (56) 
nan

>  <Num_Resolved_Atoms>  (56) 
nan

>  <Num_Not_Resolved_Atoms>  (56) 
nan

$$$$
CHEMBL476552
     RDKit          3D

  0  0  0  0  0  0  0  0  0  0999 V3000
M  V30 BEGIN CTAB
M  V30 COUNTS 69 73 0 0 0
M  V30 BEGIN ATOM
M  V30 1 C 2.766742 -1.320625 4.731497 0
M  V30 2 C 3.013580 -1.131294 3.275895 0
M  V30 3 C 4.043881 -0.259424 2.943915 0
M  V30 4 C 4.334799 -0.028361 1.607566 0
M  V30 5 C 3.570843 -0.689090 0.669324 0
M  V30 6 N 3.711402 -0.583029 -0.769300 0
M  V30 7 C 2.855578 0.525136 -1.111350 0
M  V30 8 O 2.309296 0.991393 -0.054211 0
M  V30 9 C 2.655649 1.028531 -2.487573 0
M  V30 10 C 3.167440 0.550113 -3.652616 0
M  V30 11 C 2.837236 1.194496 -4.821556 0
M  V30 12 N 2.043905 2.254367 -4.834465 0
M  V30 13 C 1.504450 2.776670 -3.709514 0
M  V30 14 N 0.664187 3.912226 -3.790774 0
M  V30 15 C 0.038692 4.641135 -2.706351 0
M  V30 16 C -1.476910 4.620120 -2.842610 0
M  V30 17 N -1.856042 4.077478 -4.141688 0
M  V30 18 C -3.288758 4.309862 -4.269908 0
M  V30 19 C -1.134356 4.848275 -5.144772 0
M  V30 20 C 0.334740 4.480840 -5.084402 0
M  V30 21 C 1.818365 2.150346 -2.522612 0
M  V30 22 C 2.542993 -1.559466 0.990453 0
M  V30 23 C 2.250092 -1.792553 2.326481 0
M  V30 24 C 1.169554 -2.708119 2.710110 0
M  V30 25 C 1.209090 -3.670508 3.696290 0
M  V30 26 C 0.090379 -4.457814 3.923673 0
M  V30 27 C -1.084155 -4.335442 3.209054 0
M  V30 28 C -2.201770 -5.215404 3.537337 0
M  V30 29 O -2.036794 -5.993434 4.499333 0
M  V30 30 N -3.422243 -5.217126 2.828242 0
M  V30 31 C -4.504930 -6.134190 3.219870 0
M  V30 32 C -4.862706 -5.784144 4.637592 0
M  V30 33 C -5.925333 -6.511813 5.366674 0
M  V30 34 C -4.518780 -6.721546 5.764908 0
M  V30 35 C -1.101744 -3.366453 2.227277 0
M  V30 36 C -0.003722 -2.548093 1.958447 0
M  V30 37 H 1.704706 -1.516525 4.980064 0
M  V30 38 H 3.480179 -2.038878 5.204084 0
M  V30 39 H 2.986185 -0.363000 5.296352 0
M  V30 40 H 4.648140 0.262170 3.670248 0
M  V30 41 H 5.105632 0.622487 1.215760 0
M  V30 42 H 4.223403 -1.052225 -1.569637 0
M  V30 43 H 3.798928 -0.313363 -3.528943 0
M  V30 44 H 3.259103 0.790871 -5.730732 0
M  V30 45 H 0.318072 5.726506 -2.853510 0
M  V30 46 H 0.370841 4.366271 -1.708873 0
M  V30 47 H -1.946693 3.976399 -2.077244 0
M  V30 48 H -1.933716 5.624433 -2.776977 0
M  V30 49 H -3.470765 5.313619 -4.708151 0
M  V30 50 H -3.791475 4.278024 -3.260948 0
M  V30 51 H -3.803380 3.595217 -4.918309 0
M  V30 52 H -1.550584 4.610852 -6.147451 0
M  V30 53 H -1.261419 5.915508 -4.875769 0
M  V30 54 H 0.504151 3.718753 -5.881733 0
M  V30 55 H 0.985165 5.362360 -5.280083 0
M  V30 56 H 1.368288 2.594233 -1.632089 0
M  V30 57 H 1.920583 -2.096270 0.297759 0
M  V30 58 H 2.122069 -3.750278 4.233021 0
M  V30 59 H 0.255150 -5.167968 4.720067 0
M  V30 60 H -3.562496 -4.567713 2.020133 0
M  V30 61 H -4.120200 -7.168770 3.113742 0
M  V30 62 H -5.382685 -5.943678 2.570649 0
M  V30 63 H -4.729160 -4.692678 4.880961 0
M  V30 64 H -6.554456 -5.895315 6.040678 0
M  V30 65 H -6.491647 -7.264089 4.790116 0
M  V30 66 H -4.172154 -6.300267 6.738474 0
M  V30 67 H -4.000663 -7.660714 5.472309 0
M  V30 68 H -2.026039 -3.273833 1.668573 0
M  V30 69 H -0.158877 -1.830975 1.161548 0
M  V30 END ATOM
M  V30 BEGIN BOND
M  V30 1 1 1 2
M  V30 2 2 2 3
M  V30 3 1 3 4
M  V30 4 2 4 5
M  V30 5 1 5 6
M  V30 6 1 6 7
M  V30 7 2 7 8
M  V30 8 1 7 9
M  V30 9 2 9 10
M  V30 10 1 10 11
M  V30 11 2 11 12
M  V30 12 1 12 13
M  V30 13 1 13 14
M  V30 14 1 14 15
M  V30 15 1 15 16
M  V30 16 1 16 17
M  V30 17 1 17 18
M  V30 18 1 17 19
M  V30 19 1 19 20
M  V30 20 2 13 21
M  V30 21 1 5 22
M  V30 22 2 22 23
M  V30 23 1 23 24
M  V30 24 2 24 25
M  V30 25 1 25 26
M  V30 26 2 26 27
M  V30 27 1 27 28
M  V30 28 2 28 29
M  V30 29 1 28 30
M  V30 30 1 30 31
M  V30 31 1 31 32
M  V30 32 1 32 33
M  V30 33 1 33 34
M  V30 34 1 27 35
M  V30 35 2 35 36
M  V30 36 1 23 2
M  V30 37 1 36 24
M  V30 38 1 21 9
M  V30 39 1 34 32
M  V30 40 1 20 14
M  V30 41 1 1 37
M  V30 42 1 1 38
M  V30 43 1 1 39
M  V30 44 1 3 40
M  V30 45 1 4 41
M  V30 46 1 6 42
M  V30 47 1 10 43
M  V30 48 1 11 44
M  V30 49 1 15 45
M  V30 50 1 15 46
M  V30 51 1 16 47
M  V30 52 1 16 48
M  V30 53 1 18 49
M  V30 54 1 18 50
M  V30 55 1 18 51
M  V30 56 1 19 52
M  V30 57 1 19 53
M  V30 58 1 20 54
M  V30 59 1 20 55
M  V30 60 1 21 56
M  V30 61 1 22 57
M  V30 62 1 25 58
M  V30 63 1 26 59
M  V30 64 1 30 60
M  V30 65 1 31 61
M  V30 66 1 31 62
M  V30 67 1 32 63
M  V30 68 1 33 64
M  V30 69 1 33 65
M  V30 70 1 34 66
M  V30 71 1 34 67
M  V30 72 1 35 68
M  V30 73 1 36 69
M  V30 END BOND
M  V30 END CTAB
M  END
>  <Dataset>  (57) 
ChEMBL_Kinases

>  <Ligand_Instance>  (57) 
nan

>  <PDB_ID>  (57) 
nan

>  <Standardized_SMILES>  (57) 
Cc1ccc(NC(=O)c2ccnc(N3CCN(C)CC3)c2)cc1-c1ccc(C(=O)NCC2CC2)cc1

>  <Name>  (57) 
nan

>  <Pocket>  (57) 
nan

>  <ATP_Site>  (57) 
nan

>  <Peripheral>  (57) 
nan

>  <Num_H_Atoms_ProtBoundConf>  (57) 
nan

>  <Num_Resolved_Atoms>  (57) 
nan

>  <Num_Not_Resolved_Atoms>  (57) 
nan

$$$$
CHEMBL4228687
     RDKit          3D

  0  0  0  0  0  0  0  0  0  0999 V3000
M  V30 BEGIN CTAB
M  V30 COUNTS 41 43 0 0 0
M  V30 BEGIN ATOM
M  V30 1 O 1.072139 -1.597972 1.849079 0
M  V30 2 C 0.986075 -1.214901 0.663427 0
M  V30 3 N 1.510587 -2.251483 -0.152645 0
M  V30 4 O 2.019411 -3.439339 0.185339 0
M  V30 5 C 3.373355 -3.457619 0.416600 0
M  V30 6 C 3.888618 -4.828430 0.794289 0
M  V30 7 O 3.663590 -5.771579 -0.176477 0
M  V30 8 C 0.495267 -0.017039 0.014872 0
M  V30 9 C 0.520547 0.168316 -1.336893 0
M  V30 10 C 0.021064 1.365234 -1.805271 0
M  V30 11 C -0.498793 2.383615 -1.020553 0
M  V30 12 C -0.495909 2.132701 0.345866 0
M  V30 13 C -0.000168 0.933527 0.871247 0
M  V30 14 N -0.127588 0.958211 2.278497 0
M  V30 15 C -0.730806 0.296463 3.378346 0
M  V30 16 C -0.197867 -0.310533 4.490932 0
M  V30 17 C -1.074394 -0.875152 5.386908 0
M  V30 18 C -2.438052 -0.873958 5.246952 0
M  V30 19 I -3.593545 -1.801953 6.748375 0
M  V30 20 C -2.980199 -0.267597 4.134767 0
M  V30 21 C -2.119441 0.317928 3.200640 0
M  V30 22 F -2.819839 0.868730 2.169364 0
M  V30 23 O -0.885498 3.399104 -1.879342 0
M  V30 24 C -1.090410 2.875900 -3.184586 0
M  V30 25 C -0.058126 1.798556 -3.237994 0
M  V30 26 H 1.597807 -2.278050 -1.192849 0
M  V30 27 H 3.998911 -3.019211 -0.379038 0
M  V30 28 H 3.537455 -2.814739 1.325807 0
M  V30 29 H 3.467276 -5.162858 1.761461 0
M  V30 30 H 4.994235 -4.722521 0.943157 0
M  V30 31 H 3.510516 -5.396580 -1.080130 0
M  V30 32 H 0.909023 -0.578548 -2.001560 0
M  V30 33 H -0.922103 2.983472 0.901178 0
M  V30 34 H 0.382236 1.720737 2.806332 0
M  V30 35 H 0.867682 -0.251685 4.496168 0
M  V30 36 H -0.584631 -1.340170 6.247332 0
M  V30 37 H -4.049223 -0.291684 4.068783 0
M  V30 38 H -0.910899 3.680487 -3.933348 0
M  V30 39 H -2.117742 2.531330 -3.344001 0
M  V30 40 H 0.913757 2.118040 -3.633080 0
M  V30 41 H -0.481483 0.935202 -3.812869 0
M  V30 END ATOM
M  V30 BEGIN BOND
M  V30 1 2 1 2
M  V30 2 1 2 3
M  V30 3 1 3 4
M  V30 4 1 4 5
M  V30 5 1 5 6
M  V30 6 1 6 7
M  V30 7 1 2 8
M  V30 8 2 8 9
M  V30 9 1 9 10
M  V30 10 2 10 11
M  V30 11 1 11 12
M  V30 12 2 12 13
M  V30 13 1 13 14
M  V30 14 1 14 15
M  V30 15 2 15 16
M  V30 16 1 16 17
M  V30 17 2 17 18
M  V30 18 1 18 19
M  V30 19 1 18 20
M  V30 20 2 20 21
M  V30 21 1 21 22
M  V30 22 1 11 23
M  V30 23 1 23 24
M  V30 24 1 24 25
M  V30 25 1 13 8
M  V30 26 1 21 15
M  V30 27 1 25 10
M  V30 28 1 3 26
M  V30 29 1 5 27
M  V30 30 1 5 28
M  V30 31 1 6 29
M  V30 32 1 6 30
M  V30 33 1 7 31
M  V30 34 1 9 32
M  V30 35 1 12 33
M  V30 36 1 14 34
M  V30 37 1 16 35
M  V30 38 1 17 36
M  V30 39 1 20 37
M  V30 40 1 24 38
M  V30 41 1 24 39
M  V30 42 1 25 40
M  V30 43 1 25 41
M  V30 END BOND
M  V30 END CTAB
M  END
>  <Dataset>  (58) 
ChEMBL_Kinases

>  <Ligand_Instance>  (58) 
nan

>  <PDB_ID>  (58) 
nan

>  <Standardized_SMILES>  (58) 
O=C(NOCCO)c1cc2c(cc1Nc1ccc(I)cc1F)OCC2

>  <Name>  (58) 
nan

>  <Pocket>  (58) 
nan

>  <ATP_Site>  (58) 
nan

>  <Peripheral>  (58) 
nan

>  <Num_H_Atoms_ProtBoundConf>  (58) 
nan

>  <Num_Resolved_Atoms>  (58) 
nan

>  <Num_Not_Resolved_Atoms>  (58) 
nan

$$$$
CHEMBL476752
     RDKit          3D

  0  0  0  0  0  0  0  0  0  0999 V3000
M  V30 BEGIN CTAB
M  V30 COUNTS 61 64 0 0 0
M  V30 BEGIN ATOM
M  V30 1 C 4.279948 0.333474 7.807203 0
M  V30 2 C 4.434295 0.615707 6.344722 0
M  V30 3 O 4.531234 -0.334277 5.494095 0
M  V30 4 N 4.477016 1.973876 5.862301 0
M  V30 5 C 4.630166 1.954061 4.429705 0
M  V30 6 C 5.851739 1.952096 3.826654 0
M  V30 7 C 6.049541 1.933648 2.463669 0
M  V30 8 C 4.924586 1.916065 1.665343 0
M  V30 9 C 3.647898 1.916862 2.206299 0
M  V30 10 N 2.434223 1.899807 1.464632 0
M  V30 11 C 1.691016 3.020555 1.000403 0
M  V30 12 O 2.039513 4.212108 1.202774 0
M  V30 13 C 0.451858 2.831489 0.244941 0
M  V30 14 C -0.239850 3.944006 -0.193342 0
M  V30 15 C -1.426762 3.916901 -0.918917 0
M  V30 16 C -1.943644 2.672121 -1.218063 0
M  V30 17 C -3.205430 2.498795 -1.988898 0
M  V30 18 C -1.289221 1.529799 -0.802063 0
M  V30 19 C -1.752597 0.148060 -1.064850 0
M  V30 20 C -3.041918 -0.323999 -0.919469 0
M  V30 21 C -3.302827 -1.649910 -1.208835 0
M  V30 22 C -2.315085 -2.513050 -1.637520 0
M  V30 23 C -2.600447 -3.911067 -1.939443 0
M  V30 24 O -1.691856 -4.718209 -2.337080 0
M  V30 25 N -3.852443 -4.533369 -1.839543 0
M  V30 26 C -3.804277 -5.911454 -2.204736 0
M  V30 27 C -3.534472 -6.703218 -1.098466 0
M  V30 28 C -3.446623 -8.091930 -1.252441 0
M  V30 29 C -3.637705 -8.594804 -2.520098 0
M  V30 30 C -3.906547 -7.825360 -3.631616 0
M  V30 31 C -4.104087 -8.359678 -4.949372 0
M  V30 32 N -4.271012 -8.799341 -6.009692 0
M  V30 33 C -3.989257 -6.457915 -3.458996 0
M  V30 34 C -1.008757 -2.084061 -1.797612 0
M  V30 35 C -0.791624 -0.747204 -1.496348 0
M  V30 36 C -0.102087 1.610221 -0.077099 0
M  V30 37 C 3.535513 1.936197 3.600369 0
M  V30 38 H 5.016855 0.865880 8.415842 0
M  V30 39 H 3.262408 0.682879 8.108642 0
M  V30 40 H 4.281498 -0.754804 7.931926 0
M  V30 41 H 4.401227 2.780159 6.523227 0
M  V30 42 H 6.741440 1.965837 4.435717 0
M  V30 43 H 7.034295 1.933130 2.046461 0
M  V30 44 H 4.982719 1.900663 0.582614 0
M  V30 45 H 2.149659 0.921991 1.299374 0
M  V30 46 H 0.113303 4.960324 0.008893 0
M  V30 47 H -1.931214 4.800138 -1.239265 0
M  V30 48 H -4.120020 2.631160 -1.342642 0
M  V30 49 H -3.226816 1.587793 -2.599254 0
M  V30 50 H -3.319111 3.339923 -2.734828 0
M  V30 51 H -3.761360 0.383276 -0.586534 0
M  V30 52 H -4.323750 -1.981560 -1.082803 0
M  V30 53 H -4.675130 -3.940708 -1.515824 0
M  V30 54 H -3.375692 -6.371727 -0.084328 0
M  V30 55 H -3.234950 -8.759013 -0.404956 0
M  V30 56 H -3.584521 -9.656096 -2.714396 0
M  V30 57 H -4.193687 -5.738787 -4.241008 0
M  V30 58 H -0.197373 -2.716227 -2.129978 0
M  V30 59 H 0.248017 -0.411379 -1.625064 0
M  V30 60 H 0.418478 0.721678 0.253367 0
M  V30 61 H 2.545889 1.937853 4.081641 0
M  V30 END ATOM
M  V30 BEGIN BOND
M  V30 1 1 1 2
M  V30 2 2 2 3
M  V30 3 1 2 4
M  V30 4 1 4 5
M  V30 5 2 5 6
M  V30 6 1 6 7
M  V30 7 2 7 8
M  V30 8 1 8 9
M  V30 9 1 9 10
M  V30 10 1 10 11
M  V30 11 2 11 12
M  V30 12 1 11 13
M  V30 13 2 13 14
M  V30 14 1 14 15
M  V30 15 2 15 16
M  V30 16 1 16 17
M  V30 17 1 16 18
M  V30 18 1 18 19
M  V30 19 2 19 20
M  V30 20 1 20 21
M  V30 21 2 21 22
M  V30 22 1 22 23
M  V30 23 2 23 24
M  V30 24 1 23 25
M  V30 25 1 25 26
M  V30 26 2 26 27
M  V30 27 1 27 28
M  V30 28 2 28 29
M  V30 29 1 29 30
M  V30 30 1 30 31
M  V30 31 3 31 32
M  V30 32 2 30 33
M  V30 33 1 22 34
M  V30 34 2 34 35
M  V30 35 2 18 36
M  V30 36 2 9 37
M  V30 37 1 37 5
M  V30 38 1 36 13
M  V30 39 1 35 19
M  V30 40 1 33 26
M  V30 41 1 1 38
M  V30 42 1 1 39
M  V30 43 1 1 40
M  V30 44 1 4 41
M  V30 45 1 6 42
M  V30 46 1 7 43
M  V30 47 1 8 44
M  V30 48 1 10 45
M  V30 49 1 14 46
M  V30 50 1 15 47
M  V30 51 1 17 48
M  V30 52 1 17 49
M  V30 53 1 17 50
M  V30 54 1 20 51
M  V30 55 1 21 52
M  V30 56 1 25 53
M  V30 57 1 27 54
M  V30 58 1 28 55
M  V30 59 1 29 56
M  V30 60 1 33 57
M  V30 61 1 34 58
M  V30 62 1 35 59
M  V30 63 1 36 60
M  V30 64 1 37 61
M  V30 END BOND
M  V30 END CTAB
M  END
>  <Dataset>  (59) 
ChEMBL_Kinases

>  <Ligand_Instance>  (59) 
nan

>  <PDB_ID>  (59) 
nan

>  <Standardized_SMILES>  (59) 
CC(=O)Nc1cccc(NC(=O)c2ccc(C)c(-c3ccc(C(=O)Nc4cccc(C#N)c4)cc3)c2)c1

>  <Name>  (59) 
nan

>  <Pocket>  (59) 
nan

>  <ATP_Site>  (59) 
nan

>  <Peripheral>  (59) 
nan

>  <Num_H_Atoms_ProtBoundConf>  (59) 
nan

>  <Num_Resolved_Atoms>  (59) 
nan

>  <Num_Not_Resolved_Atoms>  (59) 
nan

$$$$
CHEMBL476768
     RDKit          3D

  0  0  0  0  0  0  0  0  0  0999 V3000
M  V30 BEGIN CTAB
M  V30 COUNTS 49 51 0 0 0
M  V30 BEGIN ATOM
M  V30 1 C 3.575386 -6.047171 -0.018369 0
M  V30 2 C 4.409048 -4.994440 -0.706762 0
M  V30 3 N 3.754295 -3.684976 -0.646657 0
M  V30 4 C 4.353542 -2.534654 -1.230003 0
M  V30 5 O 5.466221 -2.677896 -1.800479 0
M  V30 6 C 3.757749 -1.203922 -1.206622 0
M  V30 7 C 4.470563 -0.195246 -1.819550 0
M  V30 8 C 3.997528 1.122266 -1.859611 0
M  V30 9 C 2.785577 1.405235 -1.266782 0
M  V30 10 C 2.189564 2.766438 -1.246467 0
M  V30 11 C 2.053343 0.414914 -0.647584 0
M  V30 12 C 0.759851 0.551178 0.018629 0
M  V30 13 C 0.611071 -0.046168 1.254508 0
M  V30 14 C -0.599959 0.065869 1.902288 0
M  V30 15 C -1.687736 0.742507 1.394272 0
M  V30 16 C -2.992374 0.903683 2.015592 0
M  V30 17 O -3.907812 1.548094 1.445984 0
M  V30 18 N -3.397438 0.395208 3.265531 0
M  V30 19 C -4.505313 0.326267 4.172835 0
M  V30 20 C -5.700332 -0.356079 3.613724 0
M  V30 21 C -6.434600 0.159672 2.416425 0
M  V30 22 C -7.088989 0.058005 3.788340 0
M  V30 23 C -1.530820 1.335259 0.161212 0
M  V30 24 C -0.324708 1.230133 -0.496235 0
M  V30 25 C 2.568191 -0.886547 -0.633725 0
M  V30 26 H 2.514776 -5.795511 0.038245 0
M  V30 27 H 3.793634 -7.022638 -0.521855 0
M  V30 28 H 4.014455 -6.146411 1.009782 0
M  V30 29 H 4.486556 -5.279280 -1.772757 0
M  V30 30 H 5.438896 -4.943420 -0.309411 0
M  V30 31 H 2.833366 -3.588284 -0.169576 0
M  V30 32 H 5.425629 -0.298745 -2.313596 0
M  V30 33 H 4.517635 1.946038 -2.326587 0
M  V30 34 H 3.023675 3.526766 -1.233862 0
M  V30 35 H 1.683861 2.929109 -2.219620 0
M  V30 36 H 1.530344 2.904073 -0.366059 0
M  V30 37 H 1.407075 -0.599063 1.735520 0
M  V30 38 H -0.713212 -0.400054 2.864244 0
M  V30 39 H -2.536680 -0.125851 3.651817 0
M  V30 40 H -4.191650 -0.249078 5.076809 0
M  V30 41 H -4.771003 1.353419 4.564777 0
M  V30 42 H -5.553993 -1.491166 3.615115 0
M  V30 43 H -6.413843 1.210086 2.085867 0
M  V30 44 H -6.785106 -0.605781 1.657011 0
M  V30 45 H -7.271040 0.970448 4.385329 0
M  V30 46 H -7.901106 -0.682506 3.870589 0
M  V30 47 H -2.336061 1.893457 -0.323308 0
M  V30 48 H -0.226008 1.700721 -1.460781 0
M  V30 49 H 2.040851 -1.711407 -0.162591 0
M  V30 END ATOM
M  V30 BEGIN BOND
M  V30 1 1 1 2
M  V30 2 1 2 3
M  V30 3 1 3 4
M  V30 4 2 4 5
M  V30 5 1 4 6
M  V30 6 2 6 7
M  V30 7 1 7 8
M  V30 8 2 8 9
M  V30 9 1 9 10
M  V30 10 1 9 11
M  V30 11 1 11 12
M  V30 12 2 12 13
M  V30 13 1 13 14
M  V30 14 2 14 15
M  V30 15 1 15 16
M  V30 16 2 16 17
M  V30 17 1 16 18
M  V30 18 1 18 19
M  V30 19 1 19 20
M  V30 20 1 20 21
M  V30 21 1 21 22
M  V30 22 1 15 23
M  V30 23 2 23 24
M  V30 24 2 11 25
M  V30 25 1 25 6
M  V30 26 1 24 12
M  V30 27 1 22 20
M  V30 28 1 1 26
M  V30 29 1 1 27
M  V30 30 1 1 28
M  V30 31 1 2 29
M  V30 32 1 2 30
M  V30 33 1 3 31
M  V30 34 1 7 32
M  V30 35 1 8 33
M  V30 36 1 10 34
M  V30 37 1 10 35
M  V30 38 1 10 36
M  V30 39 1 13 37
M  V30 40 1 14 38
M  V30 41 1 18 39
M  V30 42 1 19 40
M  V30 43 1 19 41
M  V30 44 1 20 42
M  V30 45 1 21 43
M  V30 46 1 21 44
M  V30 47 1 22 45
M  V30 48 1 22 46
M  V30 49 1 23 47
M  V30 50 1 24 48
M  V30 51 1 25 49
M  V30 END BOND
M  V30 END CTAB
M  END
>  <Dataset>  (60) 
ChEMBL_Kinases

>  <Ligand_Instance>  (60) 
nan

>  <PDB_ID>  (60) 
nan

>  <Standardized_SMILES>  (60) 
CCNC(=O)c1ccc(C)c(-c2ccc(C(=O)NCC3CC3)cc2)c1

>  <Name>  (60) 
nan

>  <Pocket>  (60) 
nan

>  <ATP_Site>  (60) 
nan

>  <Peripheral>  (60) 
nan

>  <Num_H_Atoms_ProtBoundConf>  (60) 
nan

>  <Num_Resolved_Atoms>  (60) 
nan

>  <Num_Not_Resolved_Atoms>  (60) 
nan

$$$$
CHEMBL4228611
     RDKit          3D

  0  0  0  0  0  0  0  0  0  0999 V3000
M  V30 BEGIN CTAB
M  V30 COUNTS 48 52 0 0 0
M  V30 BEGIN ATOM
M  V30 1 C 4.447661 -2.218016 -2.715701 0
M  V30 2 C 3.274543 -1.547272 -2.053948 0
M  V30 3 C 3.833612 -0.442860 -1.183093 0
M  V30 4 C 2.342124 -1.018309 -3.053633 0
M  V30 5 N 1.607376 -0.581503 -3.844692 0
M  V30 6 C 2.494073 -2.494614 -1.198403 0
M  V30 7 C 2.845760 -3.821962 -1.063548 0
M  V30 8 C 2.069085 -4.624277 -0.253942 0
M  V30 9 C 0.967953 -4.122411 0.407584 0
M  V30 10 C 0.658327 -2.781284 0.237763 0
M  V30 11 C -0.511611 -2.234142 0.936510 0
M  V30 12 C -0.877286 -2.736247 2.150138 0
M  V30 13 C -1.980155 -2.206208 2.787301 0
M  V30 14 C -2.681514 -1.184936 2.180629 0
M  V30 15 N -3.763605 -0.480249 2.532456 0
M  V30 16 N -4.053562 0.397692 1.607890 0
M  V30 17 C -3.188428 0.348703 0.565933 0
M  V30 18 C -3.225321 1.181974 -0.618178 0
M  V30 19 N -4.186812 2.124056 -0.772861 0
M  V30 20 C -4.068514 2.792468 -1.913810 0
M  V30 21 C -4.793427 3.816788 -2.495532 0
M  V30 22 C -4.411767 4.321656 -3.734351 0
M  V30 23 C -3.314394 3.773522 -4.337143 0
M  V30 24 C -2.560790 2.740439 -3.779398 0
M  V30 25 C -2.976434 2.272817 -2.551994 0
M  V30 26 N -2.517764 1.318155 -1.730846 0
M  V30 27 C -2.336138 -0.657359 0.955667 0
M  V30 28 C -1.239242 -1.212844 0.363932 0
M  V30 29 C 1.395287 -1.905418 -0.564445 0
M  V30 30 H 5.062751 -2.738001 -1.980269 0
M  V30 31 H 4.128580 -2.897699 -3.546922 0
M  V30 32 H 5.030567 -1.395233 -3.199431 0
M  V30 33 H 4.481628 0.204254 -1.797039 0
M  V30 34 H 3.040474 0.202876 -0.763823 0
M  V30 35 H 4.430442 -0.960031 -0.397065 0
M  V30 36 H 3.712190 -4.214492 -1.584857 0
M  V30 37 H 2.345692 -5.661597 -0.149858 0
M  V30 38 H 0.339454 -4.724772 1.048767 0
M  V30 39 H -0.349860 -3.537500 2.654609 0
M  V30 40 H -2.363886 -2.523509 3.749993 0
M  V30 41 H -4.341877 -0.560478 3.396161 0
M  V30 42 H -5.656575 4.208108 -1.962317 0
M  V30 43 H -4.971993 5.118689 -4.191912 0
M  V30 44 H -3.015619 4.163139 -5.299181 0
M  V30 45 H -1.690907 2.296530 -4.242490 0
M  V30 46 H -1.697587 0.761833 -1.964668 0
M  V30 47 H -0.903359 -0.859483 -0.591528 0
M  V30 48 H 1.135897 -0.872932 -0.679496 0
M  V30 END ATOM
M  V30 BEGIN BOND
M  V30 1 1 1 2
M  V30 2 1 2 3
M  V30 3 1 2 4
M  V30 4 3 4 5
M  V30 5 1 2 6
M  V30 6 2 6 7
M  V30 7 1 7 8
M  V30 8 2 8 9
M  V30 9 1 9 10
M  V30 10 1 10 11
M  V30 11 2 11 12
M  V30 12 1 12 13
M  V30 13 2 13 14
M  V30 14 1 14 15
M  V30 15 1 15 16
M  V30 16 2 16 17
M  V30 17 1 17 18
M  V30 18 2 18 19
M  V30 19 1 19 20
M  V30 20 2 20 21
M  V30 21 1 21 22
M  V30 22 2 22 23
M  V30 23 1 23 24
M  V30 24 2 24 25
M  V30 25 1 25 26
M  V30 26 1 17 27
M  V30 27 2 27 28
M  V30 28 2 10 29
M  V30 29 1 29 6
M  V30 30 1 28 11
M  V30 31 1 27 14
M  V30 32 1 26 18
M  V30 33 1 25 20
M  V30 34 1 1 30
M  V30 35 1 1 31
M  V30 36 1 1 32
M  V30 37 1 3 33
M  V30 38 1 3 34
M  V30 39 1 3 35
M  V30 40 1 7 36
M  V30 41 1 8 37
M  V30 42 1 9 38
M  V30 43 1 12 39
M  V30 44 1 13 40
M  V30 45 1 15 41
M  V30 46 1 21 42
M  V30 47 1 22 43
M  V30 48 1 23 44
M  V30 49 1 24 45
M  V30 50 1 26 46
M  V30 51 1 28 47
M  V30 52 1 29 48
M  V30 END BOND
M  V30 END CTAB
M  END
>  <Dataset>  (61) 
ChEMBL_Kinases

>  <Ligand_Instance>  (61) 
nan

>  <PDB_ID>  (61) 
nan

>  <Standardized_SMILES>  (61) 
CC(C)(C#N)c1cccc(-c2ccc3[nH]nc(-c4nc5ccccc5[nH]4)c3c2)c1

>  <Name>  (61) 
nan

>  <Pocket>  (61) 
nan

>  <ATP_Site>  (61) 
nan

>  <Peripheral>  (61) 
nan

>  <Num_H_Atoms_ProtBoundConf>  (61) 
nan

>  <Num_Resolved_Atoms>  (61) 
nan

>  <Num_Not_Resolved_Atoms>  (61) 
nan

$$$$
CHEMBL476770
     RDKit          3D

  0  0  0  0  0  0  0  0  0  0999 V3000
M  V30 BEGIN CTAB
M  V30 COUNTS 52 54 0 0 0
M  V30 BEGIN ATOM
M  V30 1 C 1.137625 -5.600914 -2.188468 0
M  V30 2 C 2.210363 -6.000869 -1.228518 0
M  V30 3 C 3.435075 -5.120544 -1.284611 0
M  V30 4 N 3.103632 -3.736106 -0.975329 0
M  V30 5 C 4.084632 -2.706905 -0.961226 0
M  V30 6 O 5.272694 -3.022865 -1.227118 0
M  V30 7 C 3.795264 -1.307087 -0.656914 0
M  V30 8 C 4.862497 -0.433277 -0.685893 0
M  V30 9 C 4.631676 0.916533 -0.401540 0
M  V30 10 C 3.356331 1.347117 -0.100376 0
M  V30 11 C 3.131605 2.773949 0.200412 0
M  V30 12 C 2.274524 0.493199 -0.065387 0
M  V30 13 C 0.899581 0.880103 0.241388 0
M  V30 14 C 0.267367 0.032431 1.149104 0
M  V30 15 C -1.033346 0.233896 1.559574 0
M  V30 16 C -1.763355 1.294507 1.080269 0
M  V30 17 C -3.146390 1.658519 1.405724 0
M  V30 18 O -3.748468 2.668743 0.904046 0
M  V30 19 N -3.967304 0.911299 2.326665 0
M  V30 20 C -5.244922 1.547383 2.401070 0
M  V30 21 C -6.244223 0.927614 3.303352 0
M  V30 22 C -6.011872 0.767781 4.757184 0
M  V30 23 C -5.882011 -0.434797 3.866317 0
M  V30 24 C -1.136198 2.134225 0.180497 0
M  V30 25 C 0.162780 1.942772 -0.236767 0
M  V30 26 C 2.546184 -0.842806 -0.354345 0
M  V30 27 H 0.151773 -5.931389 -1.746650 0
M  V30 28 H 1.035947 -4.501024 -2.307040 0
M  V30 29 H 1.236098 -6.025045 -3.198484 0
M  V30 30 H 2.542215 -7.020938 -1.542570 0
M  V30 31 H 1.859356 -5.976342 -0.190492 0
M  V30 32 H 4.221107 -5.546959 -0.667162 0
M  V30 33 H 3.791991 -5.096156 -2.345623 0
M  V30 34 H 2.112145 -3.487277 -0.755847 0
M  V30 35 H 5.878868 -0.719248 -0.915507 0
M  V30 36 H 5.442137 1.637341 -0.413225 0
M  V30 37 H 4.036087 3.248175 0.648217 0
M  V30 38 H 2.246114 2.927207 0.854811 0
M  V30 39 H 2.971622 3.308660 -0.757131 0
M  V30 40 H 0.729341 -0.841189 1.604003 0
M  V30 41 H -1.551375 -0.397332 2.256068 0
M  V30 42 H -3.458846 0.095056 2.723332 0
M  V30 43 H -5.670633 1.525541 1.354156 0
M  V30 44 H -5.149875 2.642225 2.612156 0
M  V30 45 H -7.312153 1.004866 2.967659 0
M  V30 46 H -5.117212 1.177014 5.252997 0
M  V30 47 H -6.912662 0.762815 5.401924 0
M  V30 48 H -4.875118 -0.837334 3.806153 0
M  V30 49 H -6.680314 -1.213578 3.890977 0
M  V30 50 H -1.577288 3.012987 -0.287476 0
M  V30 51 H 0.703543 2.562529 -0.937045 0
M  V30 52 H 1.717731 -1.531051 -0.333626 0
M  V30 END ATOM
M  V30 BEGIN BOND
M  V30 1 1 1 2
M  V30 2 1 2 3
M  V30 3 1 3 4
M  V30 4 1 4 5
M  V30 5 2 5 6
M  V30 6 1 5 7
M  V30 7 2 7 8
M  V30 8 1 8 9
M  V30 9 2 9 10
M  V30 10 1 10 11
M  V30 11 1 10 12
M  V30 12 1 12 13
M  V30 13 2 13 14
M  V30 14 1 14 15
M  V30 15 2 15 16
M  V30 16 1 16 17
M  V30 17 2 17 18
M  V30 18 1 17 19
M  V30 19 1 19 20
M  V30 20 1 20 21
M  V30 21 1 21 22
M  V30 22 1 22 23
M  V30 23 1 16 24
M  V30 24 2 24 25
M  V30 25 2 12 26
M  V30 26 1 26 7
M  V30 27 1 25 13
M  V30 28 1 23 21
M  V30 29 1 1 27
M  V30 30 1 1 28
M  V30 31 1 1 29
M  V30 32 1 2 30
M  V30 33 1 2 31
M  V30 34 1 3 32
M  V30 35 1 3 33
M  V30 36 1 4 34
M  V30 37 1 8 35
M  V30 38 1 9 36
M  V30 39 1 11 37
M  V30 40 1 11 38
M  V30 41 1 11 39
M  V30 42 1 14 40
M  V30 43 1 15 41
M  V30 44 1 19 42
M  V30 45 1 20 43
M  V30 46 1 20 44
M  V30 47 1 21 45
M  V30 48 1 22 46
M  V30 49 1 22 47
M  V30 50 1 23 48
M  V30 51 1 23 49
M  V30 52 1 24 50
M  V30 53 1 25 51
M  V30 54 1 26 52
M  V30 END BOND
M  V30 END CTAB
M  END
>  <Dataset>  (62) 
ChEMBL_Kinases

>  <Ligand_Instance>  (62) 
nan

>  <PDB_ID>  (62) 
nan

>  <Standardized_SMILES>  (62) 
CCCNC(=O)c1ccc(C)c(-c2ccc(C(=O)NCC3CC3)cc2)c1

>  <Name>  (62) 
nan

>  <Pocket>  (62) 
nan

>  <ATP_Site>  (62) 
nan

>  <Peripheral>  (62) 
nan

>  <Num_H_Atoms_ProtBoundConf>  (62) 
nan

>  <Num_Resolved_Atoms>  (62) 
nan

>  <Num_Not_Resolved_Atoms>  (62) 
nan

$$$$
CHEMBL4228242
     RDKit          3D

  0  0  0  0  0  0  0  0  0  0999 V3000
M  V30 BEGIN CTAB
M  V30 COUNTS 46 48 0 0 0
M  V30 BEGIN ATOM
M  V30 1 C -2.574915 0.584338 1.123250 0
M  V30 2 O -2.694079 -0.803381 1.198572 0
M  V30 3 C -1.670019 -1.690886 0.966596 0
M  V30 4 N -0.419946 -1.387308 0.640891 0
M  V30 5 C 0.575294 -2.224021 0.414415 0
M  V30 6 N 1.895504 -1.868486 0.056490 0
M  V30 7 C 2.418765 -0.567484 -0.133735 0
M  V30 8 C 1.765421 0.622730 0.088911 0
M  V30 9 C 2.274546 1.887072 -0.110963 0
M  V30 10 C 3.565693 1.977095 -0.580250 0
M  V30 11 C 4.105449 3.321014 -0.796344 0
M  V30 12 O 4.485526 3.743834 -1.922319 0
M  V30 13 N 4.204400 4.201807 0.339312 0
M  V30 14 C 3.833619 3.941457 1.724975 0
M  V30 15 C 4.734081 5.543780 0.167980 0
M  V30 16 C 4.295706 0.834076 -0.831386 0
M  V30 17 C 3.716008 -0.394112 -0.606213 0
M  V30 18 N 0.300743 -3.562308 0.525092 0
M  V30 19 C -0.929479 -3.986666 0.849772 0
M  V30 20 C -1.903562 -3.066484 1.067948 0
M  V30 21 C -3.276498 -3.474422 1.420788 0
M  V30 22 C -3.691448 -4.746856 1.553141 0
M  V30 23 C -4.979545 -5.036481 1.874687 0
M  V30 24 C -5.604068 -6.321392 2.058036 0
M  V30 25 O -6.796592 -6.523174 2.353957 0
M  V30 26 O -4.867778 -7.484430 1.907301 0
M  V30 27 C -5.822701 -3.828250 2.050951 0
M  V30 28 S -4.579778 -2.442966 1.714147 0
M  V30 29 H -3.285980 1.054560 0.414020 0
M  V30 30 H -1.580909 0.965002 0.850708 0
M  V30 31 H -2.841858 1.000092 2.137607 0
M  V30 32 H 2.595472 -2.650016 -0.092937 0
M  V30 33 H 0.757278 0.595770 0.457860 0
M  V30 34 H 1.692432 2.773032 0.088166 0
M  V30 35 H 4.648384 4.168376 2.420183 0
M  V30 36 H 3.570677 2.854778 1.876390 0
M  V30 37 H 2.890066 4.487275 1.970682 0
M  V30 38 H 5.316129 5.633263 -0.790388 0
M  V30 39 H 5.474243 5.742907 0.970567 0
M  V30 40 H 3.939344 6.321907 0.225834 0
M  V30 41 H 5.308862 0.914535 -1.200041 0
M  V30 42 H 4.359642 -1.257960 -0.829441 0
M  V30 43 H -1.110722 -5.053642 0.928693 0
M  V30 44 H -3.018982 -5.595624 1.408576 0
M  V30 45 H -5.245274 -8.380686 1.610961 0
M  V30 46 H -6.940855 -3.868132 2.324458 0
M  V30 END ATOM
M  V30 BEGIN BOND
M  V30 1 1 1 2
M  V30 2 1 2 3
M  V30 3 2 3 4
M  V30 4 1 4 5
M  V30 5 1 5 6
M  V30 6 1 6 7
M  V30 7 2 7 8
M  V30 8 1 8 9
M  V30 9 2 9 10
M  V30 10 1 10 11
M  V30 11 2 11 12
M  V30 12 1 11 13
M  V30 13 1 13 14
M  V30 14 1 13 15
M  V30 15 1 10 16
M  V30 16 2 16 17
M  V30 17 2 5 18
M  V30 18 1 18 19
M  V30 19 2 19 20
M  V30 20 1 20 21
M  V30 21 2 21 22
M  V30 22 1 22 23
M  V30 23 1 23 24
M  V30 24 2 24 25
M  V30 25 1 24 26
M  V30 26 2 23 27
M  V30 27 1 27 28
M  V30 28 1 20 3
M  V30 29 1 28 21
M  V30 30 1 17 7
M  V30 31 1 1 29
M  V30 32 1 1 30
M  V30 33 1 1 31
M  V30 34 1 6 32
M  V30 35 1 8 33
M  V30 36 1 9 34
M  V30 37 1 14 35
M  V30 38 1 14 36
M  V30 39 1 14 37
M  V30 40 1 15 38
M  V30 41 1 15 39
M  V30 42 1 15 40
M  V30 43 1 16 41
M  V30 44 1 17 42
M  V30 45 1 19 43
M  V30 46 1 22 44
M  V30 47 1 26 45
M  V30 48 1 27 46
M  V30 END BOND
M  V30 END CTAB
M  END
>  <Dataset>  (63) 
ChEMBL_Kinases

>  <Ligand_Instance>  (63) 
nan

>  <PDB_ID>  (63) 
nan

>  <Standardized_SMILES>  (63) 
COc1nc(Nc2ccc(C(=O)N(C)C)cc2)ncc1-c1cc(C(=O)O)cs1

>  <Name>  (63) 
nan

>  <Pocket>  (63) 
nan

>  <ATP_Site>  (63) 
nan

>  <Peripheral>  (63) 
nan

>  <Num_H_Atoms_ProtBoundConf>  (63) 
nan

>  <Num_Resolved_Atoms>  (63) 
nan

>  <Num_Not_Resolved_Atoms>  (63) 
nan

$$$$
CHEMBL4228552
     RDKit          3D

  0  0  0  0  0  0  0  0  0  0999 V3000
M  V30 BEGIN CTAB
M  V30 COUNTS 83 89 0 0 0
M  V30 BEGIN ATOM
M  V30 1 C -0.451747 -4.218064 4.190697 0
M  V30 2 S -0.726233 -2.542803 4.652990 0
M  V30 3 O -1.878950 -2.454682 5.581106 0
M  V30 4 O 0.550264 -2.005004 5.253453 0
M  V30 5 C -1.050530 -1.589116 3.203530 0 CFG=1
M  V30 6 C -1.292308 -0.157198 3.515911 0
M  V30 7 O -2.403597 0.387831 3.302803 0
M  V30 8 N -0.292687 0.662605 4.065142 0
M  V30 9 C -0.290683 2.028160 4.437132 0
M  V30 10 C 0.848017 2.581431 4.977045 0
M  V30 11 C 0.954069 3.885413 5.365301 0
M  V30 12 C -0.116484 4.722775 5.224028 0
M  V30 13 N -0.245104 6.026026 5.530456 0
M  V30 14 N -1.490004 6.383337 5.198970 0
M  V30 15 C -2.130739 5.298480 4.687258 0
M  V30 16 C -3.506727 5.298610 4.210868 0
M  V30 17 C -4.002877 4.743119 3.059863 0
M  V30 18 C -5.341816 4.854266 2.780872 0
M  V30 19 C -6.224324 5.504041 3.608980 0
M  V30 20 F -7.551326 5.625966 3.352047 0
M  V30 21 C -5.751607 6.072093 4.773784 0
M  V30 22 C -4.393224 5.953475 5.046788 0
M  V30 23 C -1.269237 4.235909 4.697235 0
M  V30 24 C -1.335800 2.912819 4.317385 0
M  V30 25 C 0.064481 -1.705382 2.182560 0
M  V30 26 C -0.700144 -1.103632 0.982571 0
M  V30 27 N -1.870897 -1.928013 1.011829 0
M  V30 28 C -1.698339 -3.178202 0.307535 0
M  V30 29 C -1.619237 -3.031556 -1.127995 0
M  V30 30 O -1.784324 -1.790493 -1.212682 0
M  V30 31 N -1.515219 -3.078212 -2.528452 0
M  V30 32 C -1.596734 -1.978153 -3.461262 0
M  V30 33 C -0.204696 -1.895334 -4.041501 0
M  V30 34 C 0.490496 -3.006979 -4.211124 0
M  V30 35 C 1.831456 -2.896479 -4.772885 0
M  V30 36 C 2.452690 -1.712718 -5.139316 0
M  V30 37 C 3.725639 -1.673248 -5.666665 0
M  V30 38 C 4.449690 -2.826200 -5.856504 0
M  V30 39 C 5.793175 -2.771442 -6.414738 0
M  V30 40 N 6.524343 -3.866217 -6.618785 0
M  V30 41 C 7.771851 -3.844541 -7.133555 0
M  V30 42 C 8.314225 -2.611970 -7.465248 0
M  V30 43 C 7.577915 -1.452730 -7.264908 0
M  V30 44 N 6.344747 -1.581227 -6.746639 0
M  V30 45 C 3.908126 -4.043172 -5.519987 0
M  V30 46 C 2.635100 -4.005723 -4.999748 0
M  V30 47 C 0.037791 -4.379902 -3.880662 0
M  V30 48 C -1.298158 -4.327844 -3.227688 0
M  V30 49 C -2.205241 -2.137272 2.392145 0
M  V30 50 H 0.166656 -4.319104 3.294905 0
M  V30 51 H -1.437447 -4.721298 4.055899 0
M  V30 52 H 0.106935 -4.713143 5.031919 0
M  V30 53 H 0.616148 0.133822 4.217727 0
M  V30 54 H 1.750640 1.965219 5.119857 0
M  V30 55 H 1.878282 4.256820 5.782436 0
M  V30 56 H 0.518860 6.631136 5.955529 0
M  V30 57 H -3.277129 4.245736 2.443754 0
M  V30 58 H -5.724130 4.419180 1.880647 0
M  V30 59 H -6.429761 6.597165 5.454647 0
M  V30 60 H -4.096880 6.430552 5.989892 0
M  V30 61 H -2.269320 2.571727 3.904995 0
M  V30 62 H 0.894157 -1.008306 2.385865 0
M  V30 63 H 0.359726 -2.737441 2.020683 0
M  V30 64 H -0.096530 -1.099652 0.094165 0
M  V30 65 H -0.966658 -0.068067 1.282033 0
M  V30 66 H -2.594172 -3.800603 0.618437 0
M  V30 67 H -0.840936 -3.766677 0.742096 0
M  V30 68 H -2.332998 -2.191412 -4.269556 0
M  V30 69 H -1.883667 -1.057061 -2.927830 0
M  V30 70 H 0.103226 -0.891213 -4.272528 0
M  V30 71 H 1.946909 -0.784419 -5.018432 0
M  V30 72 H 4.161791 -0.700535 -5.936085 0
M  V30 73 H 8.385602 -4.730308 -7.308032 0
M  V30 74 H 9.297848 -2.473968 -7.881654 0
M  V30 75 H 7.926367 -0.441073 -7.497824 0
M  V30 76 H 4.430749 -4.976956 -5.647838 0
M  V30 77 H 2.218000 -4.988330 -4.737626 0
M  V30 78 H -0.077489 -4.892034 -4.881727 0
M  V30 79 H 0.804443 -4.918967 -3.283624 0
M  V30 80 H -2.099798 -4.389338 -4.021669 0
M  V30 81 H -1.436343 -5.204573 -2.555147 0
M  V30 82 H -2.410038 -3.201112 2.632187 0
M  V30 83 H -3.151669 -1.577285 2.621365 0
M  V30 END ATOM
M  V30 BEGIN BOND
M  V30 1 1 1 2
M  V30 2 2 2 3
M  V30 3 2 2 4
M  V30 4 1 2 5
M  V30 5 1 5 6 CFG=1
M  V30 6 2 6 7
M  V30 7 1 6 8
M  V30 8 1 8 9
M  V30 9 2 9 10
M  V30 10 1 10 11
M  V30 11 2 11 12
M  V30 12 1 12 13
M  V30 13 1 13 14
M  V30 14 2 14 15
M  V30 15 1 15 16
M  V30 16 2 16 17
M  V30 17 1 17 18
M  V30 18 2 18 19
M  V30 19 1 19 20
M  V30 20 1 19 21
M  V30 21 2 21 22
M  V30 22 1 15 23
M  V30 23 2 23 24
M  V30 24 1 5 25
M  V30 25 1 25 26
M  V30 26 1 26 27
M  V30 27 1 27 28
M  V30 28 1 28 29
M  V30 29 2 29 30
M  V30 30 1 29 31
M  V30 31 1 31 32
M  V30 32 1 32 33
M  V30 33 2 33 34
M  V30 34 1 34 35
M  V30 35 2 35 36
M  V30 36 1 36 37
M  V30 37 2 37 38
M  V30 38 1 38 39
M  V30 39 2 39 40
M  V30 40 1 40 41
M  V30 41 2 41 42
M  V30 42 1 42 43
M  V30 43 2 43 44
M  V30 44 1 38 45
M  V30 45 2 45 46
M  V30 46 1 34 47
M  V30 47 1 47 48
M  V30 48 1 27 49
M  V30 49 1 49 5
M  V30 50 1 24 9
M  V30 51 1 48 31
M  V30 52 1 23 12
M  V30 53 1 46 35
M  V30 54 1 22 16
M  V30 55 1 44 39
M  V30 56 1 1 50
M  V30 57 1 1 51
M  V30 58 1 1 52
M  V30 59 1 8 53
M  V30 60 1 10 54
M  V30 61 1 11 55
M  V30 62 1 13 56
M  V30 63 1 17 57
M  V30 64 1 18 58
M  V30 65 1 21 59
M  V30 66 1 22 60
M  V30 67 1 24 61
M  V30 68 1 25 62
M  V30 69 1 25 63
M  V30 70 1 26 64
M  V30 71 1 26 65
M  V30 72 1 28 66
M  V30 73 1 28 67
M  V30 74 1 32 68
M  V30 75 1 32 69
M  V30 76 1 33 70
M  V30 77 1 36 71
M  V30 78 1 37 72
M  V30 79 1 41 73
M  V30 80 1 42 74
M  V30 81 1 43 75
M  V30 82 1 45 76
M  V30 83 1 46 77
M  V30 84 1 47 78
M  V30 85 1 47 79
M  V30 86 1 48 80
M  V30 87 1 48 81
M  V30 88 1 49 82
M  V30 89 1 49 83
M  V30 END BOND
M  V30 END CTAB
M  END
>  <Dataset>  (64) 
ChEMBL_Kinases

>  <Ligand_Instance>  (64) 
nan

>  <PDB_ID>  (64) 
nan

>  <Standardized_SMILES>  (64) 
CS(=O)(=O)[C@@]1(C(=O)Nc2ccc3[nH]nc(-c4ccc(F)cc4)c3c2)CCN(CC(=O)N2CC=C(c3ccc(-c4ncccn4)cc3)CC2)C1

>  <Name>  (64) 
nan

>  <Pocket>  (64) 
nan

>  <ATP_Site>  (64) 
nan

>  <Peripheral>  (64) 
nan

>  <Num_H_Atoms_ProtBoundConf>  (64) 
nan

>  <Num_Resolved_Atoms>  (64) 
nan

>  <Num_Not_Resolved_Atoms>  (64) 
nan

$$$$
CHEMBL4228524
     RDKit          3D

  0  0  0  0  0  0  0  0  0  0999 V3000
M  V30 BEGIN CTAB
M  V30 COUNTS 71 74 0 0 0
M  V30 BEGIN ATOM
M  V30 1 C 6.674998 -5.139695 2.915468 0
M  V30 2 C 5.812286 -5.849563 1.890941 0
M  V30 3 C 4.545162 -6.263662 2.583046 0
M  V30 4 C 3.563805 -6.988162 1.723875 0
M  V30 5 C 3.060888 -6.244097 0.536132 0
M  V30 6 C 2.366588 -4.981045 0.929853 0
M  V30 7 C 1.820446 -4.184886 -0.217281 0
M  V30 8 C 0.810195 -5.123391 -0.912906 0
M  V30 9 N 1.031317 -3.091785 0.289477 0
M  V30 10 C 0.985149 -1.755373 -0.172253 0
M  V30 11 O 1.770959 -1.602792 -1.166868 0
M  V30 12 C 0.183252 -0.671093 0.361310 0
M  V30 13 C 0.159157 0.498643 -0.390734 0
M  V30 14 C -0.541482 1.615191 -0.058778 0
M  V30 15 C -0.473260 2.837028 -0.951747 0
M  V30 16 N 0.918492 3.195996 -1.012783 0
M  V30 17 C 1.574804 4.388351 -0.609955 0
M  V30 18 O 2.797854 4.557624 -0.677210 0
M  V30 19 N 0.631676 5.337171 -0.129917 0
M  V30 20 C -0.771403 5.080141 -0.071773 0
M  V30 21 C -1.713633 6.105006 0.431070 0
M  V30 22 C -1.304349 3.938732 -0.449588 0
M  V30 23 C -2.689556 3.511655 -0.504425 0
M  V30 24 O -3.102720 2.358024 -0.901493 0
M  V30 25 N -3.968477 4.003855 -0.224930 0
M  V30 26 C -4.916348 2.981829 -0.533080 0
M  V30 27 C -5.252772 2.047340 0.455914 0
M  V30 28 C -6.154140 1.018780 0.286722 0
M  V30 29 C -6.724412 0.971728 -0.972231 0
M  V30 30 N -7.644395 0.094607 -1.472319 0
M  V30 31 N -7.927415 0.404220 -2.733386 0
M  V30 32 C -7.215811 1.483966 -3.111645 0
M  V30 33 C -6.463697 1.838907 -2.011105 0
M  V30 34 C -5.538515 2.858667 -1.769641 0
M  V30 35 C -1.272783 1.568214 1.106677 0
M  V30 36 C -1.308497 0.451399 1.914757 0
M  V30 37 C -0.573470 -0.635460 1.509196 0
M  V30 38 F -0.568099 -1.747296 2.260329 0
M  V30 39 H 6.100400 -4.892428 3.838819 0
M  V30 40 H 7.022710 -4.192336 2.506382 0
M  V30 41 H 7.537316 -5.777568 3.256094 0
M  V30 42 H 5.613899 -5.146088 1.043318 0
M  V30 43 H 6.331025 -6.735263 1.464787 0
M  V30 44 H 4.113024 -5.415298 3.165818 0
M  V30 45 H 4.850647 -6.998784 3.384257 0
M  V30 46 H 4.031515 -7.954702 1.438176 0
M  V30 47 H 2.694296 -7.241191 2.386193 0
M  V30 48 H 2.347548 -6.890832 0.004238 0
M  V30 49 H 3.928957 -5.961832 -0.123666 0
M  V30 50 H 1.465590 -5.216695 1.574940 0
M  V30 51 H 3.017148 -4.339889 1.566477 0
M  V30 52 H 2.557229 -3.901299 -0.989896 0
M  V30 53 H 1.385860 -5.873803 -1.480875 0
M  V30 54 H 0.129129 -4.514162 -1.550207 0
M  V30 55 H 0.213496 -5.675099 -0.150962 0
M  V30 56 H 0.428694 -3.357238 1.096019 0
M  V30 57 H 0.730230 0.540713 -1.310624 0
M  V30 58 H -0.838676 2.455863 -1.951964 0
M  V30 59 H 1.443658 2.415239 -1.425802 0
M  V30 60 H 0.972992 6.270920 0.199677 0
M  V30 61 H -2.215152 5.781190 1.361258 0
M  V30 62 H -1.046999 6.954148 0.807119 0
M  V30 63 H -2.369687 6.541586 -0.327845 0
M  V30 64 H -3.947910 4.981176 0.134908 0
M  V30 65 H -4.758268 2.157798 1.417282 0
M  V30 66 H -6.385102 0.321759 1.068413 0
M  V30 67 H -8.071401 -0.717381 -0.931898 0
M  V30 68 H -7.213179 1.998161 -4.086635 0
M  V30 69 H -5.288853 3.574840 -2.548027 0
M  V30 70 H -1.842869 2.397296 1.466524 0
M  V30 71 H -1.881788 0.412993 2.828583 0
M  V30 END ATOM
M  V30 BEGIN BOND
M  V30 1 1 1 2
M  V30 2 1 2 3
M  V30 3 1 3 4
M  V30 4 1 4 5
M  V30 5 1 5 6
M  V30 6 1 6 7
M  V30 7 1 7 8
M  V30 8 1 7 9
M  V30 9 1 9 10
M  V30 10 2 10 11
M  V30 11 1 10 12
M  V30 12 2 12 13
M  V30 13 1 13 14
M  V30 14 1 14 15
M  V30 15 1 15 16
M  V30 16 1 16 17
M  V30 17 2 17 18
M  V30 18 1 17 19
M  V30 19 1 19 20
M  V30 20 1 20 21
M  V30 21 2 20 22
M  V30 22 1 22 23
M  V30 23 2 23 24
M  V30 24 1 23 25
M  V30 25 1 25 26
M  V30 26 2 26 27
M  V30 27 1 27 28
M  V30 28 2 28 29
M  V30 29 1 29 30
M  V30 30 1 30 31
M  V30 31 2 31 32
M  V30 32 1 32 33
M  V30 33 2 33 34
M  V30 34 2 14 35
M  V30 35 1 35 36
M  V30 36 2 36 37
M  V30 37 1 37 38
M  V30 38 1 37 12
M  V30 39 1 22 15
M  V30 40 1 34 26
M  V30 41 1 33 29
M  V30 42 1 1 39
M  V30 43 1 1 40
M  V30 44 1 1 41
M  V30 45 1 2 42
M  V30 46 1 2 43
M  V30 47 1 3 44
M  V30 48 1 3 45
M  V30 49 1 4 46
M  V30 50 1 4 47
M  V30 51 1 5 48
M  V30 52 1 5 49
M  V30 53 1 6 50
M  V30 54 1 6 51
M  V30 55 1 7 52
M  V30 56 1 8 53
M  V30 57 1 8 54
M  V30 58 1 8 55
M  V30 59 1 9 56
M  V30 60 1 13 57
M  V30 61 1 15 58
M  V30 62 1 16 59
M  V30 63 1 19 60
M  V30 64 1 21 61
M  V30 65 1 21 62
M  V30 66 1 21 63
M  V30 67 1 25 64
M  V30 68 1 27 65
M  V30 69 1 28 66
M  V30 70 1 30 67
M  V30 71 1 32 68
M  V30 72 1 34 69
M  V30 73 1 35 70
M  V30 74 1 36 71
M  V30 END BOND
M  V30 END CTAB
M  END
>  <Dataset>  (65) 
ChEMBL_Kinases

>  <Ligand_Instance>  (65) 
nan

>  <PDB_ID>  (65) 
nan

>  <Standardized_SMILES>  (65) 
CCCCCCC(C)NC(=O)c1cc(C2NC(=O)NC(C)=C2C(=O)Nc2ccc3[nH]ncc3c2)ccc1F

>  <Name>  (65) 
nan

>  <Pocket>  (65) 
nan

>  <ATP_Site>  (65) 
nan

>  <Peripheral>  (65) 
nan

>  <Num_H_Atoms_ProtBoundConf>  (65) 
nan

>  <Num_Resolved_Atoms>  (65) 
nan

>  <Num_Not_Resolved_Atoms>  (65) 
nan

$$$$
CHEMBL4228493
     RDKit          3D

  0  0  0  0  0  0  0  0  0  0999 V3000
M  V30 BEGIN CTAB
M  V30 COUNTS 85 91 0 0 0
M  V30 BEGIN ATOM
M  V30 1 C 2.229489 0.060374 -1.513184 0
M  V30 2 O 1.625737 0.638916 -0.452735 0
M  V30 3 C 0.490842 0.138870 0.064706 0
M  V30 4 C -0.698182 0.158479 -0.813305 0 CFG=1
M  V30 5 C -0.503345 -0.634599 -2.040305 0
M  V30 6 O -0.758245 -0.085222 -3.152500 0
M  V30 7 N -0.047694 -1.964286 -1.965766 0
M  V30 8 C 0.192950 -2.875097 -3.028616 0
M  V30 9 C 1.456022 -2.893385 -3.587528 0
M  V30 10 C 1.702411 -3.776247 -4.617173 0
M  V30 11 C 0.743377 -4.632403 -5.103726 0
M  V30 12 N 0.667880 -5.578546 -6.062269 0
M  V30 13 N -0.547025 -6.119423 -6.108755 0
M  V30 14 C -1.328838 -5.542296 -5.169934 0
M  V30 15 C -2.725999 -5.871094 -4.919529 0
M  V30 16 C -2.959327 -7.252028 -4.888469 0
M  V30 17 C -4.251057 -7.731713 -4.658647 0
M  V30 18 C -5.276583 -6.803094 -4.465746 0
M  V30 19 F -6.520686 -7.292712 -4.246038 0
M  V30 20 C -5.031268 -5.448300 -4.499241 0
M  V30 21 C -3.757503 -4.974991 -4.725739 0
M  V30 22 C -0.519693 -4.615444 -4.546119 0
M  V30 23 C -0.759055 -3.726324 -3.512995 0
M  V30 24 C -1.919173 -0.460460 -0.116097 0
M  V30 25 C -3.072792 0.457750 -0.524168 0
M  V30 26 N -2.387710 1.733149 -0.467873 0
M  V30 27 C -2.356418 2.254017 0.858472 0
M  V30 28 C -1.676171 3.573905 0.844030 0
M  V30 29 O -1.138601 4.318729 -0.035246 0
M  V30 30 N -1.640217 4.105784 2.189405 0
M  V30 31 C -2.163857 3.530362 3.433434 0
M  V30 32 C -1.154039 3.805652 4.553872 0
M  V30 33 N 0.165683 3.919035 3.936821 0
M  V30 34 C 1.208494 2.936130 4.013956 0
M  V30 35 C 2.481776 3.077251 3.523403 0
M  V30 36 C 3.409002 2.062574 3.644652 0
M  V30 37 C 3.115867 0.862586 4.258084 0
M  V30 38 C 4.088944 -0.213344 4.389772 0
M  V30 39 N 3.730370 -1.351789 4.995085 0
M  V30 40 C 4.611009 -2.366278 5.131460 0
M  V30 41 C 5.914562 -2.273058 4.654433 0
M  V30 42 C 6.241210 -1.066266 4.031189 0
M  V30 43 N 5.338736 -0.095904 3.920866 0
M  V30 44 C 1.832546 0.747574 4.740646 0
M  V30 45 C 0.881361 1.743222 4.635319 0
M  V30 46 C 0.316923 5.180500 3.198128 0
M  V30 47 C -1.012569 5.404271 2.496076 0
M  V30 48 C -1.157030 1.566968 -1.136172 0
M  V30 49 H 2.492243 -1.025161 -1.309788 0
M  V30 50 H 3.259551 0.536900 -1.673012 0
M  V30 51 H 1.739507 0.192468 -2.472798 0
M  V30 52 H 0.219017 0.699975 1.012242 0
M  V30 53 H 0.648500 -0.949035 0.403981 0
M  V30 54 H 0.153219 -2.372569 -1.021091 0
M  V30 55 H 2.291081 -2.294599 -3.317810 0
M  V30 56 H 2.657315 -3.862793 -5.117058 0
M  V30 57 H 1.499106 -5.825934 -6.675434 0
M  V30 58 H -2.197488 -8.003858 -5.032304 0
M  V30 59 H -4.449446 -8.800873 -4.632837 0
M  V30 60 H -5.807118 -4.725739 -4.353882 0
M  V30 61 H -3.453135 -3.939138 -4.772842 0
M  V30 62 H -1.747539 -3.707775 -3.071501 0
M  V30 63 H -2.164905 -1.459947 -0.508788 0
M  V30 64 H -1.795705 -0.487267 0.977368 0
M  V30 65 H -3.357155 0.257048 -1.569854 0
M  V30 66 H -3.894014 0.381871 0.200011 0
M  V30 67 H -1.919649 1.566196 1.602375 0
M  V30 68 H -3.417954 2.401514 1.210796 0
M  V30 69 H -2.266056 2.444499 3.401131 0
M  V30 70 H -3.124900 3.993365 3.652735 0
M  V30 71 H -1.182010 3.079730 5.358790 0
M  V30 72 H -1.408221 4.800155 5.009274 0
M  V30 73 H 2.735144 3.994072 3.046192 0
M  V30 74 H 4.395290 2.240370 3.233949 0
M  V30 75 H 4.191679 -3.226935 5.639356 0
M  V30 76 H 6.502207 -3.148932 4.829721 0
M  V30 77 H 7.269856 -1.039318 3.674586 0
M  V30 78 H 1.632454 -0.220293 5.221028 0
M  V30 79 H -0.048919 1.457799 5.070305 0
M  V30 80 H 1.151936 5.123826 2.495778 0
M  V30 81 H 0.456758 5.999908 3.906887 0
M  V30 82 H -1.701668 6.018357 3.101428 0
M  V30 83 H -0.783583 5.888333 1.527050 0
M  V30 84 H -0.387987 2.244240 -0.698610 0
M  V30 85 H -1.213122 1.684395 -2.240557 0
M  V30 END ATOM
M  V30 BEGIN BOND
M  V30 1 1 1 2
M  V30 2 1 2 3
M  V30 3 1 4 3 CFG=1
M  V30 4 1 4 5
M  V30 5 2 5 6
M  V30 6 1 5 7
M  V30 7 1 7 8
M  V30 8 2 8 9
M  V30 9 1 9 10
M  V30 10 2 10 11
M  V30 11 1 11 12
M  V30 12 1 12 13
M  V30 13 2 13 14
M  V30 14 1 14 15
M  V30 15 2 15 16
M  V30 16 1 16 17
M  V30 17 2 17 18
M  V30 18 1 18 19
M  V30 19 1 18 20
M  V30 20 2 20 21
M  V30 21 1 14 22
M  V30 22 2 22 23
M  V30 23 1 4 24
M  V30 24 1 24 25
M  V30 25 1 25 26
M  V30 26 1 26 27
M  V30 27 1 27 28
M  V30 28 2 28 29
M  V30 29 1 28 30
M  V30 30 1 30 31
M  V30 31 1 31 32
M  V30 32 1 32 33
M  V30 33 1 33 34
M  V30 34 2 34 35
M  V30 35 1 35 36
M  V30 36 2 36 37
M  V30 37 1 37 38
M  V30 38 2 38 39
M  V30 39 1 39 40
M  V30 40 2 40 41
M  V30 41 1 41 42
M  V30 42 2 42 43
M  V30 43 1 37 44
M  V30 44 2 44 45
M  V30 45 1 33 46
M  V30 46 1 46 47
M  V30 47 1 26 48
M  V30 48 1 48 4
M  V30 49 1 23 8
M  V30 50 1 47 30
M  V30 51 1 22 11
M  V30 52 1 45 34
M  V30 53 1 21 15
M  V30 54 1 43 38
M  V30 55 1 1 49
M  V30 56 1 1 50
M  V30 57 1 1 51
M  V30 58 1 3 52
M  V30 59 1 3 53
M  V30 60 1 7 54
M  V30 61 1 9 55
M  V30 62 1 10 56
M  V30 63 1 12 57
M  V30 64 1 16 58
M  V30 65 1 17 59
M  V30 66 1 20 60
M  V30 67 1 21 61
M  V30 68 1 23 62
M  V30 69 1 24 63
M  V30 70 1 24 64
M  V30 71 1 25 65
M  V30 72 1 25 66
M  V30 73 1 27 67
M  V30 74 1 27 68
M  V30 75 1 31 69
M  V30 76 1 31 70
M  V30 77 1 32 71
M  V30 78 1 32 72
M  V30 79 1 35 73
M  V30 80 1 36 74
M  V30 81 1 40 75
M  V30 82 1 41 76
M  V30 83 1 42 77
M  V30 84 1 44 78
M  V30 85 1 45 79
M  V30 86 1 46 80
M  V30 87 1 46 81
M  V30 88 1 47 82
M  V30 89 1 47 83
M  V30 90 1 48 84
M  V30 91 1 48 85
M  V30 END BOND
M  V30 END CTAB
M  END
>  <Dataset>  (66) 
ChEMBL_Kinases

>  <Ligand_Instance>  (66) 
nan

>  <PDB_ID>  (66) 
nan

>  <Standardized_SMILES>  (66) 
COC[C@@]1(C(=O)Nc2ccc3[nH]nc(-c4ccc(F)cc4)c3c2)CCN(CC(=O)N2CCN(c3ccc(-c4ncccn4)cc3)CC2)C1

>  <Name>  (66) 
nan

>  <Pocket>  (66) 
nan

>  <ATP_Site>  (66) 
nan

>  <Peripheral>  (66) 
nan

>  <Num_H_Atoms_ProtBoundConf>  (66) 
nan

>  <Num_Resolved_Atoms>  (66) 
nan

>  <Num_Not_Resolved_Atoms>  (66) 
nan

$$$$
CHEMBL4228453
     RDKit          3D

  0  0  0  0  0  0  0  0  0  0999 V3000
M  V30 BEGIN CTAB
M  V30 COUNTS 85 91 0 0 0
M  V30 BEGIN ATOM
M  V30 1 C 3.019704 -4.091940 -3.576699 0
M  V30 2 N 1.648914 -3.911879 -3.993351 0
M  V30 3 C 0.940613 -5.133717 -3.853768 0
M  V30 4 C 1.102898 -2.765870 -3.340816 0
M  V30 5 C 1.909514 -1.594270 -3.775539 0
M  V30 6 O 2.873573 -1.882283 -4.529312 0
M  V30 7 N 1.716388 -0.240901 -3.444682 0
M  V30 8 C 2.444108 0.908371 -3.815571 0
M  V30 9 C 3.547502 0.975359 -4.620421 0
M  V30 10 C 4.241130 2.120471 -4.954764 0
M  V30 11 C 3.768021 3.300668 -4.421500 0
M  V30 12 N 4.137772 4.597385 -4.487717 0
M  V30 13 N 3.303999 5.353730 -3.751240 0
M  V30 14 C 2.362597 4.585039 -3.178785 0
M  V30 15 C 1.286289 5.032846 -2.302149 0
M  V30 16 C 1.482789 5.910960 -1.230545 0
M  V30 17 C 0.428878 6.313653 -0.422449 0
M  V30 18 C -0.849736 5.852689 -0.660166 0
M  V30 19 F -1.864914 6.257448 0.139740 0
M  V30 20 C -1.072667 4.988442 -1.707177 0
M  V30 21 C 0.003499 4.609741 -2.490480 0
M  V30 22 C 2.654158 3.288786 -3.600542 0
M  V30 23 C 2.001294 2.108686 -3.301453 0
M  V30 24 C 1.251669 -2.941111 -1.829712 0
M  V30 25 C -0.053619 -2.413716 -1.241631 0
M  V30 26 N -0.997249 -2.628396 -2.285975 0
M  V30 27 C -1.895984 -3.713450 -2.056336 0
M  V30 28 C -2.871204 -3.369000 -0.999963 0
M  V30 29 O -3.539848 -4.468816 -0.917748 0
M  V30 30 N -3.272387 -2.291590 -0.118291 0
M  V30 31 C -2.838551 -0.899526 0.101090 0
M  V30 32 C -2.404664 -0.835967 1.514204 0
M  V30 33 C -2.806714 -1.630349 2.484458 0
M  V30 34 C -2.327287 -1.492292 3.839213 0
M  V30 35 C -1.436201 -0.529766 4.253456 0
M  V30 36 C -0.978707 -0.401761 5.547144 0
M  V30 37 C -1.420023 -1.272424 6.504335 0
M  V30 38 C -0.933543 -1.138403 7.869156 0
M  V30 39 N -1.313710 -1.967388 8.860270 0
M  V30 40 C -0.866838 -1.850038 10.135850 0
M  V30 41 C 0.024842 -0.840720 10.473417 0
M  V30 42 C 0.421004 0.019665 9.449708 0
M  V30 43 N -0.073550 -0.173637 8.220292 0
M  V30 44 C -2.300874 -2.246978 6.162220 0
M  V30 45 C -2.744922 -2.348670 4.840135 0
M  V30 46 C -3.785844 -2.699476 2.187164 0
M  V30 47 C -4.373132 -2.615877 0.796846 0
M  V30 48 C -0.358379 -2.572844 -3.546984 0
M  V30 49 H 3.163091 -5.101050 -3.086717 0
M  V30 50 H 3.369966 -3.373917 -2.817282 0
M  V30 51 H 3.712855 -4.051485 -4.449305 0
M  V30 52 H 1.236637 -5.771776 -4.741269 0
M  V30 53 H 1.215716 -5.756936 -2.976893 0
M  V30 54 H -0.145990 -5.097584 -3.886598 0
M  V30 55 H 0.877860 -0.161521 -2.831668 0
M  V30 56 H 3.929104 0.068696 -5.044647 0
M  V30 57 H 5.094983 2.116186 -5.586166 0
M  V30 58 H 4.965157 4.955320 -5.042000 0
M  V30 59 H 2.505969 6.271647 -1.051214 0
M  V30 60 H 0.585936 6.995630 0.408888 0
M  V30 61 H -2.088695 4.649173 -1.861403 0
M  V30 62 H -0.296801 3.929883 -3.286631 0
M  V30 63 H 1.137056 2.147957 -2.653332 0
M  V30 64 H 1.339826 -4.023707 -1.576403 0
M  V30 65 H 2.133995 -2.433466 -1.442471 0
M  V30 66 H -0.277459 -3.014400 -0.324261 0
M  V30 67 H 0.067152 -1.360146 -1.003294 0
M  V30 68 H -1.335109 -4.657647 -1.794932 0
M  V30 69 H -2.399213 -3.928834 -3.019849 0
M  V30 70 H -3.778871 -0.256213 0.074731 0
M  V30 71 H -2.122761 -0.542716 -0.629989 0
M  V30 72 H -1.696181 -0.035764 1.665163 0
M  V30 73 H -1.054279 0.178331 3.560254 0
M  V30 74 H -0.269265 0.383659 5.823506 0
M  V30 75 H -1.197211 -2.538587 10.903982 0
M  V30 76 H 0.421182 -0.684532 11.457551 0
M  V30 77 H 1.123969 0.851924 9.612372 0
M  V30 78 H -2.635463 -2.923732 6.936587 0
M  V30 79 H -3.449020 -3.153666 4.644270 0
M  V30 80 H -4.597924 -2.566897 2.966153 0
M  V30 81 H -3.381695 -3.713219 2.414301 0
M  V30 82 H -5.086581 -1.771219 0.752434 0
M  V30 83 H -4.865153 -3.577725 0.513642 0
M  V30 84 H -0.525117 -1.533283 -3.969923 0
M  V30 85 H -0.811870 -3.232619 -4.317775 0
M  V30 END ATOM
M  V30 BEGIN BOND
M  V30 1 1 1 2
M  V30 2 1 2 3
M  V30 3 1 2 4
M  V30 4 1 4 5
M  V30 5 2 5 6
M  V30 6 1 5 7
M  V30 7 1 7 8
M  V30 8 2 8 9
M  V30 9 1 9 10
M  V30 10 2 10 11
M  V30 11 1 11 12
M  V30 12 1 12 13
M  V30 13 2 13 14
M  V30 14 1 14 15
M  V30 15 2 15 16
M  V30 16 1 16 17
M  V30 17 2 17 18
M  V30 18 1 18 19
M  V30 19 1 18 20
M  V30 20 2 20 21
M  V30 21 1 14 22
M  V30 22 2 22 23
M  V30 23 1 4 24
M  V30 24 1 24 25
M  V30 25 1 25 26
M  V30 26 1 26 27
M  V30 27 1 27 28
M  V30 28 2 28 29
M  V30 29 1 28 30
M  V30 30 1 30 31
M  V30 31 1 31 32
M  V30 32 2 32 33
M  V30 33 1 33 34
M  V30 34 2 34 35
M  V30 35 1 35 36
M  V30 36 2 36 37
M  V30 37 1 37 38
M  V30 38 2 38 39
M  V30 39 1 39 40
M  V30 40 2 40 41
M  V30 41 1 41 42
M  V30 42 2 42 43
M  V30 43 1 37 44
M  V30 44 2 44 45
M  V30 45 1 33 46
M  V30 46 1 46 47
M  V30 47 1 26 48
M  V30 48 1 48 4
M  V30 49 1 23 8
M  V30 50 1 47 30
M  V30 51 1 22 11
M  V30 52 1 45 34
M  V30 53 1 21 15
M  V30 54 1 43 38
M  V30 55 1 1 49
M  V30 56 1 1 50
M  V30 57 1 1 51
M  V30 58 1 3 52
M  V30 59 1 3 53
M  V30 60 1 3 54
M  V30 61 1 7 55
M  V30 62 1 9 56
M  V30 63 1 10 57
M  V30 64 1 12 58
M  V30 65 1 16 59
M  V30 66 1 17 60
M  V30 67 1 20 61
M  V30 68 1 21 62
M  V30 69 1 23 63
M  V30 70 1 24 64
M  V30 71 1 24 65
M  V30 72 1 25 66
M  V30 73 1 25 67
M  V30 74 1 27 68
M  V30 75 1 27 69
M  V30 76 1 31 70
M  V30 77 1 31 71
M  V30 78 1 32 72
M  V30 79 1 35 73
M  V30 80 1 36 74
M  V30 81 1 40 75
M  V30 82 1 41 76
M  V30 83 1 42 77
M  V30 84 1 44 78
M  V30 85 1 45 79
M  V30 86 1 46 80
M  V30 87 1 46 81
M  V30 88 1 47 82
M  V30 89 1 47 83
M  V30 90 1 48 84
M  V30 91 1 48 85
M  V30 END BOND
M  V30 END CTAB
M  END
>  <Dataset>  (67) 
ChEMBL_Kinases

>  <Ligand_Instance>  (67) 
nan

>  <PDB_ID>  (67) 
nan

>  <Standardized_SMILES>  (67) 
CN(C)C1(C(=O)Nc2ccc3[nH]nc(-c4ccc(F)cc4)c3c2)CCN(CC(=O)N2CC=C(c3ccc(-c4ncccn4)cc3)CC2)C1

>  <Name>  (67) 
nan

>  <Pocket>  (67) 
nan

>  <ATP_Site>  (67) 
nan

>  <Peripheral>  (67) 
nan

>  <Num_H_Atoms_ProtBoundConf>  (67) 
nan

>  <Num_Resolved_Atoms>  (67) 
nan

>  <Num_Not_Resolved_Atoms>  (67) 
nan

$$$$
CHEMBL4228425
     RDKit          3D

  0  0  0  0  0  0  0  0  0  0999 V3000
M  V30 BEGIN CTAB
M  V30 COUNTS 43 45 0 0 0
M  V30 BEGIN ATOM
M  V30 1 O 0.488934 -1.648986 0.187360 0
M  V30 2 C 0.072026 -0.476712 0.317613 0
M  V30 3 N 0.790163 0.265252 -0.641180 0
M  V30 4 O 1.652928 -0.542329 -1.343180 0
M  V30 5 C 2.297212 0.295329 -2.252426 0
M  V30 6 C 3.258076 -0.453879 -3.149777 0 CFG=2
M  V30 7 O 4.265718 -1.099381 -2.437471 0
M  V30 8 C 3.805714 0.545187 -4.155844 0
M  V30 9 O 4.541982 1.492327 -3.440999 0
M  V30 10 C -0.901081 0.173661 1.176479 0
M  V30 11 C -1.152604 1.515156 1.051050 0
M  V30 12 C -2.080906 2.084086 1.873425 0
M  V30 13 C -2.534301 3.406693 1.968943 0
M  V30 14 C -3.469154 3.401462 2.966512 0
M  V30 15 O -3.580651 2.203935 3.436213 0
M  V30 16 C -2.768496 1.348353 2.821650 0
M  V30 17 C -2.497489 -0.019590 2.933841 0
M  V30 18 F -3.257314 -0.599351 3.894907 0
M  V30 19 C -1.545891 -0.618471 2.096343 0
M  V30 20 N -1.408156 -1.995435 2.344831 0
M  V30 21 C -0.595389 -2.904784 3.048194 0
M  V30 22 C 0.066607 -3.925559 2.399445 0
M  V30 23 C 0.888013 -4.846183 3.005045 0
M  V30 24 C 1.052169 -4.726680 4.364682 0
M  V30 25 I 2.302439 -6.110721 5.352494 0
M  V30 26 C 0.436915 -3.743260 5.110922 0
M  V30 27 C -0.364037 -2.873096 4.406879 0
M  V30 28 F -0.947309 -1.918982 5.167498 0
M  V30 29 H 0.701673 1.308494 -0.823437 0
M  V30 30 H 1.592651 0.823049 -2.919998 0
M  V30 31 H 2.886006 1.084229 -1.742952 0
M  V30 32 H 2.726202 -1.276812 -3.704664 0
M  V30 33 H 5.150419 -0.706936 -2.674904 0
M  V30 34 H 4.368643 0.068842 -4.956986 0
M  V30 35 H 2.915297 1.090557 -4.550949 0
M  V30 36 H 3.972678 2.203633 -3.057549 0
M  V30 37 H -0.665823 2.159816 0.342992 0
M  V30 38 H -2.208440 4.254078 1.373337 0
M  V30 39 H -4.050100 4.223715 3.344609 0
M  V30 40 H -2.201030 -2.429216 1.798596 0
M  V30 41 H -0.022062 -4.081826 1.311768 0
M  V30 42 H 1.397202 -5.637665 2.478858 0
M  V30 43 H 0.595531 -3.691381 6.166623 0
M  V30 END ATOM
M  V30 BEGIN BOND
M  V30 1 2 1 2
M  V30 2 1 2 3
M  V30 3 1 3 4
M  V30 4 1 4 5
M  V30 5 1 5 6
M  V30 6 1 6 7
M  V30 7 1 6 8
M  V30 8 1 8 9
M  V30 9 1 2 10
M  V30 10 2 10 11
M  V30 11 1 11 12
M  V30 12 1 12 13
M  V30 13 2 13 14
M  V30 14 1 14 15
M  V30 15 1 15 16
M  V30 16 1 16 17
M  V30 17 1 17 18
M  V30 18 2 17 19
M  V30 19 1 19 20
M  V30 20 1 20 21
M  V30 21 2 21 22
M  V30 22 1 22 23
M  V30 23 2 23 24
M  V30 24 1 24 25
M  V30 25 1 24 26
M  V30 26 2 26 27
M  V30 27 1 27 28
M  V30 28 1 19 10
M  V30 29 1 27 21
M  V30 30 2 16 12
M  V30 31 1 3 29
M  V30 32 1 5 30
M  V30 33 1 5 31
M  V30 34 1 6 32 CFG=3
M  V30 35 1 7 33
M  V30 36 1 8 34
M  V30 37 1 8 35
M  V30 38 1 9 36
M  V30 39 1 11 37
M  V30 40 1 13 38
M  V30 41 1 14 39
M  V30 42 1 20 40
M  V30 43 1 22 41
M  V30 44 1 23 42
M  V30 45 1 26 43
M  V30 END BOND
M  V30 END CTAB
M  END
>  <Dataset>  (68) 
ChEMBL_Kinases

>  <Ligand_Instance>  (68) 
nan

>  <PDB_ID>  (68) 
nan

>  <Standardized_SMILES>  (68) 
O=C(NOC[C@H](O)CO)c1cc2ccoc2c(F)c1Nc1ccc(I)cc1F

>  <Name>  (68) 
nan

>  <Pocket>  (68) 
nan

>  <ATP_Site>  (68) 
nan

>  <Peripheral>  (68) 
nan

>  <Num_H_Atoms_ProtBoundConf>  (68) 
nan

>  <Num_Resolved_Atoms>  (68) 
nan

>  <Num_Not_Resolved_Atoms>  (68) 
nan

$$$$
CHEMBL476978
     RDKit          3D

  0  0  0  0  0  0  0  0  0  0999 V3000
M  V30 BEGIN CTAB
M  V30 COUNTS 53 56 0 0 0
M  V30 BEGIN ATOM
M  V30 1 C 1.705258 -4.091386 2.147533 0
M  V30 2 C 2.341845 -2.840244 1.669469 0
M  V30 3 C 3.684396 -2.649976 1.920836 0
M  V30 4 C 4.293247 -1.471548 1.474843 0
M  V30 5 C 3.542691 -0.532632 0.798356 0
M  V30 6 C 4.241435 0.672201 0.361986 0
M  V30 7 O 5.447607 0.785846 0.615657 0
M  V30 8 N 3.642097 1.744205 -0.342002 0
M  V30 9 C 4.413963 2.882218 -0.725316 0
M  V30 10 C 5.050546 3.646246 0.379441 0
M  V30 11 C 5.865109 4.859869 -0.130873 0
M  V30 12 C 4.687132 5.026333 0.728975 0
M  V30 13 C 2.204683 -0.766982 0.570738 0
M  V30 14 C 1.563422 -1.924543 0.997578 0
M  V30 15 C 0.142197 -2.088985 0.710422 0
M  V30 16 C -0.595308 -0.945125 0.988413 0
M  V30 17 C -1.952912 -0.872901 0.792739 0
M  V30 18 C -2.614027 -1.971714 0.302947 0
M  V30 19 C -4.063120 -2.085691 0.027736 0
M  V30 20 O -4.638432 -3.122003 -0.427369 0
M  V30 21 N -4.974784 -1.031614 0.247449 0
M  V30 22 C -6.389303 -1.186802 -0.036561 0
M  V30 23 C -6.900634 -2.321744 0.825648 0
M  V30 24 C -8.322152 -2.746334 0.780505 0
M  V30 25 C -7.300369 -3.614352 0.120714 0
M  V30 26 C -1.896764 -3.115953 0.021511 0
M  V30 27 C -0.532887 -3.186981 0.218594 0
M  V30 28 H 2.159522 -4.432919 3.116829 0
M  V30 29 H 0.622128 -3.976224 2.371656 0
M  V30 30 H 1.865778 -4.917308 1.407315 0
M  V30 31 H 4.237171 -3.422304 2.460521 0
M  V30 32 H 5.349434 -1.406267 1.715871 0
M  V30 33 H 2.607522 1.663326 -0.568034 0
M  V30 34 H 3.759709 3.561252 -1.328093 0
M  V30 35 H 5.246078 2.611998 -1.439655 0
M  V30 36 H 5.575414 3.056626 1.152284 0
M  V30 37 H 6.909205 4.953170 0.254328 0
M  V30 38 H 5.749518 5.172725 -1.175064 0
M  V30 39 H 4.854694 5.352250 1.777540 0
M  V30 40 H 3.782130 5.525010 0.304700 0
M  V30 41 H 1.621225 -0.017670 0.034849 0
M  V30 42 H -0.182010 -0.005364 1.382512 0
M  V30 43 H -2.572858 -0.012424 0.991287 0
M  V30 44 H -4.617564 -0.107078 0.628141 0
M  V30 45 H -6.919379 -0.237858 0.184920 0
M  V30 46 H -6.575149 -1.387766 -1.111465 0
M  V30 47 H -6.334049 -2.498237 1.767336 0
M  V30 48 H -8.739433 -3.138288 1.748147 0
M  V30 49 H -8.988526 -2.135903 0.154820 0
M  V30 50 H -6.989925 -4.576695 0.537224 0
M  V30 51 H -7.282139 -3.616212 -1.002065 0
M  V30 52 H -2.313371 -4.040194 -0.367806 0
M  V30 53 H 0.116005 -4.031037 0.029532 0
M  V30 END ATOM
M  V30 BEGIN BOND
M  V30 1 1 1 2
M  V30 2 2 2 3
M  V30 3 1 3 4
M  V30 4 2 4 5
M  V30 5 1 5 6
M  V30 6 2 6 7
M  V30 7 1 6 8
M  V30 8 1 8 9
M  V30 9 1 9 10
M  V30 10 1 10 11
M  V30 11 1 11 12
M  V30 12 1 5 13
M  V30 13 2 13 14
M  V30 14 1 14 15
M  V30 15 2 15 16
M  V30 16 1 16 17
M  V30 17 2 17 18
M  V30 18 1 18 19
M  V30 19 2 19 20
M  V30 20 1 19 21
M  V30 21 1 21 22
M  V30 22 1 22 23
M  V30 23 1 23 24
M  V30 24 1 24 25
M  V30 25 1 18 26
M  V30 26 2 26 27
M  V30 27 1 14 2
M  V30 28 1 27 15
M  V30 29 1 12 10
M  V30 30 1 25 23
M  V30 31 1 1 28
M  V30 32 1 1 29
M  V30 33 1 1 30
M  V30 34 1 3 31
M  V30 35 1 4 32
M  V30 36 1 8 33
M  V30 37 1 9 34
M  V30 38 1 9 35
M  V30 39 1 10 36
M  V30 40 1 11 37
M  V30 41 1 11 38
M  V30 42 1 12 39
M  V30 43 1 12 40
M  V30 44 1 13 41
M  V30 45 1 16 42
M  V30 46 1 17 43
M  V30 47 1 21 44
M  V30 48 1 22 45
M  V30 49 1 22 46
M  V30 50 1 23 47
M  V30 51 1 24 48
M  V30 52 1 24 49
M  V30 53 1 25 50
M  V30 54 1 25 51
M  V30 55 1 26 52
M  V30 56 1 27 53
M  V30 END BOND
M  V30 END CTAB
M  END
>  <Dataset>  (69) 
ChEMBL_Kinases

>  <Ligand_Instance>  (69) 
nan

>  <PDB_ID>  (69) 
nan

>  <Standardized_SMILES>  (69) 
Cc1ccc(C(=O)NCC2CC2)cc1-c1ccc(C(=O)NCC2CC2)cc1

>  <Name>  (69) 
nan

>  <Pocket>  (69) 
nan

>  <ATP_Site>  (69) 
nan

>  <Peripheral>  (69) 
nan

>  <Num_H_Atoms_ProtBoundConf>  (69) 
nan

>  <Num_Resolved_Atoms>  (69) 
nan

>  <Num_Not_Resolved_Atoms>  (69) 
nan

$$$$
CHEMBL4228412
     RDKit          3D

  0  0  0  0  0  0  0  0  0  0999 V3000
M  V30 BEGIN CTAB
M  V30 COUNTS 42 46 0 0 0
M  V30 BEGIN ATOM
M  V30 1 C 0.762888 0.907800 4.825736 0
M  V30 2 C 1.362820 0.721082 3.481247 0
M  V30 3 C 1.404207 1.600969 2.420237 0
M  V30 4 N 1.942394 1.390677 1.236547 0
M  V30 5 C 2.035830 2.144872 0.140874 0
M  V30 6 C 1.572852 3.472854 -0.184400 0
M  V30 7 C 1.802605 3.973318 -1.467611 0
M  V30 8 N 1.297786 5.229549 -1.602700 0
M  V30 9 N 0.741650 5.561902 -0.428274 0
M  V30 10 C 0.911963 4.518059 0.396175 0
M  V30 11 C 2.709462 1.321392 -0.744071 0
M  V30 12 N 2.986616 0.140594 -0.173926 0
M  V30 13 C 2.512032 0.161222 1.073280 0
M  V30 14 C 2.521532 -0.795052 2.081306 0
M  V30 15 N 3.121629 -2.064758 1.713924 0
M  V30 16 C 2.038248 -2.624887 0.839113 0
M  V30 17 C 0.661958 -2.681170 1.199430 0
M  V30 18 C -0.196692 -3.160947 0.260388 0
M  V30 19 C -1.654479 -3.263804 0.470112 0
M  V30 20 N -2.269776 -4.466730 0.025464 0
M  V30 21 C -2.733799 -4.489752 -1.266109 0
M  V30 22 C -3.341907 -5.704483 -1.583798 0
M  V30 23 C -3.198757 -6.397137 -0.382195 0
M  V30 24 N -2.563481 -5.629281 0.530935 0
M  V30 25 N 0.357241 -3.569765 -1.001466 0
M  V30 26 S 2.062078 -3.300535 -0.909411 0
M  V30 27 N 1.944889 -0.481483 3.252853 0
M  V30 28 H 1.533812 1.101125 5.613573 0
M  V30 29 H 0.015347 1.723676 4.813914 0
M  V30 30 H 0.213031 -0.057676 5.038693 0
M  V30 31 H 0.941278 2.550958 2.602221 0
M  V30 32 H 2.275409 3.607377 -2.355855 0
M  V30 33 H 0.272103 6.474264 -0.241241 0
M  V30 34 H 0.576523 4.471984 1.403015 0
M  V30 35 H 3.044350 1.430094 -1.765922 0
M  V30 36 H 3.954269 -2.638038 1.846424 0
M  V30 37 H 0.388425 -2.350664 2.179662 0
M  V30 38 H -2.198509 -2.378998 0.008557 0
M  V30 39 H -1.875311 -3.122651 1.567521 0
M  V30 40 H -2.685525 -3.711584 -2.036748 0
M  V30 41 H -3.786901 -5.980779 -2.527043 0
M  V30 42 H -3.595198 -7.426142 -0.318719 0
M  V30 END ATOM
M  V30 BEGIN BOND
M  V30 1 1 1 2
M  V30 2 2 2 3
M  V30 3 1 3 4
M  V30 4 1 4 5
M  V30 5 1 5 6
M  V30 6 1 6 7
M  V30 7 2 7 8
M  V30 8 1 8 9
M  V30 9 1 9 10
M  V30 10 2 5 11
M  V30 11 1 11 12
M  V30 12 2 12 13
M  V30 13 1 13 14
M  V30 14 1 14 15
M  V30 15 1 15 16
M  V30 16 2 16 17
M  V30 17 1 17 18
M  V30 18 1 18 19
M  V30 19 1 19 20
M  V30 20 1 20 21
M  V30 21 2 21 22
M  V30 22 1 22 23
M  V30 23 2 23 24
M  V30 24 2 18 25
M  V30 25 1 25 26
M  V30 26 2 14 27
M  V30 27 1 27 2
M  V30 28 1 13 4
M  V30 29 1 26 16
M  V30 30 2 10 6
M  V30 31 1 24 20
M  V30 32 1 1 28
M  V30 33 1 1 29
M  V30 34 1 1 30
M  V30 35 1 3 31
M  V30 36 1 7 32
M  V30 37 1 9 33
M  V30 38 1 10 34
M  V30 39 1 11 35
M  V30 40 1 15 36
M  V30 41 1 17 37
M  V30 42 1 19 38
M  V30 43 1 19 39
M  V30 44 1 21 40
M  V30 45 1 22 41
M  V30 46 1 23 42
M  V30 END BOND
M  V30 END CTAB
M  END
>  <Dataset>  (70) 
ChEMBL_Kinases

>  <Ligand_Instance>  (70) 
nan

>  <PDB_ID>  (70) 
nan

>  <Standardized_SMILES>  (70) 
Cc1cn2c(-c3cn[nH]c3)cnc2c(Nc2cc(Cn3cccn3)ns2)n1

>  <Name>  (70) 
nan

>  <Pocket>  (70) 
nan

>  <ATP_Site>  (70) 
nan

>  <Peripheral>  (70) 
nan

>  <Num_H_Atoms_ProtBoundConf>  (70) 
nan

>  <Num_Resolved_Atoms>  (70) 
nan

>  <Num_Not_Resolved_Atoms>  (70) 
nan

$$$$
CHEMBL476995
     RDKit          3D

  0  0  0  0  0  0  0  0  0  0999 V3000
M  V30 BEGIN CTAB
M  V30 COUNTS 67 71 0 0 0
M  V30 BEGIN ATOM
M  V30 1 C 1.411671 -1.817129 4.963250 0
M  V30 2 C 1.975023 -1.694161 3.596441 0
M  V30 3 C 3.226986 -1.089706 3.416362 0
M  V30 4 C 3.797812 -0.950773 2.150669 0
M  V30 5 C 3.053727 -1.445076 1.091922 0
M  V30 6 N 3.612041 -1.312650 -0.233783 0
M  V30 7 C 3.125160 -0.050638 -0.737739 0
M  V30 8 O 2.384699 0.505487 0.136388 0
M  V30 9 C 3.463502 0.474205 -2.074900 0
M  V30 10 C 4.300613 -0.107092 -3.035962 0
M  V30 11 C 4.461045 0.573994 -4.224477 0
M  V30 12 C 3.831135 1.776779 -4.471722 0
M  V30 13 C 3.005785 2.355820 -3.531467 0
M  V30 14 N 2.398613 3.584351 -3.868050 0
M  V30 15 C 2.607737 4.838753 -3.375786 0
M  V30 16 C 3.592707 5.165201 -2.312308 0
M  V30 17 C 1.767673 5.753676 -4.016956 0
M  V30 18 C 1.053447 4.985750 -4.909585 0
M  V30 19 C 1.435780 3.662717 -4.821505 0
M  V30 20 C 0.884039 2.541474 -5.629179 0
M  V30 21 C 2.834649 1.687993 -2.337889 0
M  V30 22 C 1.819987 -2.047946 1.208488 0
M  V30 23 C 1.295848 -2.161075 2.492005 0
M  V30 24 C -0.013593 -2.790400 2.595638 0
M  V30 25 C -0.985667 -2.195986 3.374655 0
M  V30 26 C -2.231283 -2.775847 3.477714 0
M  V30 27 C -2.558528 -3.944565 2.826835 0
M  V30 28 C -3.859752 -4.602175 2.891648 0
M  V30 29 O -4.127431 -5.689834 2.269848 0
M  V30 30 N -4.974968 -4.134864 3.633360 0
M  V30 31 C -6.261449 -4.821958 3.668695 0
M  V30 32 C -7.163907 -4.005055 4.556998 0
M  V30 33 C -8.565469 -4.372164 4.838560 0
M  V30 34 C -8.286041 -3.243317 3.894467 0
M  V30 35 C -1.603603 -4.585273 2.024464 0
M  V30 36 C -0.353856 -3.961052 1.948995 0
M  V30 37 H 1.036035 -0.836607 5.352574 0
M  V30 38 H 0.728933 -2.653833 5.092688 0
M  V30 39 H 2.305563 -2.031380 5.621819 0
M  V30 40 H 3.781429 -0.713041 4.290114 0
M  V30 41 H 4.763696 -0.483961 1.998992 0
M  V30 42 H 4.245463 -1.882923 -0.867335 0
M  V30 43 H 4.713551 -1.031872 -2.701174 0
M  V30 44 H 5.121034 0.074156 -4.928179 0
M  V30 45 H 4.073679 2.172484 -5.462709 0
M  V30 46 H 3.849033 6.256656 -2.444274 0
M  V30 47 H 3.068075 5.100554 -1.339264 0
M  V30 48 H 4.501482 4.556901 -2.341976 0
M  V30 49 H 1.766014 6.800066 -3.784531 0
M  V30 50 H 0.315085 5.420110 -5.555400 0
M  V30 51 H 0.163956 1.992274 -4.985820 0
M  V30 52 H 1.711923 1.858546 -5.936553 0
M  V30 53 H 0.402992 2.980172 -6.525042 0
M  V30 54 H 2.173574 2.200144 -1.642204 0
M  V30 55 H 1.305383 -2.410802 0.312447 0
M  V30 56 H -0.843975 -1.263387 3.939148 0
M  V30 57 H -2.998764 -2.306932 4.092338 0
M  V30 58 H -4.803822 -3.236887 4.170050 0
M  V30 59 H -6.671472 -5.036059 2.674338 0
M  V30 60 H -6.020032 -5.820220 4.142757 0
M  V30 61 H -6.633470 -3.423677 5.339363 0
M  V30 62 H -8.953309 -4.109128 5.841877 0
M  V30 63 H -9.078189 -5.229494 4.383256 0
M  V30 64 H -8.434116 -3.380795 2.800768 0
M  V30 65 H -8.530991 -2.224418 4.269188 0
M  V30 66 H -1.813389 -5.499601 1.496651 0
M  V30 67 H 0.411259 -4.444728 1.324774 0
M  V30 END ATOM
M  V30 BEGIN BOND
M  V30 1 1 1 2
M  V30 2 2 2 3
M  V30 3 1 3 4
M  V30 4 2 4 5
M  V30 5 1 5 6
M  V30 6 1 6 7
M  V30 7 2 7 8
M  V30 8 1 7 9
M  V30 9 2 9 10
M  V30 10 1 10 11
M  V30 11 2 11 12
M  V30 12 1 12 13
M  V30 13 1 13 14
M  V30 14 1 14 15
M  V30 15 1 15 16
M  V30 16 2 15 17
M  V30 17 1 17 18
M  V30 18 2 18 19
M  V30 19 1 19 20
M  V30 20 2 13 21
M  V30 21 1 5 22
M  V30 22 2 22 23
M  V30 23 1 23 24
M  V30 24 2 24 25
M  V30 25 1 25 26
M  V30 26 2 26 27
M  V30 27 1 27 28
M  V30 28 2 28 29
M  V30 29 1 28 30
M  V30 30 1 30 31
M  V30 31 1 31 32
M  V30 32 1 32 33
M  V30 33 1 33 34
M  V30 34 1 27 35
M  V30 35 2 35 36
M  V30 36 1 23 2
M  V30 37 1 36 24
M  V30 38 1 21 9
M  V30 39 1 34 32
M  V30 40 1 19 14
M  V30 41 1 1 37
M  V30 42 1 1 38
M  V30 43 1 1 39
M  V30 44 1 3 40
M  V30 45 1 4 41
M  V30 46 1 6 42
M  V30 47 1 10 43
M  V30 48 1 11 44
M  V30 49 1 12 45
M  V30 50 1 16 46
M  V30 51 1 16 47
M  V30 52 1 16 48
M  V30 53 1 17 49
M  V30 54 1 18 50
M  V30 55 1 20 51
M  V30 56 1 20 52
M  V30 57 1 20 53
M  V30 58 1 21 54
M  V30 59 1 22 55
M  V30 60 1 25 56
M  V30 61 1 26 57
M  V30 62 1 30 58
M  V30 63 1 31 59
M  V30 64 1 31 60
M  V30 65 1 32 61
M  V30 66 1 33 62
M  V30 67 1 33 63
M  V30 68 1 34 64
M  V30 69 1 34 65
M  V30 70 1 35 66
M  V30 71 1 36 67
M  V30 END BOND
M  V30 END CTAB
M  END
>  <Dataset>  (71) 
ChEMBL_Kinases

>  <Ligand_Instance>  (71) 
nan

>  <PDB_ID>  (71) 
nan

>  <Standardized_SMILES>  (71) 
Cc1ccc(NC(=O)c2cccc(-n3c(C)ccc3C)c2)cc1-c1ccc(C(=O)NCC2CC2)cc1

>  <Name>  (71) 
nan

>  <Pocket>  (71) 
nan

>  <ATP_Site>  (71) 
nan

>  <Peripheral>  (71) 
nan

>  <Num_H_Atoms_ProtBoundConf>  (71) 
nan

>  <Num_Resolved_Atoms>  (71) 
nan

>  <Num_Not_Resolved_Atoms>  (71) 
nan

$$$$
CHEMBL476996
     RDKit          3D

  0  0  0  0  0  0  0  0  0  0999 V3000
M  V30 BEGIN CTAB
M  V30 COUNTS 60 64 0 0 0
M  V30 BEGIN ATOM
M  V30 1 C 0.987600 -4.028627 4.005508 0
M  V30 2 C 1.260319 -2.648546 3.508638 0
M  V30 3 C 2.068766 -1.817788 4.251556 0
M  V30 4 C 2.322352 -0.544038 3.788528 0
M  V30 5 C 1.831353 -0.027904 2.636087 0
M  V30 6 N 2.057526 1.268540 2.113006 0
M  V30 7 C 2.821833 2.319442 2.632595 0
M  V30 8 O 3.422872 2.152060 3.723862 0
M  V30 9 C 3.002451 3.630558 2.025317 0
M  V30 10 C 3.783626 4.565144 2.655410 0
M  V30 11 C 3.984450 5.837865 2.107181 0
M  V30 12 C 3.405961 6.206007 0.911353 0
M  V30 13 C 2.617389 5.276742 0.265526 0
M  V30 14 C 1.986042 5.623316 -1.002366 0
M  V30 15 C 0.762171 5.090848 -1.397159 0
M  V30 16 C 0.458580 5.622277 -2.632121 0
M  V30 17 O 1.443211 6.417150 -2.942546 0
M  V30 18 C 2.368635 6.460985 -2.029189 0
M  V30 19 C 2.439935 4.032414 0.832275 0
M  V30 20 C 1.026245 -0.882483 1.915071 0
M  V30 21 C 0.745996 -2.163350 2.339802 0
M  V30 22 C -0.121051 -2.982631 1.502280 0
M  V30 23 C 0.208733 -2.958922 0.142722 0
M  V30 24 C -0.531778 -3.692815 -0.792629 0
M  V30 25 C -1.606273 -4.463284 -0.424693 0
M  V30 26 C -2.352530 -5.211012 -1.403247 0
M  V30 27 O -1.922274 -5.089167 -2.589807 0
M  V30 28 N -3.463915 -6.027490 -1.178673 0
M  V30 29 C -4.249631 -6.780179 -2.089024 0
M  V30 30 C -5.007046 -6.044256 -3.133841 0
M  V30 31 C -6.051641 -5.061747 -2.629970 0
M  V30 32 C -4.870542 -4.635728 -3.484611 0
M  V30 33 C -1.900397 -4.461557 0.920735 0
M  V30 34 C -1.199935 -3.755579 1.874373 0
M  V30 35 H 1.901508 -4.421989 4.535540 0
M  V30 36 H 0.749255 -4.727551 3.173522 0
M  V30 37 H 0.149220 -4.051202 4.712935 0
M  V30 38 H 2.473222 -2.198730 5.170329 0
M  V30 39 H 2.952585 0.039735 4.411421 0
M  V30 40 H 1.618535 1.548072 1.208086 0
M  V30 41 H 4.290176 4.401343 3.593532 0
M  V30 42 H 4.599518 6.587982 2.593669 0
M  V30 43 H 3.521513 7.169233 0.437061 0
M  V30 44 H 0.151221 4.391928 -0.852011 0
M  V30 45 H -0.428597 5.416000 -3.226298 0
M  V30 46 H 3.283134 7.013666 -1.999444 0
M  V30 47 H 1.816642 3.341794 0.291853 0
M  V30 48 H 0.590346 -0.538812 0.970647 0
M  V30 49 H 1.056488 -2.366321 -0.236840 0
M  V30 50 H -0.204856 -3.618394 -1.842038 0
M  V30 51 H -3.702923 -6.040299 -0.140978 0
M  V30 52 H -5.006619 -7.385647 -1.516962 0
M  V30 53 H -3.575280 -7.568961 -2.547682 0
M  V30 54 H -5.448775 -6.724627 -3.915857 0
M  V30 55 H -6.039961 -4.824068 -1.543920 0
M  V30 56 H -7.031600 -4.986195 -3.124012 0
M  V30 57 H -4.249685 -3.893912 -2.994009 0
M  V30 58 H -5.105925 -4.367276 -4.556743 0
M  V30 59 H -2.715011 -5.026951 1.309184 0
M  V30 60 H -1.416488 -3.740028 2.931936 0
M  V30 END ATOM
M  V30 BEGIN BOND
M  V30 1 1 1 2
M  V30 2 2 2 3
M  V30 3 1 3 4
M  V30 4 2 4 5
M  V30 5 1 5 6
M  V30 6 1 6 7
M  V30 7 2 7 8
M  V30 8 1 7 9
M  V30 9 2 9 10
M  V30 10 1 10 11
M  V30 11 2 11 12
M  V30 12 1 12 13
M  V30 13 1 13 14
M  V30 14 1 14 15
M  V30 15 2 15 16
M  V30 16 1 16 17
M  V30 17 1 17 18
M  V30 18 2 13 19
M  V30 19 1 5 20
M  V30 20 2 20 21
M  V30 21 1 21 22
M  V30 22 2 22 23
M  V30 23 1 23 24
M  V30 24 2 24 25
M  V30 25 1 25 26
M  V30 26 2 26 27
M  V30 27 1 26 28
M  V30 28 1 28 29
M  V30 29 1 29 30
M  V30 30 1 30 31
M  V30 31 1 31 32
M  V30 32 1 25 33
M  V30 33 2 33 34
M  V30 34 1 21 2
M  V30 35 1 34 22
M  V30 36 1 19 9
M  V30 37 1 32 30
M  V30 38 2 18 14
M  V30 39 1 1 35
M  V30 40 1 1 36
M  V30 41 1 1 37
M  V30 42 1 3 38
M  V30 43 1 4 39
M  V30 44 1 6 40
M  V30 45 1 10 41
M  V30 46 1 11 42
M  V30 47 1 12 43
M  V30 48 1 15 44
M  V30 49 1 16 45
M  V30 50 1 18 46
M  V30 51 1 19 47
M  V30 52 1 20 48
M  V30 53 1 23 49
M  V30 54 1 24 50
M  V30 55 1 28 51
M  V30 56 1 29 52
M  V30 57 1 29 53
M  V30 58 1 30 54
M  V30 59 1 31 55
M  V30 60 1 31 56
M  V30 61 1 32 57
M  V30 62 1 32 58
M  V30 63 1 33 59
M  V30 64 1 34 60
M  V30 END BOND
M  V30 END CTAB
M  END
>  <Dataset>  (72) 
ChEMBL_Kinases

>  <Ligand_Instance>  (72) 
nan

>  <PDB_ID>  (72) 
nan

>  <Standardized_SMILES>  (72) 
Cc1ccc(NC(=O)c2cccc(-c3ccoc3)c2)cc1-c1ccc(C(=O)NCC2CC2)cc1

>  <Name>  (72) 
nan

>  <Pocket>  (72) 
nan

>  <ATP_Site>  (72) 
nan

>  <Peripheral>  (72) 
nan

>  <Num_H_Atoms_ProtBoundConf>  (72) 
nan

>  <Num_Resolved_Atoms>  (72) 
nan

>  <Num_Not_Resolved_Atoms>  (72) 
nan

$$$$
CHEMBL4228346
     RDKit          3D

  0  0  0  0  0  0  0  0  0  0999 V3000
M  V30 BEGIN CTAB
M  V30 COUNTS 147 152 0 0 0
M  V30 BEGIN ATOM
M  V30 1 C 2.746907 7.243981 2.216062 0
M  V30 2 C 1.806102 6.098225 2.321814 0
M  V30 3 N 0.805803 6.263152 3.134154 0
M  V30 4 C -0.087876 5.324904 3.286860 0
M  V30 5 S 0.550138 4.002293 2.127583 0
M  V30 6 C 1.953089 4.917462 1.593827 0
M  V30 7 C 2.898975 4.459453 0.645337 0
M  V30 8 C 4.066456 5.003316 0.221510 0
M  V30 9 C 4.909374 4.473077 -0.751749 0
M  V30 10 C 4.565615 3.291091 -1.369026 0
M  V30 11 C 5.558549 2.875231 -2.387737 0
M  V30 12 N 6.584275 2.073099 -1.769426 0
M  V30 13 C 6.298283 0.725803 -1.491121 0
M  V30 14 O 5.223843 0.058760 -1.713029 0
M  V30 15 C 6.583227 -0.620596 -0.993101 0 CFG=2
M  V30 16 C 7.788760 -1.254075 -1.567282 0
M  V30 17 C 7.347444 -2.652255 -1.943641 0 CFG=1
M  V30 18 O 7.472674 -3.540709 -0.875964 0
M  V30 19 C 5.860002 -2.466935 -2.223701 0
M  V30 20 N 5.452783 -1.522510 -1.184992 0
M  V30 21 C 4.227513 -1.490059 -0.542673 0
M  V30 22 O 3.636105 -2.420753 -1.196302 0
M  V30 23 C 3.082473 -1.276171 0.246259 0 CFG=1
M  V30 24 N 1.903883 -1.933489 -0.247250 0
M  V30 25 C 0.819079 -2.805045 -0.242727 0
M  V30 26 O 0.713478 -3.541753 0.756220 0
M  V30 27 C -0.282378 -3.076134 -1.157234 0
M  V30 28 O -0.364398 -2.382353 -2.303741 0
M  V30 29 C 0.489149 -2.530373 -3.330855 0
M  V30 30 C 0.141736 -1.455160 -4.404527 0
M  V30 31 C 0.379088 -0.118784 -3.701236 0
M  V30 32 O 0.112070 0.942439 -4.525264 0
M  V30 33 C 0.439856 2.145886 -3.855959 0
M  V30 34 C 0.163094 3.294032 -4.833344 0
M  V30 35 C -1.308066 3.373846 -5.175841 0
M  V30 36 C -2.120633 3.783024 -3.954914 0
M  V30 37 O -3.483488 3.826561 -4.235060 0
M  V30 38 C -4.191048 4.424326 -3.206039 0
M  V30 39 C -4.020210 3.836946 -1.867903 0
M  V30 40 C -4.406688 2.435638 -1.631123 0
M  V30 41 O -5.765334 2.118036 -1.875836 0
M  V30 42 C -6.258174 0.842962 -1.610911 0
M  V30 43 C -5.368285 -0.046309 -1.112850 0
M  V30 44 C -5.895845 -1.327276 -0.843175 0
M  V30 45 C -7.212639 -1.798250 -1.022872 0
M  V30 46 N -7.532237 -3.194826 -0.668969 0
M  V30 47 C -6.299602 -3.843288 -0.948674 0
M  V30 48 N -6.096810 -4.162765 -2.238283 0
M  V30 49 C -4.955450 -4.805335 -2.578221 0
M  V30 50 C -4.107077 -5.064384 -1.528683 0
M  V30 51 C -4.262364 -4.760845 -0.195573 0
M  V30 52 N -3.297735 -5.085532 0.797126 0
M  V30 53 C -3.492686 -4.669691 2.194478 0
M  V30 54 C -3.537119 -3.171056 2.289958 0
M  V30 55 C -3.736388 -2.641535 3.681758 0
M  V30 56 N -2.740432 -3.008017 4.625678 0
M  V30 57 C -2.736904 -4.167850 5.491218 0
M  V30 58 C -1.626044 -2.137813 4.740814 0
M  V30 59 O -1.590912 -1.103143 4.000900 0
M  V30 60 C -0.498955 -2.379391 5.686943 0
M  V30 61 C 0.594799 -1.346884 5.608298 0
M  V30 62 C 0.602024 -1.322770 7.135296 0
M  V30 63 C -0.762832 -1.994685 7.102846 0
M  V30 64 N -5.432017 -4.121216 0.049877 0
M  V30 65 C -7.936907 -0.694970 -1.549871 0
M  V30 66 C -7.567360 0.585543 -1.858516 0
M  V30 67 C 3.231287 -1.765606 1.702374 0
M  V30 68 C 1.915775 -1.444181 2.371618 0
M  V30 69 C 3.547939 -3.204555 1.821137 0
M  V30 70 C 4.255373 -0.942808 2.439605 0
M  V30 71 C 3.397252 2.690389 -0.985772 0
M  V30 72 C 2.605979 3.257945 -0.019268 0
M  V30 73 H 2.419983 8.169171 2.745315 0
M  V30 74 H 2.823506 7.587908 1.143428 0
M  V30 75 H 3.702116 6.967880 2.673930 0
M  V30 76 H -0.970410 5.287327 3.909135 0
M  V30 77 H 4.362762 5.919968 0.691826 0
M  V30 78 H 5.807193 5.037777 -0.966218 0
M  V30 79 H 4.982924 2.242790 -3.131120 0
M  V30 80 H 5.978706 3.722842 -2.935713 0
M  V30 81 H 7.560079 2.041124 -1.398749 0
M  V30 82 H 6.728980 -0.605300 0.130403 0
M  V30 83 H 8.607126 -1.284323 -0.801948 0
M  V30 84 H 8.133181 -0.700706 -2.470648 0
M  V30 85 H 7.895580 -2.963526 -2.838140 0
M  V30 86 H 7.243251 -3.065645 -0.021602 0
M  V30 87 H 5.770187 -2.068550 -3.246553 0
M  V30 88 H 5.318234 -3.421409 -2.171584 0
M  V30 89 H 2.836970 -0.196470 0.417852 0
M  V30 90 H 1.868774 -1.414125 -1.186350 0
M  V30 91 H -0.368202 -4.185445 -1.348925 0
M  V30 92 H -1.256133 -2.869139 -0.592449 0
M  V30 93 H 0.315447 -3.511973 -3.889133 0
M  V30 94 H 1.564151 -2.508143 -3.173022 0
M  V30 95 H -0.938790 -1.545403 -4.570440 0
M  V30 96 H 0.771824 -1.535753 -5.283067 0
M  V30 97 H -0.318930 -0.106756 -2.841542 0
M  V30 98 H 1.444485 -0.102157 -3.383926 0
M  V30 99 H 1.504478 2.124212 -3.595303 0
M  V30 100 H -0.108229 2.265597 -2.909029 0
M  V30 101 H 0.727437 3.132747 -5.761983 0
M  V30 102 H 0.512844 4.255756 -4.398779 0
M  V30 103 H -1.655898 2.438558 -5.613409 0
M  V30 104 H -1.379794 4.165920 -5.964918 0
M  V30 105 H -1.927013 3.099606 -3.107458 0
M  V30 106 H -1.794415 4.789539 -3.625827 0
M  V30 107 H -5.271359 4.530971 -3.487495 0
M  V30 108 H -3.837774 5.507777 -3.212534 0
M  V30 109 H -4.527060 4.543174 -1.116333 0
M  V30 110 H -2.927566 4.003779 -1.583699 0
M  V30 111 H -4.247691 2.226382 -0.534985 0
M  V30 112 H -3.707784 1.763579 -2.161391 0
M  V30 113 H -4.349994 0.201263 -0.944606 0
M  V30 114 H -5.085262 -1.953956 -0.449393 0
M  V30 115 H -8.401272 -2.728273 -0.473589 0
M  V30 116 H -4.719965 -5.100179 -3.588746 0
M  V30 117 H -3.186137 -5.580397 -1.811188 0
M  V30 118 H -2.463032 -5.633738 0.446854 0
M  V30 119 H -4.477282 -5.107371 2.476673 0
M  V30 120 H -2.654268 -5.135920 2.758368 0
M  V30 121 H -4.335113 -2.758492 1.628831 0
M  V30 122 H -2.559641 -2.783822 1.901542 0
M  V30 123 H -3.886790 -1.523946 3.635823 0
M  V30 124 H -4.726796 -3.024343 4.030250 0
M  V30 125 H -3.672207 -4.746020 5.432395 0
M  V30 126 H -1.907161 -4.857296 5.205672 0
M  V30 127 H -2.648108 -3.877507 6.573247 0
M  V30 128 H -0.058053 -3.393192 5.588928 0
M  V30 129 H 0.284827 -0.389697 5.131602 0
M  V30 130 H 1.586198 -1.682803 5.259535 0
M  V30 131 H 1.377382 -1.995654 7.554089 0
M  V30 132 H 0.607120 -0.279761 7.548012 0
M  V30 133 H -1.551005 -1.252859 7.278749 0
M  V30 134 H -0.784125 -2.894245 7.763311 0
M  V30 135 H -8.983297 -0.993967 -1.721450 0
M  V30 136 H -8.308878 1.239627 -2.247799 0
M  V30 137 H 1.127025 -1.085462 1.656637 0
M  V30 138 H 1.490267 -2.261814 2.954461 0
M  V30 139 H 2.013099 -0.554167 3.080402 0
M  V30 140 H 4.534620 -3.305871 2.370037 0
M  V30 141 H 3.746882 -3.728434 0.852013 0
M  V30 142 H 2.840208 -3.762035 2.476451 0
M  V30 143 H 5.089855 -0.724749 1.784404 0
M  V30 144 H 4.497824 -1.336537 3.426599 0
M  V30 145 H 3.765795 0.066404 2.621925 0
M  V30 146 H 3.152950 1.791672 -1.480379 0
M  V30 147 H 1.704723 2.673006 0.193366 0
M  V30 END ATOM
M  V30 BEGIN BOND
M  V30 1 1 1 2
M  V30 2 1 2 3
M  V30 3 2 3 4
M  V30 4 1 4 5
M  V30 5 1 5 6
M  V30 6 1 6 7
M  V30 7 2 7 8
M  V30 8 1 8 9
M  V30 9 2 9 10
M  V30 10 1 10 11
M  V30 11 1 11 12
M  V30 12 1 12 13
M  V30 13 2 13 14
M  V30 14 1 13 15
M  V30 15 1 15 16
M  V30 16 1 16 17
M  V30 17 1 17 18
M  V30 18 1 17 19
M  V30 19 1 19 20
M  V30 20 1 20 21
M  V30 21 2 21 22
M  V30 22 1 21 23
M  V30 23 1 23 24
M  V30 24 1 24 25
M  V30 25 2 25 26
M  V30 26 1 25 27
M  V30 27 1 27 28
M  V30 28 1 28 29
M  V30 29 1 29 30
M  V30 30 1 30 31
M  V30 31 1 31 32
M  V30 32 1 32 33
M  V30 33 1 33 34
M  V30 34 1 34 35
M  V30 35 1 35 36
M  V30 36 1 36 37
M  V30 37 1 37 38
M  V30 38 1 38 39
M  V30 39 1 39 40
M  V30 40 1 40 41
M  V30 41 1 41 42
M  V30 42 2 42 43
M  V30 43 1 43 44
M  V30 44 2 44 45
M  V30 45 1 45 46
M  V30 46 1 46 47
M  V30 47 2 47 48
M  V30 48 1 48 49
M  V30 49 2 49 50
M  V30 50 1 50 51
M  V30 51 1 51 52
M  V30 52 1 52 53
M  V30 53 1 53 54
M  V30 54 1 54 55
M  V30 55 1 55 56
M  V30 56 1 56 57
M  V30 57 1 56 58
M  V30 58 2 58 59
M  V30 59 1 58 60
M  V30 60 1 60 61
M  V30 61 1 61 62
M  V30 62 1 62 63
M  V30 63 2 51 64
M  V30 64 1 45 65
M  V30 65 2 65 66
M  V30 66 1 23 67
M  V30 67 1 67 68
M  V30 68 1 67 69
M  V30 69 1 67 70
M  V30 70 1 10 71
M  V30 71 2 71 72
M  V30 72 2 6 2
M  V30 73 1 72 7
M  V30 74 1 20 15
M  V30 75 1 66 42
M  V30 76 1 64 47
M  V30 77 1 63 60
M  V30 78 1 1 73
M  V30 79 1 1 74
M  V30 80 1 1 75
M  V30 81 1 4 76
M  V30 82 1 8 77
M  V30 83 1 9 78
M  V30 84 1 11 79
M  V30 85 1 11 80
M  V30 86 1 12 81
M  V30 87 1 15 82 CFG=1
M  V30 88 1 16 83
M  V30 89 1 16 84
M  V30 90 1 17 85 CFG=3
M  V30 91 1 18 86
M  V30 92 1 19 87
M  V30 93 1 19 88
M  V30 94 1 23 89 CFG=1
M  V30 95 1 24 90
M  V30 96 1 27 91
M  V30 97 1 27 92
M  V30 98 1 29 93
M  V30 99 1 29 94
M  V30 100 1 30 95
M  V30 101 1 30 96
M  V30 102 1 31 97
M  V30 103 1 31 98
M  V30 104 1 33 99
M  V30 105 1 33 100
M  V30 106 1 34 101
M  V30 107 1 34 102
M  V30 108 1 35 103
M  V30 109 1 35 104
M  V30 110 1 36 105
M  V30 111 1 36 106
M  V30 112 1 38 107
M  V30 113 1 38 108
M  V30 114 1 39 109
M  V30 115 1 39 110
M  V30 116 1 40 111
M  V30 117 1 40 112
M  V30 118 1 43 113
M  V30 119 1 44 114
M  V30 120 1 46 115
M  V30 121 1 49 116
M  V30 122 1 50 117
M  V30 123 1 52 118
M  V30 124 1 53 119
M  V30 125 1 53 120
M  V30 126 1 54 121
M  V30 127 1 54 122
M  V30 128 1 55 123
M  V30 129 1 55 124
M  V30 130 1 57 125
M  V30 131 1 57 126
M  V30 132 1 57 127
M  V30 133 1 60 128
M  V30 134 1 61 129
M  V30 135 1 61 130
M  V30 136 1 62 131
M  V30 137 1 62 132
M  V30 138 1 63 133
M  V30 139 1 63 134
M  V30 140 1 65 135
M  V30 141 1 66 136
M  V30 142 1 68 137
M  V30 143 1 68 138
M  V30 144 1 68 139
M  V30 145 1 69 140
M  V30 146 1 69 141
M  V30 147 1 69 142
M  V30 148 1 70 143
M  V30 149 1 70 144
M  V30 150 1 70 145
M  V30 151 1 71 146
M  V30 152 1 72 147
M  V30 END BOND
M  V30 END CTAB
M  END
>  <Dataset>  (73) 
ChEMBL_Kinases

>  <Ligand_Instance>  (73) 
nan

>  <PDB_ID>  (73) 
nan

>  <Standardized_SMILES>  (73) 
Cc1ncsc1-c1ccc(CNC(=O)[C@@H]2C[C@@H](O)CN2C(=O)[C@@H](NC(=O)COCCCOCCCCOCCCOc2ccc(Nc3nccc(NCCCN(C)C(=O)C4CCC4)n3)cc2)C(C)(C)C)cc1

>  <Name>  (73) 
nan

>  <Pocket>  (73) 
nan

>  <ATP_Site>  (73) 
nan

>  <Peripheral>  (73) 
nan

>  <Num_H_Atoms_ProtBoundConf>  (73) 
nan

>  <Num_Resolved_Atoms>  (73) 
nan

>  <Num_Not_Resolved_Atoms>  (73) 
nan

$$$$
CHEMBL4228314
     RDKit          3D

  0  0  0  0  0  0  0  0  0  0999 V3000
M  V30 BEGIN CTAB
M  V30 COUNTS 70 73 0 0 0
M  V30 BEGIN ATOM
M  V30 1 C 3.699497 -1.530453 3.139227 0
M  V30 2 C 2.350295 -1.653039 3.725269 0
M  V30 3 C 1.406848 -0.737604 3.601602 0
M  V30 4 C 1.690644 0.479430 2.852153 0
M  V30 5 O 2.780556 0.734296 2.295654 0
M  V30 6 N 0.740768 1.522584 2.674899 0
M  V30 7 C 0.900971 2.746757 1.970470 0
M  V30 8 C 1.369254 3.930652 2.546259 0
M  V30 9 C 1.491832 5.087313 1.777531 0
M  V30 10 C 1.138407 5.027770 0.436347 0
M  V30 11 N 1.141157 5.955704 -0.560090 0
M  V30 12 N 0.708420 5.419734 -1.699764 0
M  V30 13 C 0.401715 4.126493 -1.514321 0
M  V30 14 C 0.668767 3.879461 -0.184013 0
M  V30 15 C 0.562059 2.743594 0.625908 0
M  V30 16 C 0.037231 -0.878815 4.136394 0
M  V30 17 C -0.977173 -1.005410 3.022097 0
M  V30 18 C -2.258933 -1.175831 3.557675 0
M  V30 19 C -3.340349 -1.322955 2.718669 0
M  V30 20 C -3.178830 -1.305077 1.347804 0
M  V30 21 F -4.203887 -1.443925 0.443325 0
M  V30 22 C -1.907100 -1.136232 0.844436 0
M  V30 23 C -1.657307 -1.106713 -0.615646 0
M  V30 24 C -1.709365 -2.463405 -1.216084 0
M  V30 25 O -1.936044 -2.640943 0.006773 0
M  V30 26 N -1.508925 -2.734967 -2.584900 0
M  V30 27 C -1.587793 -4.111788 -3.032443 0
M  V30 28 C -0.204573 -4.720955 -2.940913 0
M  V30 29 C 0.323460 -4.696381 -1.538180 0
M  V30 30 O 1.604347 -5.282184 -1.579626 0
M  V30 31 C -1.241261 -1.632109 -3.441005 0
M  V30 32 C -2.438183 -0.982194 -4.065474 0
M  V30 33 C -2.037606 0.187318 -4.962825 0
M  V30 34 O -1.361976 1.171373 -4.267553 0
M  V30 35 C -0.806380 -0.986655 1.655807 0
M  V30 36 N -0.131790 -1.994676 5.040583 0
M  V30 37 C 0.826912 -3.030608 5.215342 0
M  V30 38 O 0.604735 -4.036901 5.901667 0
M  V30 39 N 2.067978 -2.807384 4.529365 0
M  V30 40 H 4.195264 -0.620327 3.560059 0
M  V30 41 H 4.319715 -2.390707 3.392697 0
M  V30 42 H 3.656800 -1.410563 2.019697 0
M  V30 43 H -0.219312 1.443795 3.093794 0
M  V30 44 H 1.626469 3.905446 3.595893 0
M  V30 45 H 1.852547 6.002900 2.215760 0
M  V30 46 H 1.440861 6.948240 -0.449507 0
M  V30 47 H 0.021377 3.413921 -2.251240 0
M  V30 48 H 0.194514 1.843580 0.142730 0
M  V30 49 H -0.258909 0.049527 4.667515 0
M  V30 50 H -2.572635 -1.214357 4.591290 0
M  V30 51 H -4.382016 -1.461787 3.035924 0
M  V30 52 H -0.713572 -0.574895 -0.851586 0
M  V30 53 H -2.453336 -0.442001 -1.062013 0
M  V30 54 H -2.234974 -4.686616 -2.319265 0
M  V30 55 H -2.031690 -4.230349 -4.023334 0
M  V30 56 H -0.288842 -5.805569 -3.231337 0
M  V30 57 H 0.481978 -4.181553 -3.595031 0
M  V30 58 H -0.321676 -5.215607 -0.824500 0
M  V30 59 H 0.508612 -3.639548 -1.203353 0
M  V30 60 H 1.660773 -5.891873 -0.806644 0
M  V30 61 H -0.536706 -1.973433 -4.226538 0
M  V30 62 H -0.705197 -0.833551 -2.891359 0
M  V30 63 H -3.001741 -1.676607 -4.727823 0
M  V30 64 H -3.163631 -0.582093 -3.338393 0
M  V30 65 H -2.983778 0.630319 -5.339743 0
M  V30 66 H -1.464079 -0.206588 -5.819971 0
M  V30 67 H -0.401167 0.999795 -4.187220 0
M  V30 68 H 0.226897 -0.855338 1.370408 0
M  V30 69 H -1.005595 -2.037759 5.592044 0
M  V30 70 H 2.806442 -3.536003 4.627131 0
M  V30 END ATOM
M  V30 BEGIN BOND
M  V30 1 1 1 2
M  V30 2 2 2 3
M  V30 3 1 3 4
M  V30 4 2 4 5
M  V30 5 1 4 6
M  V30 6 1 6 7
M  V30 7 2 7 8
M  V30 8 1 8 9
M  V30 9 2 9 10
M  V30 10 1 10 11
M  V30 11 1 11 12
M  V30 12 2 12 13
M  V30 13 1 13 14
M  V30 14 2 14 15
M  V30 15 1 3 16
M  V30 16 1 16 17
M  V30 17 2 17 18
M  V30 18 1 18 19
M  V30 19 2 19 20
M  V30 20 1 20 21
M  V30 21 1 20 22
M  V30 22 1 22 23
M  V30 23 1 23 24
M  V30 24 2 24 25
M  V30 25 1 24 26
M  V30 26 1 26 27
M  V30 27 1 27 28
M  V30 28 1 28 29
M  V30 29 1 29 30
M  V30 30 1 26 31
M  V30 31 1 31 32
M  V30 32 1 32 33
M  V30 33 1 33 34
M  V30 34 2 22 35
M  V30 35 1 16 36
M  V30 36 1 36 37
M  V30 37 2 37 38
M  V30 38 1 37 39
M  V30 39 1 39 2
M  V30 40 1 15 7
M  V30 41 1 35 17
M  V30 42 1 14 10
M  V30 43 1 1 40
M  V30 44 1 1 41
M  V30 45 1 1 42
M  V30 46 1 6 43
M  V30 47 1 8 44
M  V30 48 1 9 45
M  V30 49 1 11 46
M  V30 50 1 13 47
M  V30 51 1 15 48
M  V30 52 1 16 49
M  V30 53 1 18 50
M  V30 54 1 19 51
M  V30 55 1 23 52
M  V30 56 1 23 53
M  V30 57 1 27 54
M  V30 58 1 27 55
M  V30 59 1 28 56
M  V30 60 1 28 57
M  V30 61 1 29 58
M  V30 62 1 29 59
M  V30 63 1 30 60
M  V30 64 1 31 61
M  V30 65 1 31 62
M  V30 66 1 32 63
M  V30 67 1 32 64
M  V30 68 1 33 65
M  V30 69 1 33 66
M  V30 70 1 34 67
M  V30 71 1 35 68
M  V30 72 1 36 69
M  V30 73 1 39 70
M  V30 END BOND
M  V30 END CTAB
M  END
>  <Dataset>  (74) 
ChEMBL_Kinases

>  <Ligand_Instance>  (74) 
nan

>  <PDB_ID>  (74) 
nan

>  <Standardized_SMILES>  (74) 
CC1=C(C(=O)Nc2ccc3[nH]ncc3c2)C(c2ccc(F)c(CC(=O)N(CCCO)CCCO)c2)NC(=O)N1

>  <Name>  (74) 
nan

>  <Pocket>  (74) 
nan

>  <ATP_Site>  (74) 
nan

>  <Peripheral>  (74) 
nan

>  <Num_H_Atoms_ProtBoundConf>  (74) 
nan

>  <Num_Resolved_Atoms>  (74) 
nan

>  <Num_Not_Resolved_Atoms>  (74) 
nan

$$$$
CHEMBL4228308
     RDKit          3D

  0  0  0  0  0  0  0  0  0  0999 V3000
M  V30 BEGIN CTAB
M  V30 COUNTS 47 51 0 0 0
M  V30 BEGIN ATOM
M  V30 1 C -0.538610 -3.764417 2.707366 0
M  V30 2 C 0.798533 -4.053092 2.131987 0
M  V30 3 C 1.182779 -5.295031 1.671029 0
M  V30 4 C 2.442767 -5.535680 1.136480 0
M  V30 5 C 3.376949 -4.498471 1.050075 0
M  V30 6 C 2.952813 -3.274595 1.521390 0
M  V30 7 C 3.818183 -2.057554 1.505502 0
M  V30 8 C 3.622830 -1.307827 0.211049 0
M  V30 9 C 2.696045 -0.315727 0.050142 0
M  V30 10 C 2.677549 0.217106 -1.175606 0
M  V30 11 N 1.821975 1.279004 -1.677805 0
M  V30 12 C 0.879610 1.829295 -0.749203 0
M  V30 13 N 1.172007 2.890312 0.023671 0
M  V30 14 C 0.219397 3.337480 0.872058 0
M  V30 15 C 0.518732 4.518523 1.744795 0
M  V30 16 C -0.992666 2.698846 0.910231 0
M  V30 17 N -1.324228 1.645822 0.163333 0
M  V30 18 C -2.447292 0.925080 0.088288 0
M  V30 19 C -3.713047 1.015164 0.782009 0
M  V30 20 C -4.282933 1.808033 1.742180 0
M  V30 21 N -5.539253 1.422116 2.022227 0
M  V30 22 N -5.844819 0.363489 1.259995 0
M  V30 23 C -4.755266 0.120956 0.520265 0
M  V30 24 C -2.127270 -0.020360 -0.882041 0
M  V30 25 N -0.876701 0.176926 -1.320015 0
M  V30 26 C -0.356568 1.228425 -0.666755 0
M  V30 27 S 3.862834 -0.566621 -2.125228 0
M  V30 28 N 4.473609 -1.727590 -0.810877 0
M  V30 29 N 1.719717 -3.099362 2.029207 0
M  V30 30 H -1.007725 -2.876875 2.203953 0
M  V30 31 H -1.234861 -4.608122 2.460330 0
M  V30 32 H -0.520228 -3.621484 3.805038 0
M  V30 33 H 0.479659 -6.117408 1.725463 0
M  V30 34 H 2.729564 -6.513143 0.779619 0
M  V30 35 H 4.371548 -4.605650 0.649221 0
M  V30 36 H 3.526052 -1.349352 2.312702 0
M  V30 37 H 4.872992 -2.319757 1.649936 0
M  V30 38 H 2.040800 0.007778 0.836519 0
M  V30 39 H 1.898972 1.611488 -2.656566 0
M  V30 40 H 0.822984 4.165185 2.765730 0
M  V30 41 H -0.384955 5.145500 1.887780 0
M  V30 42 H 1.331772 5.129104 1.348268 0
M  V30 43 H -1.687173 3.102072 1.595321 0
M  V30 44 H -3.804091 2.624869 2.211928 0
M  V30 45 H -6.760705 -0.129479 1.282103 0
M  V30 46 H -4.786918 -0.712010 -0.181256 0
M  V30 47 H -2.735278 -0.837238 -1.290243 0
M  V30 END ATOM
M  V30 BEGIN BOND
M  V30 1 1 1 2
M  V30 2 2 2 3
M  V30 3 1 3 4
M  V30 4 2 4 5
M  V30 5 1 5 6
M  V30 6 1 6 7
M  V30 7 1 7 8
M  V30 8 1 8 9
M  V30 9 2 9 10
M  V30 10 1 10 11
M  V30 11 1 11 12
M  V30 12 2 12 13
M  V30 13 1 13 14
M  V30 14 1 14 15
M  V30 15 2 14 16
M  V30 16 1 16 17
M  V30 17 1 17 18
M  V30 18 1 18 19
M  V30 19 1 19 20
M  V30 20 2 20 21
M  V30 21 1 21 22
M  V30 22 1 22 23
M  V30 23 2 18 24
M  V30 24 1 24 25
M  V30 25 2 25 26
M  V30 26 1 10 27
M  V30 27 1 27 28
M  V30 28 2 6 29
M  V30 29 1 29 2
M  V30 30 2 28 8
M  V30 31 1 26 12
M  V30 32 1 26 17
M  V30 33 2 23 19
M  V30 34 1 1 30
M  V30 35 1 1 31
M  V30 36 1 1 32
M  V30 37 1 3 33
M  V30 38 1 4 34
M  V30 39 1 5 35
M  V30 40 1 7 36
M  V30 41 1 7 37
M  V30 42 1 9 38
M  V30 43 1 11 39
M  V30 44 1 15 40
M  V30 45 1 15 41
M  V30 46 1 15 42
M  V30 47 1 16 43
M  V30 48 1 20 44
M  V30 49 1 22 45
M  V30 50 1 23 46
M  V30 51 1 24 47
M  V30 END BOND
M  V30 END CTAB
M  END
>  <Dataset>  (75) 
ChEMBL_Kinases

>  <Ligand_Instance>  (75) 
nan

>  <PDB_ID>  (75) 
nan

>  <Standardized_SMILES>  (75) 
Cc1cccc(Cc2cc(Nc3nc(C)cn4c(-c5cn[nH]c5)cnc34)sn2)n1

>  <Name>  (75) 
nan

>  <Pocket>  (75) 
nan

>  <ATP_Site>  (75) 
nan

>  <Peripheral>  (75) 
nan

>  <Num_H_Atoms_ProtBoundConf>  (75) 
nan

>  <Num_Resolved_Atoms>  (75) 
nan

>  <Num_Not_Resolved_Atoms>  (75) 
nan

$$$$
CHEMBL4228586
     RDKit          3D

  0  0  0  0  0  0  0  0  0  0999 V3000
M  V30 BEGIN CTAB
M  V30 COUNTS 43 47 0 0 0
M  V30 BEGIN ATOM
M  V30 1 C -1.369702 -3.530073 -1.034097 0
M  V30 2 C -0.128928 -2.803212 -0.631958 0
M  V30 3 C 1.088590 -3.029188 -1.224711 0
M  V30 4 N 2.226275 -2.410784 -0.906602 0
M  V30 5 C 3.457924 -2.545376 -1.407437 0
M  V30 6 C 4.039016 -3.368203 -2.441886 0
M  V30 7 C 5.399854 -3.293274 -2.760161 0
M  V30 8 N 5.706900 -4.151300 -3.751661 0
M  V30 9 N 4.613919 -4.798489 -4.113067 0
M  V30 10 C 3.631290 -4.326750 -3.330507 0
M  V30 11 C 4.198416 -1.639444 -0.671226 0
M  V30 12 N 3.379915 -1.023633 0.214898 0
M  V30 13 C 2.151425 -1.497141 0.075614 0
M  V30 14 C 0.968981 -1.211946 0.720384 0
M  V30 15 N 0.944209 -0.235922 1.753470 0
M  V30 16 C -0.264930 0.082229 2.441199 0
M  V30 17 C -0.419288 0.985438 3.435320 0
M  V30 18 C -1.692916 1.056378 3.882283 0
M  V30 19 C -2.185749 1.970178 4.977675 0
M  V30 20 N -2.634058 3.182342 4.336500 0
M  V30 21 C -1.894558 4.278044 4.074977 0
M  V30 22 C -2.654840 5.253100 3.448161 0
M  V30 23 C -3.915549 4.700506 3.333392 0
M  V30 24 C -3.881298 3.425849 3.886173 0
M  V30 25 N -2.785935 0.229046 3.332609 0
M  V30 26 S -1.794832 -0.695524 2.071369 0
M  V30 27 N -0.146567 -1.865964 0.358382 0
M  V30 28 H -1.226947 -3.971574 -2.024813 0
M  V30 29 H -1.479591 -4.342250 -0.262655 0
M  V30 30 H -2.256769 -2.899150 -0.911985 0
M  V30 31 H 1.093561 -3.764726 -1.999319 0
M  V30 32 H 6.209131 -2.698511 -2.371084 0
M  V30 33 H 4.521567 -5.527102 -4.852007 0
M  V30 34 H 2.628156 -4.677869 -3.406909 0
M  V30 35 H 5.247177 -1.347993 -0.670869 0
M  V30 36 H 1.821729 0.260434 2.018720 0
M  V30 37 H 0.348476 1.600343 3.856559 0
M  V30 38 H -3.024348 1.527200 5.536723 0
M  V30 39 H -1.304809 2.149312 5.637545 0
M  V30 40 H -0.848516 4.338561 4.339829 0
M  V30 41 H -2.302769 6.239526 3.125564 0
M  V30 42 H -4.740904 5.240454 2.873936 0
M  V30 43 H -4.747740 2.757076 3.930463 0
M  V30 END ATOM
M  V30 BEGIN BOND
M  V30 1 1 1 2
M  V30 2 2 2 3
M  V30 3 1 3 4
M  V30 4 1 4 5
M  V30 5 1 5 6
M  V30 6 1 6 7
M  V30 7 2 7 8
M  V30 8 1 8 9
M  V30 9 1 9 10
M  V30 10 2 5 11
M  V30 11 1 11 12
M  V30 12 2 12 13
M  V30 13 1 13 14
M  V30 14 1 14 15
M  V30 15 1 15 16
M  V30 16 2 16 17
M  V30 17 1 17 18
M  V30 18 1 18 19
M  V30 19 1 19 20
M  V30 20 1 20 21
M  V30 21 2 21 22
M  V30 22 1 22 23
M  V30 23 2 23 24
M  V30 24 2 18 25
M  V30 25 1 25 26
M  V30 26 2 14 27
M  V30 27 1 27 2
M  V30 28 1 13 4
M  V30 29 1 26 16
M  V30 30 2 10 6
M  V30 31 1 24 20
M  V30 32 1 1 28
M  V30 33 1 1 29
M  V30 34 1 1 30
M  V30 35 1 3 31
M  V30 36 1 7 32
M  V30 37 1 9 33
M  V30 38 1 10 34
M  V30 39 1 11 35
M  V30 40 1 15 36
M  V30 41 1 17 37
M  V30 42 1 19 38
M  V30 43 1 19 39
M  V30 44 1 21 40
M  V30 45 1 22 41
M  V30 46 1 23 42
M  V30 47 1 24 43
M  V30 END BOND
M  V30 END CTAB
M  END
>  <Dataset>  (76) 
ChEMBL_Kinases

>  <Ligand_Instance>  (76) 
nan

>  <PDB_ID>  (76) 
nan

>  <Standardized_SMILES>  (76) 
Cc1cn2c(-c3cn[nH]c3)cnc2c(Nc2cc(Cn3cccc3)ns2)n1

>  <Name>  (76) 
nan

>  <Pocket>  (76) 
nan

>  <ATP_Site>  (76) 
nan

>  <Peripheral>  (76) 
nan

>  <Num_H_Atoms_ProtBoundConf>  (76) 
nan

>  <Num_Resolved_Atoms>  (76) 
nan

>  <Num_Not_Resolved_Atoms>  (76) 
nan

$$$$
CHEMBL4226657
     RDKit          3D

  0  0  0  0  0  0  0  0  0  0999 V3000
M  V30 BEGIN CTAB
M  V30 COUNTS 47 51 0 0 0
M  V30 BEGIN ATOM
M  V30 1 C -1.116316 -3.054324 3.670632 0
M  V30 2 C 0.211743 -3.686355 3.353012 0
M  V30 3 C 0.498643 -5.040241 3.349794 0
M  V30 4 C 1.790232 -5.418473 3.028521 0
M  V30 5 N 2.744301 -4.546765 2.729440 0
M  V30 6 C 2.541560 -3.204554 2.711064 0
M  V30 7 C 3.574233 -2.178458 2.383609 0
M  V30 8 C 3.588200 -1.885765 0.903054 0
M  V30 9 C 2.829950 -0.909303 0.296306 0
M  V30 10 C 2.974980 -0.805387 -1.003597 0
M  V30 11 N 2.292710 0.142817 -1.905974 0
M  V30 12 C 1.368722 1.058516 -1.327501 0
M  V30 13 N 1.719859 2.306545 -0.895846 0
M  V30 14 C 0.770007 3.121021 -0.351013 0
M  V30 15 C 1.182705 4.470915 0.108141 0
M  V30 16 C -0.505856 2.608196 -0.275840 0
M  V30 17 N -0.913524 1.413520 -0.672993 0
M  V30 18 C -2.106859 0.811741 -0.651472 0
M  V30 19 C -3.402232 1.252956 -0.180565 0
M  V30 20 C -3.951384 2.367716 0.396574 0
M  V30 21 N -5.256401 2.208516 0.626608 0
M  V30 22 N -5.639918 0.999627 0.221752 0
M  V30 23 C -4.531053 0.429607 -0.260432 0
M  V30 24 C -1.845229 -0.429195 -1.216154 0
M  V30 25 N -0.546870 -0.503136 -1.536855 0
M  V30 26 C 0.061200 0.646294 -1.204067 0
M  V30 27 S 4.105051 -1.967450 -1.526597 0
M  V30 28 N 4.421798 -2.674137 0.182004 0
M  V30 29 C 1.233460 -2.826919 3.036748 0
M  V30 30 H -0.916950 -2.183244 4.347628 0
M  V30 31 H -1.586929 -2.777662 2.718466 0
M  V30 32 H -1.778649 -3.755183 4.194703 0
M  V30 33 H -0.337458 -5.682576 3.605268 0
M  V30 34 H 1.981374 -6.484691 3.035214 0
M  V30 35 H 3.223501 -1.240219 2.906300 0
M  V30 36 H 4.564826 -2.391767 2.771968 0
M  V30 37 H 2.162922 -0.275482 0.858975 0
M  V30 38 H 2.504505 0.115081 -2.927301 0
M  V30 39 H 0.406832 4.980193 0.680810 0
M  V30 40 H 1.432410 5.046357 -0.812953 0
M  V30 41 H 2.115890 4.406051 0.705713 0
M  V30 42 H -1.203158 3.288493 0.157571 0
M  V30 43 H -3.404169 3.252599 0.632701 0
M  V30 44 H -6.610544 0.644761 0.296675 0
M  V30 45 H -4.619708 -0.588542 -0.654282 0
M  V30 46 H -2.503926 -1.259618 -1.407446 0
M  V30 47 H 1.065604 -1.746344 3.023229 0
M  V30 END ATOM
M  V30 BEGIN BOND
M  V30 1 1 1 2
M  V30 2 2 2 3
M  V30 3 1 3 4
M  V30 4 2 4 5
M  V30 5 1 5 6
M  V30 6 1 6 7
M  V30 7 1 7 8
M  V30 8 1 8 9
M  V30 9 2 9 10
M  V30 10 1 10 11
M  V30 11 1 11 12
M  V30 12 2 12 13
M  V30 13 1 13 14
M  V30 14 1 14 15
M  V30 15 2 14 16
M  V30 16 1 16 17
M  V30 17 1 17 18
M  V30 18 1 18 19
M  V30 19 1 19 20
M  V30 20 2 20 21
M  V30 21 1 21 22
M  V30 22 1 22 23
M  V30 23 2 18 24
M  V30 24 1 24 25
M  V30 25 2 25 26
M  V30 26 1 10 27
M  V30 27 1 27 28
M  V30 28 2 6 29
M  V30 29 1 29 2
M  V30 30 2 28 8
M  V30 31 1 26 12
M  V30 32 1 26 17
M  V30 33 2 23 19
M  V30 34 1 1 30
M  V30 35 1 1 31
M  V30 36 1 1 32
M  V30 37 1 3 33
M  V30 38 1 4 34
M  V30 39 1 7 35
M  V30 40 1 7 36
M  V30 41 1 9 37
M  V30 42 1 11 38
M  V30 43 1 15 39
M  V30 44 1 15 40
M  V30 45 1 15 41
M  V30 46 1 16 42
M  V30 47 1 20 43
M  V30 48 1 22 44
M  V30 49 1 23 45
M  V30 50 1 24 46
M  V30 51 1 29 47
M  V30 END BOND
M  V30 END CTAB
M  END
>  <Dataset>  (77) 
ChEMBL_Kinases

>  <Ligand_Instance>  (77) 
nan

>  <PDB_ID>  (77) 
nan

>  <Standardized_SMILES>  (77) 
Cc1ccnc(Cc2cc(Nc3nc(C)cn4c(-c5cn[nH]c5)cnc34)sn2)c1

>  <Name>  (77) 
nan

>  <Pocket>  (77) 
nan

>  <ATP_Site>  (77) 
nan

>  <Peripheral>  (77) 
nan

>  <Num_H_Atoms_ProtBoundConf>  (77) 
nan

>  <Num_Resolved_Atoms>  (77) 
nan

>  <Num_Not_Resolved_Atoms>  (77) 
nan

$$$$
CHEMBL4226591
     RDKit          3D

  0  0  0  0  0  0  0  0  0  0999 V3000
M  V30 BEGIN CTAB
M  V30 COUNTS 150 155 0 0 0
M  V30 BEGIN ATOM
M  V30 1 C 6.177958 1.505551 2.489059 0
M  V30 2 C 7.151299 1.580098 1.372337 0
M  V30 3 N 8.389647 1.121975 1.470065 0
M  V30 4 C 9.231967 1.155565 0.630198 0
M  V30 5 S 8.327416 2.007682 -0.800430 0
M  V30 6 C 6.790340 2.162922 0.161433 0
M  V30 7 C 5.627004 2.795186 -0.422631 0
M  V30 8 C 5.788843 3.369651 -1.666834 0
M  V30 9 C 4.722372 3.994943 -2.316714 0
M  V30 10 C 3.477320 4.045208 -1.716589 0
M  V30 11 C 2.268119 4.687437 -2.337524 0
M  V30 12 N 1.575470 3.729922 -3.142380 0
M  V30 13 C 1.780468 3.214756 -4.428261 0
M  V30 14 O 2.781839 3.683363 -5.066039 0
M  V30 15 C 0.997508 2.194938 -5.160032 0 CFG=2
M  V30 16 C 0.022699 2.866727 -6.111391 0
M  V30 17 C -1.348523 2.596595 -5.609810 0 CFG=1
M  V30 18 O -2.303814 2.484499 -6.591714 0
M  V30 19 C -1.206156 1.306854 -4.806855 0
M  V30 20 N 0.166211 1.382178 -4.287417 0
M  V30 21 C 0.366787 0.662199 -3.067339 0
M  V30 22 O -0.816659 0.249727 -3.005628 0
M  V30 23 C 1.457961 0.412084 -2.127404 0 CFG=1
M  V30 24 N 0.966577 -0.245203 -0.918882 0
M  V30 25 C 0.203060 0.447151 0.089478 0
M  V30 26 O 0.091712 1.615081 -0.441012 0
M  V30 27 C -0.177042 -0.327095 1.306903 0
M  V30 28 O -0.869453 0.257750 2.224845 0
M  V30 29 C -0.855822 1.340871 2.938692 0
M  V30 30 C -0.929204 2.673966 2.176673 0
M  V30 31 C -1.093597 3.843531 3.119287 0
M  V30 32 O -2.297510 3.709781 3.871807 0
M  V30 33 C -2.420325 4.845672 4.610919 0
M  V30 34 C -3.615469 4.963837 5.463728 0
M  V30 35 C -3.880342 4.052486 6.566274 0
M  V30 36 C -4.188821 2.646686 6.515259 0
M  V30 37 O -3.314300 1.783747 5.897950 0
M  V30 38 C -3.613622 0.486568 6.369357 0
M  V30 39 C -2.869870 -0.630662 5.823226 0
M  V30 40 C -3.119681 -1.116192 4.438860 0
M  V30 41 O -4.463863 -1.656424 4.347571 0
M  V30 42 C -4.796145 -2.250162 3.140370 0
M  V30 43 C -4.056112 -2.401430 1.997843 0
M  V30 44 C -4.565000 -3.041848 0.892372 0
M  V30 45 C -5.846824 -3.540328 0.941587 0
M  V30 46 N -6.346555 -4.220870 -0.180702 0
M  V30 47 C -5.718693 -4.264409 -1.455893 0
M  V30 48 N -6.482991 -3.526503 -2.274609 0
M  V30 49 C -6.202572 -3.322707 -3.570084 0
M  V30 50 C -5.067910 -3.923110 -4.014533 0
M  V30 51 C -4.601952 -3.813272 -5.414237 0
M  V30 52 F -5.522825 -3.022598 -6.121856 0
M  V30 53 F -4.620326 -5.055270 -5.975764 0
M  V30 54 F -3.398184 -3.145971 -5.541590 0
M  V30 55 C -4.249915 -4.684054 -3.230121 0
M  V30 56 N -3.034229 -5.361390 -3.476710 0
M  V30 57 C -1.932869 -6.160928 -3.142976 0
M  V30 58 C -1.198932 -5.625362 -1.911484 0
M  V30 59 C -0.000313 -6.543050 -1.643416 0
M  V30 60 N 0.672273 -6.048832 -0.468479 0
M  V30 61 C 0.136566 -6.668250 0.758035 0
M  V30 62 C 1.737393 -5.076763 -0.373886 0
M  V30 63 O 1.545984 -5.104863 -1.614365 0
M  V30 64 C 2.246250 -4.772377 0.990427 0
M  V30 65 C 3.386329 -3.754622 0.849479 0
M  V30 66 C 4.321588 -4.971043 0.802420 0
M  V30 67 C 3.261358 -5.718195 1.554202 0
M  V30 68 N -4.573155 -4.872810 -1.900713 0
M  V30 69 C -6.623259 -3.404695 2.070003 0
M  V30 70 C -6.079887 -2.748162 3.180135 0
M  V30 71 C 2.656916 -0.302790 -2.608468 0
M  V30 72 C 2.204856 -1.670389 -3.113084 0
M  V30 73 C 3.538457 0.407606 -3.577109 0
M  V30 74 C 3.561580 -0.589740 -1.389486 0
M  V30 75 C 3.299093 3.485361 -0.492119 0
M  V30 76 C 4.376285 2.881003 0.112571 0
M  V30 77 H 5.356974 0.811474 2.329901 0
M  V30 78 H 5.860924 2.566522 2.691535 0
M  V30 79 H 6.655256 1.190593 3.451101 0
M  V30 80 H 10.261218 0.801707 0.646714 0
M  V30 81 H 6.705768 3.414618 -2.271098 0
M  V30 82 H 4.808930 4.448028 -3.272855 0
M  V30 83 H 2.616168 5.556605 -2.962145 0
M  V30 84 H 1.638635 5.062137 -1.534477 0
M  V30 85 H 0.704091 3.293724 -2.713476 0
M  V30 86 H 1.688793 1.571851 -5.772182 0
M  V30 87 H 0.136831 2.511158 -7.162505 0
M  V30 88 H 0.272346 3.967788 -6.107437 0
M  V30 89 H -1.656376 3.444640 -4.960073 0
M  V30 90 H -3.153687 2.179459 -6.189584 0
M  V30 91 H -1.392662 0.412249 -5.403439 0
M  V30 92 H -1.950153 1.407094 -3.985656 0
M  V30 93 H 1.791702 1.430491 -1.730081 0
M  V30 94 H 1.195568 -1.287190 -0.815655 0
M  V30 95 H 0.778582 -0.769500 1.740448 0
M  V30 96 H -0.730407 -1.261011 0.945084 0
M  V30 97 H -1.698451 1.399016 3.687436 0
M  V30 98 H 0.118567 1.381099 3.547396 0
M  V30 99 H -1.678158 2.650236 1.386923 0
M  V30 100 H 0.135923 2.804755 1.800241 0
M  V30 101 H -1.231060 4.746250 2.498752 0
M  V30 102 H -0.213354 3.862275 3.758612 0
M  V30 103 H -2.433749 5.725985 3.888261 0
M  V30 104 H -1.507282 5.002032 5.280561 0
M  V30 105 H -4.566190 4.937286 4.799893 0
M  V30 106 H -3.718238 6.054604 5.848185 0
M  V30 107 H -4.759487 4.529836 7.181978 0
M  V30 108 H -3.063425 4.187861 7.393481 0
M  V30 109 H -4.439296 2.273684 7.561244 0
M  V30 110 H -5.190991 2.452232 5.971570 0
M  V30 111 H -3.390864 0.558722 7.478444 0
M  V30 112 H -4.728262 0.343154 6.329053 0
M  V30 113 H -1.754484 -0.336579 5.821937 0
M  V30 114 H -2.852831 -1.488141 6.559497 0
M  V30 115 H -3.130471 -0.294979 3.723054 0
M  V30 116 H -2.440759 -1.945050 4.181057 0
M  V30 117 H -3.071221 -1.981505 2.048998 0
M  V30 118 H -3.947099 -3.140764 0.017643 0
M  V30 119 H -7.259807 -4.760023 -0.101420 0
M  V30 120 H -6.717211 -2.768332 -4.330632 0
M  V30 121 H -2.883725 -5.116822 -4.501373 0
M  V30 122 H -1.166925 -6.172686 -3.940315 0
M  V30 123 H -2.300458 -7.190856 -2.912330 0
M  V30 124 H -1.902026 -5.635322 -1.069965 0
M  V30 125 H -0.905885 -4.588399 -2.115433 0
M  V30 126 H 0.663469 -6.500472 -2.556443 0
M  V30 127 H -0.337324 -7.581599 -1.547589 0
M  V30 128 H -0.903019 -6.285637 0.845425 0
M  V30 129 H 0.056472 -7.767607 0.590878 0
M  V30 130 H 0.732021 -6.407611 1.639808 0
M  V30 131 H 1.439884 -4.432976 1.641850 0
M  V30 132 H 3.515585 -3.156311 1.773558 0
M  V30 133 H 3.437808 -3.245856 -0.109207 0
M  V30 134 H 5.245675 -4.704923 1.382684 0
M  V30 135 H 4.497127 -5.344917 -0.229375 0
M  V30 136 H 3.382898 -5.524512 2.637178 0
M  V30 137 H 3.153611 -6.791283 1.316993 0
M  V30 138 H -7.631291 -3.823552 2.023044 0
M  V30 139 H -6.775774 -2.695663 4.000921 0
M  V30 140 H 1.161713 -1.598326 -3.521990 0
M  V30 141 H 2.168479 -2.346107 -2.259175 0
M  V30 142 H 2.903877 -2.078321 -3.861476 0
M  V30 143 H 4.562352 -0.084529 -3.478573 0
M  V30 144 H 3.254802 0.321037 -4.618936 0
M  V30 145 H 3.665472 1.440501 -3.238925 0
M  V30 146 H 3.032881 -0.574464 -0.446292 0
M  V30 147 H 4.106163 -1.513803 -1.573656 0
M  V30 148 H 4.313301 0.250716 -1.326415 0
M  V30 149 H 2.326407 3.510931 0.003018 0
M  V30 150 H 4.216507 2.436546 1.066403 0
M  V30 END ATOM
M  V30 BEGIN BOND
M  V30 1 1 1 2
M  V30 2 1 2 3
M  V30 3 2 3 4
M  V30 4 1 4 5
M  V30 5 1 5 6
M  V30 6 1 6 7
M  V30 7 2 7 8
M  V30 8 1 8 9
M  V30 9 2 9 10
M  V30 10 1 10 11
M  V30 11 1 11 12
M  V30 12 1 12 13
M  V30 13 2 13 14
M  V30 14 1 13 15
M  V30 15 1 15 16
M  V30 16 1 16 17
M  V30 17 1 17 18
M  V30 18 1 17 19
M  V30 19 1 19 20
M  V30 20 1 20 21
M  V30 21 2 21 22
M  V30 22 1 21 23
M  V30 23 1 23 24
M  V30 24 1 24 25
M  V30 25 2 25 26
M  V30 26 1 25 27
M  V30 27 1 27 28
M  V30 28 1 28 29
M  V30 29 1 29 30
M  V30 30 1 30 31
M  V30 31 1 31 32
M  V30 32 1 32 33
M  V30 33 1 33 34
M  V30 34 1 34 35
M  V30 35 1 35 36
M  V30 36 1 36 37
M  V30 37 1 37 38
M  V30 38 1 38 39
M  V30 39 1 39 40
M  V30 40 1 40 41
M  V30 41 1 41 42
M  V30 42 2 42 43
M  V30 43 1 43 44
M  V30 44 2 44 45
M  V30 45 1 45 46
M  V30 46 1 46 47
M  V30 47 2 47 48
M  V30 48 1 48 49
M  V30 49 2 49 50
M  V30 50 1 50 51
M  V30 51 1 51 52
M  V30 52 1 51 53
M  V30 53 1 51 54
M  V30 54 1 50 55
M  V30 55 1 55 56
M  V30 56 1 56 57
M  V30 57 1 57 58
M  V30 58 1 58 59
M  V30 59 1 59 60
M  V30 60 1 60 61
M  V30 61 1 60 62
M  V30 62 2 62 63
M  V30 63 1 62 64
M  V30 64 1 64 65
M  V30 65 1 65 66
M  V30 66 1 66 67
M  V30 67 2 55 68
M  V30 68 1 45 69
M  V30 69 2 69 70
M  V30 70 1 23 71
M  V30 71 1 71 72
M  V30 72 1 71 73
M  V30 73 1 71 74
M  V30 74 1 10 75
M  V30 75 2 75 76
M  V30 76 2 6 2
M  V30 77 1 76 7
M  V30 78 1 20 15
M  V30 79 1 70 42
M  V30 80 1 68 47
M  V30 81 1 67 64
M  V30 82 1 1 77
M  V30 83 1 1 78
M  V30 84 1 1 79
M  V30 85 1 4 80
M  V30 86 1 8 81
M  V30 87 1 9 82
M  V30 88 1 11 83
M  V30 89 1 11 84
M  V30 90 1 12 85
M  V30 91 1 15 86 CFG=3
M  V30 92 1 16 87
M  V30 93 1 16 88
M  V30 94 1 17 89 CFG=1
M  V30 95 1 18 90
M  V30 96 1 19 91
M  V30 97 1 19 92
M  V30 98 1 23 93 CFG=1
M  V30 99 1 24 94
M  V30 100 1 27 95
M  V30 101 1 27 96
M  V30 102 1 29 97
M  V30 103 1 29 98
M  V30 104 1 30 99
M  V30 105 1 30 100
M  V30 106 1 31 101
M  V30 107 1 31 102
M  V30 108 1 33 103
M  V30 109 1 33 104
M  V30 110 1 34 105
M  V30 111 1 34 106
M  V30 112 1 35 107
M  V30 113 1 35 108
M  V30 114 1 36 109
M  V30 115 1 36 110
M  V30 116 1 38 111
M  V30 117 1 38 112
M  V30 118 1 39 113
M  V30 119 1 39 114
M  V30 120 1 40 115
M  V30 121 1 40 116
M  V30 122 1 43 117
M  V30 123 1 44 118
M  V30 124 1 46 119
M  V30 125 1 49 120
M  V30 126 1 56 121
M  V30 127 1 57 122
M  V30 128 1 57 123
M  V30 129 1 58 124
M  V30 130 1 58 125
M  V30 131 1 59 126
M  V30 132 1 59 127
M  V30 133 1 61 128
M  V30 134 1 61 129
M  V30 135 1 61 130
M  V30 136 1 64 131
M  V30 137 1 65 132
M  V30 138 1 65 133
M  V30 139 1 66 134
M  V30 140 1 66 135
M  V30 141 1 67 136
M  V30 142 1 67 137
M  V30 143 1 69 138
M  V30 144 1 70 139
M  V30 145 1 72 140
M  V30 146 1 72 141
M  V30 147 1 72 142
M  V30 148 1 73 143
M  V30 149 1 73 144
M  V30 150 1 73 145
M  V30 151 1 74 146
M  V30 152 1 74 147
M  V30 153 1 74 148
M  V30 154 1 75 149
M  V30 155 1 76 150
M  V30 END BOND
M  V30 END CTAB
M  END
>  <Dataset>  (78) 
ChEMBL_Kinases

>  <Ligand_Instance>  (78) 
nan

>  <PDB_ID>  (78) 
nan

>  <Standardized_SMILES>  (78) 
Cc1ncsc1-c1ccc(CNC(=O)[C@@H]2C[C@@H](O)CN2C(=O)[C@@H](NC(=O)COCCCOCCCCOCCCOc2ccc(Nc3ncc(C(F)(F)F)c(NCCCN(C)C(=O)C4CCC4)n3)cc2)C(C)(C)C)cc1

>  <Name>  (78) 
nan

>  <Pocket>  (78) 
nan

>  <ATP_Site>  (78) 
nan

>  <Peripheral>  (78) 
nan

>  <Num_H_Atoms_ProtBoundConf>  (78) 
nan

>  <Num_Resolved_Atoms>  (78) 
nan

>  <Num_Not_Resolved_Atoms>  (78) 
nan

$$$$
CHEMBL4226563
     RDKit          3D

  0  0  0  0  0  0  0  0  0  0999 V3000
M  V30 BEGIN CTAB
M  V30 COUNTS 53 57 0 0 0
M  V30 BEGIN ATOM
M  V30 1 C 6.834709 -2.174847 3.804995 0
M  V30 2 C 5.742666 -1.153105 3.836153 0
M  V30 3 C 5.594613 -0.294724 4.907708 0
M  V30 4 C 4.567299 0.630245 4.882558 0
M  V30 5 C 3.695443 0.708385 3.813125 0
M  V30 6 C 3.831565 -0.144792 2.733108 0
M  V30 7 C 2.980365 -0.165427 1.544189 0
M  V30 8 O 3.118470 -0.953337 0.570987 0
M  V30 9 N 1.891608 0.737530 1.392967 0
M  V30 10 C 1.202897 0.537274 0.160573 0
M  V30 11 C 0.162432 -0.365785 0.220582 0
M  V30 12 C -0.565229 -0.631334 -0.907058 0
M  V30 13 C -1.699820 -1.513631 -1.153303 0
M  V30 14 C -2.992042 -1.498894 -0.675919 0
M  V30 15 C -3.516160 -0.508601 0.250341 0
M  V30 16 C -3.193305 -0.235782 1.563500 0
M  V30 17 C -3.844474 0.773637 2.230973 0
M  V30 18 C -4.823868 1.544829 1.647001 0
M  V30 19 F -5.355746 2.492841 2.455215 0
M  V30 20 C -5.146961 1.276735 0.343485 0
M  V30 21 C -6.212377 2.135871 -0.250391 0
M  V30 22 C -4.510069 0.271129 -0.348417 0
M  V30 23 N -3.699915 -2.523875 -1.182013 0
M  V30 24 C -2.872306 -3.194505 -1.979103 0
M  V30 25 C -3.072473 -4.333758 -2.753304 0
M  V30 26 C -2.015460 -4.838276 -3.509587 0
M  V30 27 C -0.794428 -4.193963 -3.471630 0
M  V30 28 N -0.634547 -3.084094 -2.704758 0
M  V30 29 N -1.652396 -2.599889 -1.977636 0
M  V30 30 C -0.228989 0.026639 -2.097109 0
M  V30 31 C 0.832139 0.939453 -2.132270 0
M  V30 32 N 1.514279 1.161784 -0.989811 0
M  V30 33 C 4.872211 -1.074413 2.769480 0
M  V30 34 H 7.194354 -2.372798 4.822808 0
M  V30 35 H 7.661259 -1.786868 3.146896 0
M  V30 36 H 6.492021 -3.109007 3.310984 0
M  V30 37 H 6.267973 -0.335273 5.763016 0
M  V30 38 H 4.385106 1.338564 5.684770 0
M  V30 39 H 2.887524 1.417069 3.765697 0
M  V30 40 H 1.666075 1.446225 2.130145 0
M  V30 41 H -0.198469 -0.937717 1.061935 0
M  V30 42 H -2.423050 -0.888106 1.931128 0
M  V30 43 H -3.492449 0.877848 3.252327 0
M  V30 44 H -5.993341 2.226578 -1.350249 0
M  V30 45 H -6.242299 3.129162 0.239799 0
M  V30 46 H -7.165560 1.568282 -0.165539 0
M  V30 47 H -4.868017 0.175561 -1.364263 0
M  V30 48 H -3.989070 -4.870575 -2.821211 0
M  V30 49 H -2.097792 -5.713432 -4.130114 0
M  V30 50 H 0.035527 -4.586473 -4.062853 0
M  V30 51 H -0.695475 -0.063977 -3.075513 0
M  V30 52 H 1.143553 1.477128 -3.005288 0
M  V30 53 H 5.008061 -1.759495 1.938498 0
M  V30 END ATOM
M  V30 BEGIN BOND
M  V30 1 1 1 2
M  V30 2 2 2 3
M  V30 3 1 3 4
M  V30 4 2 4 5
M  V30 5 1 5 6
M  V30 6 1 6 7
M  V30 7 2 7 8
M  V30 8 1 7 9
M  V30 9 1 9 10
M  V30 10 2 10 11
M  V30 11 1 11 12
M  V30 12 1 12 13
M  V30 13 2 13 14
M  V30 14 1 14 15
M  V30 15 2 15 16
M  V30 16 1 16 17
M  V30 17 2 17 18
M  V30 18 1 18 19
M  V30 19 1 18 20
M  V30 20 1 20 21
M  V30 21 2 20 22
M  V30 22 1 14 23
M  V30 23 2 23 24
M  V30 24 1 24 25
M  V30 25 2 25 26
M  V30 26 1 26 27
M  V30 27 2 27 28
M  V30 28 1 28 29
M  V30 29 2 12 30
M  V30 30 1 30 31
M  V30 31 2 31 32
M  V30 32 2 6 33
M  V30 33 1 33 2
M  V30 34 1 32 10
M  V30 35 1 29 13
M  V30 36 1 22 15
M  V30 37 1 29 24
M  V30 38 1 1 34
M  V30 39 1 1 35
M  V30 40 1 1 36
M  V30 41 1 3 37
M  V30 42 1 4 38
M  V30 43 1 5 39
M  V30 44 1 9 40
M  V30 45 1 11 41
M  V30 46 1 16 42
M  V30 47 1 17 43
M  V30 48 1 21 44
M  V30 49 1 21 45
M  V30 50 1 21 46
M  V30 51 1 22 47
M  V30 52 1 25 48
M  V30 53 1 26 49
M  V30 54 1 27 50
M  V30 55 1 30 51
M  V30 56 1 31 52
M  V30 57 1 33 53
M  V30 END BOND
M  V30 END CTAB
M  END
>  <Dataset>  (79) 
ChEMBL_Kinases

>  <Ligand_Instance>  (79) 
nan

>  <PDB_ID>  (79) 
nan

>  <Standardized_SMILES>  (79) 
Cc1cccc(C(=O)Nc2cc(-c3c(-c4ccc(F)c(C)c4)nc4cccnn34)ccn2)c1

>  <Name>  (79) 
nan

>  <Pocket>  (79) 
nan

>  <ATP_Site>  (79) 
nan

>  <Peripheral>  (79) 
nan

>  <Num_H_Atoms_ProtBoundConf>  (79) 
nan

>  <Num_Resolved_Atoms>  (79) 
nan

>  <Num_Not_Resolved_Atoms>  (79) 
nan

$$$$
CHEMBL4226533
     RDKit          3D

  0  0  0  0  0  0  0  0  0  0999 V3000
M  V30 BEGIN CTAB
M  V30 COUNTS 85 91 0 0 0
M  V30 BEGIN ATOM
M  V30 1 C 0.016183 -5.876571 2.946392 0
M  V30 2 C -0.175485 -4.984530 1.705782 0
M  V30 3 O -0.132243 -3.720428 2.151490 0
M  V30 4 C -0.274010 -2.674231 1.300804 0 CFG=1
M  V30 5 C -0.161830 -1.460958 2.186635 0
M  V30 6 O -0.029189 -2.468067 2.958656 0
M  V30 7 N -0.240981 -0.094776 1.813164 0
M  V30 8 C -0.075514 0.677621 3.004946 0
M  V30 9 C 1.231830 1.040367 3.342778 0
M  V30 10 C 1.467130 1.793388 4.491444 0
M  V30 11 C 0.348216 2.131063 5.227569 0
M  V30 12 N 0.281538 2.849886 6.377490 0
M  V30 13 N -0.981442 2.949719 6.763685 0
M  V30 14 C -1.790555 2.307511 5.893166 0
M  V30 15 C -3.241662 2.181417 5.956892 0
M  V30 16 C -3.778486 1.859877 7.185062 0
M  V30 17 C -5.158575 1.718023 7.339417 0
M  V30 18 C -5.985700 1.907523 6.228055 0
M  V30 19 F -7.333448 1.752946 6.445958 0
M  V30 20 C -5.454002 2.234123 4.976006 0
M  V30 21 C -4.086738 2.361145 4.882460 0
M  V30 22 C -0.962761 1.786955 4.919644 0
M  V30 23 C -1.160164 1.041199 3.775657 0
M  V30 24 C 0.555733 -2.639995 0.089282 0
M  V30 25 C -0.211978 -3.347170 -0.984129 0
M  V30 26 N -1.580242 -2.955555 -0.683454 0
M  V30 27 C -1.836859 -1.761308 -1.476800 0
M  V30 28 C -1.867093 -2.121078 -2.926015 0
M  V30 29 O -1.713639 -3.235111 -3.493555 0
M  V30 30 N -2.100246 -1.103276 -3.890341 0
M  V30 31 C -2.130301 -1.439230 -5.303091 0
M  V30 32 C -0.994589 -0.777878 -6.053273 0
M  V30 33 N -0.361467 0.133314 -5.125106 0
M  V30 34 C 1.009309 0.103950 -4.771262 0
M  V30 35 C 1.901177 -0.794071 -5.298744 0
M  V30 36 C 3.238049 -0.840468 -4.965708 0
M  V30 37 C 3.752862 0.046176 -4.055002 0
M  V30 38 C 5.152180 0.050303 -3.659059 0
M  V30 39 N 5.583545 0.950430 -2.759245 0
M  V30 40 C 6.857051 1.039401 -2.323964 0
M  V30 41 C 7.756233 0.116248 -2.869049 0
M  V30 42 C 7.335614 -0.829571 -3.805377 0
M  V30 43 N 6.030075 -0.829905 -4.173154 0
M  V30 44 C 2.880096 0.959623 -3.508701 0
M  V30 45 C 1.547248 0.982392 -3.861418 0
M  V30 46 C -1.323387 1.079183 -4.603845 0
M  V30 47 C -2.333306 0.340042 -3.735475 0
M  V30 48 C -1.692030 -2.721902 0.716166 0
M  V30 49 H 0.971679 -5.567297 3.437106 0
M  V30 50 H -0.846373 -5.720167 3.614528 0
M  V30 51 H 0.066769 -6.944051 2.650811 0
M  V30 52 H 0.644592 -5.316720 1.042825 0
M  V30 53 H -1.192318 -5.234861 1.335275 0
M  V30 54 H -0.396669 0.017640 0.787675 0
M  V30 55 H 2.078697 0.748397 2.726862 0
M  V30 56 H 2.450430 2.110538 4.815539 0
M  V30 57 H 1.001516 3.309647 6.976088 0
M  V30 58 H -3.155639 1.711679 8.045085 0
M  V30 59 H -5.600352 1.465828 8.296968 0
M  V30 60 H -6.127113 2.371169 4.147623 0
M  V30 61 H -3.643745 2.616539 3.912161 0
M  V30 62 H -2.171436 0.756346 3.506900 0
M  V30 63 H 1.593356 -3.003979 0.204874 0
M  V30 64 H 0.662078 -1.579019 -0.274121 0
M  V30 65 H -0.077740 -4.421359 -1.056952 0
M  V30 66 H 0.097833 -2.945797 -1.994311 0
M  V30 67 H -2.857676 -1.415139 -1.215626 0
M  V30 68 H -1.157541 -0.932171 -1.277765 0
M  V30 69 H -2.140475 -2.549614 -5.456440 0
M  V30 70 H -3.102322 -1.082273 -5.701162 0
M  V30 71 H -1.426984 -0.113487 -6.858140 0
M  V30 72 H -0.334390 -1.480513 -6.549728 0
M  V30 73 H 1.606160 -1.532836 -6.019498 0
M  V30 74 H 3.923051 -1.552641 -5.389496 0
M  V30 75 H 7.186236 1.775178 -1.594925 0
M  V30 76 H 8.793401 0.149357 -2.547640 0
M  V30 77 H 8.055882 -1.546782 -4.222847 0
M  V30 78 H 3.295425 1.669001 -2.778666 0
M  V30 79 H 0.969222 1.743055 -3.363696 0
M  V30 80 H -0.892950 1.941339 -4.087682 0
M  V30 81 H -1.854976 1.522176 -5.497681 0
M  V30 82 H -2.254669 0.651000 -2.689268 0
M  V30 83 H -3.348068 0.524499 -4.143260 0
M  V30 84 H -2.232794 -1.784159 0.958528 0
M  V30 85 H -2.301848 -3.531618 1.169970 0
M  V30 END ATOM
M  V30 BEGIN BOND
M  V30 1 1 1 2
M  V30 2 1 2 3
M  V30 3 1 4 3 CFG=1
M  V30 4 1 4 5
M  V30 5 2 5 6
M  V30 6 1 5 7
M  V30 7 1 7 8
M  V30 8 2 8 9
M  V30 9 1 9 10
M  V30 10 2 10 11
M  V30 11 1 11 12
M  V30 12 1 12 13
M  V30 13 2 13 14
M  V30 14 1 14 15
M  V30 15 2 15 16
M  V30 16 1 16 17
M  V30 17 2 17 18
M  V30 18 1 18 19
M  V30 19 1 18 20
M  V30 20 2 20 21
M  V30 21 1 14 22
M  V30 22 2 22 23
M  V30 23 1 4 24
M  V30 24 1 24 25
M  V30 25 1 25 26
M  V30 26 1 26 27
M  V30 27 1 27 28
M  V30 28 2 28 29
M  V30 29 1 28 30
M  V30 30 1 30 31
M  V30 31 1 31 32
M  V30 32 1 32 33
M  V30 33 1 33 34
M  V30 34 2 34 35
M  V30 35 1 35 36
M  V30 36 2 36 37
M  V30 37 1 37 38
M  V30 38 2 38 39
M  V30 39 1 39 40
M  V30 40 2 40 41
M  V30 41 1 41 42
M  V30 42 2 42 43
M  V30 43 1 37 44
M  V30 44 2 44 45
M  V30 45 1 33 46
M  V30 46 1 46 47
M  V30 47 1 26 48
M  V30 48 1 48 4
M  V30 49 1 23 8
M  V30 50 1 47 30
M  V30 51 1 22 11
M  V30 52 1 45 34
M  V30 53 1 21 15
M  V30 54 1 43 38
M  V30 55 1 1 49
M  V30 56 1 1 50
M  V30 57 1 1 51
M  V30 58 1 2 52
M  V30 59 1 2 53
M  V30 60 1 7 54
M  V30 61 1 9 55
M  V30 62 1 10 56
M  V30 63 1 12 57
M  V30 64 1 16 58
M  V30 65 1 17 59
M  V30 66 1 20 60
M  V30 67 1 21 61
M  V30 68 1 23 62
M  V30 69 1 24 63
M  V30 70 1 24 64
M  V30 71 1 25 65
M  V30 72 1 25 66
M  V30 73 1 27 67
M  V30 74 1 27 68
M  V30 75 1 31 69
M  V30 76 1 31 70
M  V30 77 1 32 71
M  V30 78 1 32 72
M  V30 79 1 35 73
M  V30 80 1 36 74
M  V30 81 1 40 75
M  V30 82 1 41 76
M  V30 83 1 42 77
M  V30 84 1 44 78
M  V30 85 1 45 79
M  V30 86 1 46 80
M  V30 87 1 46 81
M  V30 88 1 47 82
M  V30 89 1 47 83
M  V30 90 1 48 84
M  V30 91 1 48 85
M  V30 END BOND
M  V30 END CTAB
M  END
>  <Dataset>  (80) 
ChEMBL_Kinases

>  <Ligand_Instance>  (80) 
nan

>  <PDB_ID>  (80) 
nan

>  <Standardized_SMILES>  (80) 
CCO[C@@]1(C(=O)Nc2ccc3[nH]nc(-c4ccc(F)cc4)c3c2)CCN(CC(=O)N2CCN(c3ccc(-c4ncccn4)cc3)CC2)C1

>  <Name>  (80) 
nan

>  <Pocket>  (80) 
nan

>  <ATP_Site>  (80) 
nan

>  <Peripheral>  (80) 
nan

>  <Num_H_Atoms_ProtBoundConf>  (80) 
nan

>  <Num_Resolved_Atoms>  (80) 
nan

>  <Num_Not_Resolved_Atoms>  (80) 
nan

$$$$
CHEMBL4226496
     RDKit          3D

  0  0  0  0  0  0  0  0  0  0999 V3000
M  V30 BEGIN CTAB
M  V30 COUNTS 63 67 0 0 0
M  V30 BEGIN ATOM
M  V30 1 C 1.252414 1.646503 5.417271 0
M  V30 2 C 0.815946 0.217527 5.239278 0
M  V30 3 C 1.047734 -0.493333 4.146315 0
M  V30 4 C 1.779045 0.241356 3.124212 0
M  V30 5 O 2.218054 1.418881 3.089029 0
M  V30 6 N 2.166216 -0.304234 1.858377 0
M  V30 7 C 2.871877 0.393964 0.858177 0
M  V30 8 C 2.020869 1.050239 -0.020232 0
M  V30 9 C 2.558653 1.790854 -1.075407 0
M  V30 10 C 3.906461 1.865875 -1.237362 0
M  V30 11 N 4.785090 2.450560 -2.089537 0
M  V30 12 N 6.047254 2.212988 -1.812292 0
M  V30 13 C 6.098267 1.418834 -0.707489 0
M  V30 14 C 4.778122 1.216147 -0.368908 0
M  V30 15 C 4.232919 0.478536 0.682356 0
M  V30 16 C 0.574325 -1.884749 3.932128 0
M  V30 17 C -0.488405 -2.002056 2.901610 0
M  V30 18 C -1.645278 -1.369167 3.383452 0
M  V30 19 C -2.822902 -1.335851 2.629073 0
M  V30 20 C -2.879030 -1.925253 1.388711 0
M  V30 21 F -3.997114 -1.917451 0.624150 0
M  V30 22 C -1.746980 -2.536304 0.933706 0
M  V30 23 C -1.687838 -3.211268 -0.388175 0
M  V30 24 C -1.609358 -2.250237 -1.517387 0
M  V30 25 O -1.608588 -1.017496 -1.276037 0
M  V30 26 N -1.539928 -2.822506 -2.813552 0
M  V30 27 C -1.463587 -2.016383 -4.029001 0
M  V30 28 C -2.812064 -1.474758 -4.337629 0
M  V30 29 C -3.395350 -0.285029 -3.958572 0
M  V30 30 C -4.672751 0.006029 -4.360431 0
M  V30 31 C -5.457403 -0.818399 -5.141208 0
M  V30 32 C -6.789540 -0.450722 -5.525342 0
M  V30 33 N -7.860229 -0.136138 -5.829530 0
M  V30 34 N -4.859581 -1.957732 -5.487576 0
M  V30 35 C -3.626681 -2.294004 -5.129179 0
M  V30 36 C -0.601461 -2.575948 1.653299 0
M  V30 37 N 0.074437 -2.354111 5.225150 0
M  V30 38 C -0.234458 -1.689921 6.443715 0
M  V30 39 O -0.794573 -2.299479 7.369129 0
M  V30 40 N 0.182610 -0.332489 6.394633 0
M  V30 41 H 0.760522 2.283695 4.648935 0
M  V30 42 H 0.964267 2.052163 6.408027 0
M  V30 43 H 2.338418 1.715704 5.364569 0
M  V30 44 H 1.938425 -1.290231 1.618676 0
M  V30 45 H 0.934206 1.063592 0.007235 0
M  V30 46 H 2.038851 2.352274 -1.836015 0
M  V30 47 H 4.483851 3.045769 -2.906469 0
M  V30 48 H 6.985636 1.050283 -0.231688 0
M  V30 49 H 4.819801 -0.053152 1.397965 0
M  V30 50 H 1.454945 -2.503422 3.695724 0
M  V30 51 H -1.792064 -0.847608 4.343143 0
M  V30 52 H -3.738625 -0.861281 2.956987 0
M  V30 53 H -0.859809 -3.941042 -0.472090 0
M  V30 54 H -2.622138 -3.836311 -0.473890 0
M  V30 55 H -1.539957 -3.864974 -2.955921 0
M  V30 56 H -1.119688 -2.597757 -4.886896 0
M  V30 57 H -0.736478 -1.191864 -3.873820 0
M  V30 58 H -2.755119 0.337212 -3.351284 0
M  V30 59 H -5.051187 0.971465 -4.011817 0
M  V30 60 H -3.264890 -3.257636 -5.484635 0
M  V30 61 H 0.369663 -3.036262 1.409648 0
M  V30 62 H -0.074549 -3.410355 5.200814 0
M  V30 63 H -0.006744 0.233896 7.264167 0
M  V30 END ATOM
M  V30 BEGIN BOND
M  V30 1 1 1 2
M  V30 2 2 2 3
M  V30 3 1 3 4
M  V30 4 2 4 5
M  V30 5 1 4 6
M  V30 6 1 6 7
M  V30 7 2 7 8
M  V30 8 1 8 9
M  V30 9 2 9 10
M  V30 10 1 10 11
M  V30 11 1 11 12
M  V30 12 2 12 13
M  V30 13 1 13 14
M  V30 14 2 14 15
M  V30 15 1 3 16
M  V30 16 1 16 17
M  V30 17 2 17 18
M  V30 18 1 18 19
M  V30 19 2 19 20
M  V30 20 1 20 21
M  V30 21 1 20 22
M  V30 22 1 22 23
M  V30 23 1 23 24
M  V30 24 2 24 25
M  V30 25 1 24 26
M  V30 26 1 26 27
M  V30 27 1 27 28
M  V30 28 2 28 29
M  V30 29 1 29 30
M  V30 30 2 30 31
M  V30 31 1 31 32
M  V30 32 3 32 33
M  V30 33 1 31 34
M  V30 34 2 34 35
M  V30 35 2 22 36
M  V30 36 1 16 37
M  V30 37 1 37 38
M  V30 38 2 38 39
M  V30 39 1 38 40
M  V30 40 1 40 2
M  V30 41 1 15 7
M  V30 42 1 36 17
M  V30 43 1 14 10
M  V30 44 1 35 28
M  V30 45 1 1 41
M  V30 46 1 1 42
M  V30 47 1 1 43
M  V30 48 1 6 44
M  V30 49 1 8 45
M  V30 50 1 9 46
M  V30 51 1 11 47
M  V30 52 1 13 48
M  V30 53 1 15 49
M  V30 54 1 16 50
M  V30 55 1 18 51
M  V30 56 1 19 52
M  V30 57 1 23 53
M  V30 58 1 23 54
M  V30 59 1 26 55
M  V30 60 1 27 56
M  V30 61 1 27 57
M  V30 62 1 29 58
M  V30 63 1 30 59
M  V30 64 1 35 60
M  V30 65 1 36 61
M  V30 66 1 37 62
M  V30 67 1 40 63
M  V30 END BOND
M  V30 END CTAB
M  END
>  <Dataset>  (81) 
ChEMBL_Kinases

>  <Ligand_Instance>  (81) 
nan

>  <PDB_ID>  (81) 
nan

>  <Standardized_SMILES>  (81) 
CC1=C(C(=O)Nc2ccc3[nH]ncc3c2)C(c2ccc(F)c(CC(=O)NCc3ccc(C#N)nc3)c2)NC(=O)N1

>  <Name>  (81) 
nan

>  <Pocket>  (81) 
nan

>  <ATP_Site>  (81) 
nan

>  <Peripheral>  (81) 
nan

>  <Num_H_Atoms_ProtBoundConf>  (81) 
nan

>  <Num_Resolved_Atoms>  (81) 
nan

>  <Num_Not_Resolved_Atoms>  (81) 
nan

$$$$
CHEMBL4226494
     RDKit          3D

  0  0  0  0  0  0  0  0  0  0999 V3000
M  V30 BEGIN CTAB
M  V30 COUNTS 47 51 0 0 0
M  V30 BEGIN ATOM
M  V30 1 C -1.300841 3.288407 -0.107700 0
M  V30 2 C -0.198181 2.577178 0.607160 0
M  V30 3 C 1.128308 2.671873 0.249099 0
M  V30 4 N 2.122503 2.036725 0.884958 0
M  V30 5 C 3.437275 2.044638 0.642038 0
M  V30 6 C 4.280601 2.692128 -0.334591 0
M  V30 7 C 5.668348 2.509741 -0.345118 0
M  V30 8 N 6.238186 3.202364 -1.330307 0
M  V30 9 N 5.311435 3.840813 -1.983316 0
M  V30 10 C 4.147010 3.541369 -1.396500 0
M  V30 11 C 3.924562 1.208981 1.626051 0
M  V30 12 N 2.913242 0.755989 2.385583 0
M  V30 13 C 1.780821 1.267801 1.930695 0
M  V30 14 C 0.474514 1.124281 2.347605 0
M  V30 15 N 0.116907 0.309389 3.457173 0
M  V30 16 C -0.231626 -1.086555 3.238828 0
M  V30 17 C -0.287475 -1.809713 2.122964 0
M  V30 18 C -0.662301 -3.086939 2.346434 0
M  V30 19 C -0.771228 -4.029606 1.170421 0
M  V30 20 C -2.116091 -3.974684 0.545357 0
M  V30 21 N -2.309601 -3.305531 -0.610736 0
M  V30 22 C -3.489346 -3.201243 -1.239838 0
M  V30 23 C -4.642199 -3.794641 -0.731466 0
M  V30 24 C -4.480158 -4.483265 0.443587 0
M  V30 25 C -3.245514 -4.560087 1.049629 0
M  V30 26 C -3.158242 -5.329346 2.316313 0
M  V30 27 N -0.954355 -3.593493 3.573444 0
M  V30 28 S -0.677765 -2.087154 4.626212 0
M  V30 29 N -0.493089 1.787927 1.670492 0
M  V30 30 H -2.100167 2.585294 -0.421169 0
M  V30 31 H -0.836399 3.806292 -0.989764 0
M  V30 32 H -1.805963 4.020997 0.566979 0
M  V30 33 H 1.347238 3.295571 -0.588973 0
M  V30 34 H 6.325542 1.922088 0.290990 0
M  V30 35 H 5.436604 4.468069 -2.806252 0
M  V30 36 H 3.212800 3.929329 -1.728608 0
M  V30 37 H 4.920421 0.875786 1.875712 0
M  V30 38 H 0.121283 0.759765 4.394168 0
M  V30 39 H -0.039183 -1.324147 1.196170 0
M  V30 40 H -0.032531 -3.765995 0.378500 0
M  V30 41 H -0.565889 -5.058512 1.483216 0
M  V30 42 H -3.444646 -2.624261 -2.154940 0
M  V30 43 H -5.557016 -3.673088 -1.283962 0
M  V30 44 H -5.349680 -4.957980 0.871620 0
M  V30 45 H -2.185734 -5.833051 2.454779 0
M  V30 46 H -3.477960 -4.708323 3.154567 0
M  V30 47 H -3.904333 -6.179448 2.274091 0
M  V30 END ATOM
M  V30 BEGIN BOND
M  V30 1 1 1 2
M  V30 2 2 2 3
M  V30 3 1 3 4
M  V30 4 1 4 5
M  V30 5 1 5 6
M  V30 6 1 6 7
M  V30 7 2 7 8
M  V30 8 1 8 9
M  V30 9 1 9 10
M  V30 10 2 5 11
M  V30 11 1 11 12
M  V30 12 2 12 13
M  V30 13 1 13 14
M  V30 14 1 14 15
M  V30 15 1 15 16
M  V30 16 2 16 17
M  V30 17 1 17 18
M  V30 18 1 18 19
M  V30 19 1 19 20
M  V30 20 2 20 21
M  V30 21 1 21 22
M  V30 22 2 22 23
M  V30 23 1 23 24
M  V30 24 2 24 25
M  V30 25 1 25 26
M  V30 26 2 18 27
M  V30 27 1 27 28
M  V30 28 2 14 29
M  V30 29 1 29 2
M  V30 30 1 13 4
M  V30 31 1 28 16
M  V30 32 2 10 6
M  V30 33 1 25 20
M  V30 34 1 1 30
M  V30 35 1 1 31
M  V30 36 1 1 32
M  V30 37 1 3 33
M  V30 38 1 7 34
M  V30 39 1 9 35
M  V30 40 1 10 36
M  V30 41 1 11 37
M  V30 42 1 15 38
M  V30 43 1 17 39
M  V30 44 1 19 40
M  V30 45 1 19 41
M  V30 46 1 22 42
M  V30 47 1 23 43
M  V30 48 1 24 44
M  V30 49 1 26 45
M  V30 50 1 26 46
M  V30 51 1 26 47
M  V30 END BOND
M  V30 END CTAB
M  END
>  <Dataset>  (82) 
ChEMBL_Kinases

>  <Ligand_Instance>  (82) 
nan

>  <PDB_ID>  (82) 
nan

>  <Standardized_SMILES>  (82) 
Cc1cn2c(-c3cn[nH]c3)cnc2c(Nc2cc(Cc3ncccc3C)ns2)n1

>  <Name>  (82) 
nan

>  <Pocket>  (82) 
nan

>  <ATP_Site>  (82) 
nan

>  <Peripheral>  (82) 
nan

>  <Num_H_Atoms_ProtBoundConf>  (82) 
nan

>  <Num_Resolved_Atoms>  (82) 
nan

>  <Num_Not_Resolved_Atoms>  (82) 
nan

$$$$
CHEMBL4226486
     RDKit          3D

  0  0  0  0  0  0  0  0  0  0999 V3000
M  V30 BEGIN CTAB
M  V30 COUNTS 17 18 0 0 0
M  V30 BEGIN ATOM
M  V30 1 N -0.933451 -1.668404 0.367520 0
M  V30 2 C 0.153747 -1.102849 1.089681 0
M  V30 3 N 0.641731 -1.767782 2.156285 0
M  V30 4 N 1.645696 -1.084132 2.692763 0
M  V30 5 C 1.817379 0.038334 1.971923 0
M  V30 6 C 2.667370 1.134182 2.008298 0
M  V30 7 C 2.580344 2.169498 1.077267 0
M  V30 8 C 1.609530 2.105530 0.075973 0
M  V30 9 C 0.734800 1.037059 -0.009355 0
M  V30 10 I -0.740531 0.905048 -1.502805 0
M  V30 11 C 0.888885 0.056764 0.949956 0
M  V30 12 H -1.954307 -1.527450 0.247778 0
M  V30 13 H -1.844810 -1.175195 0.565925 0
M  V30 14 H 2.237043 -1.317611 3.522810 0
M  V30 15 H 3.411794 1.178919 2.779536 0
M  V30 16 H 3.256519 3.010821 1.130841 0
M  V30 17 H 1.545211 2.914320 -0.647369 0
M  V30 END ATOM
M  V30 BEGIN BOND
M  V30 1 1 1 2
M  V30 2 2 2 3
M  V30 3 1 3 4
M  V30 4 1 4 5
M  V30 5 2 5 6
M  V30 6 1 6 7
M  V30 7 2 7 8
M  V30 8 1 8 9
M  V30 9 1 9 10
M  V30 10 2 9 11
M  V30 11 1 11 2
M  V30 12 1 11 5
M  V30 13 1 1 12
M  V30 14 1 1 13
M  V30 15 1 4 14
M  V30 16 1 6 15
M  V30 17 1 7 16
M  V30 18 1 8 17
M  V30 END BOND
M  V30 END CTAB
M  END
>  <Dataset>  (83) 
ChEMBL_Kinases

>  <Ligand_Instance>  (83) 
nan

>  <PDB_ID>  (83) 
nan

>  <Standardized_SMILES>  (83) 
Nc1n[nH]c2cccc(I)c12

>  <Name>  (83) 
nan

>  <Pocket>  (83) 
nan

>  <ATP_Site>  (83) 
nan

>  <Peripheral>  (83) 
nan

>  <Num_H_Atoms_ProtBoundConf>  (83) 
nan

>  <Num_Resolved_Atoms>  (83) 
nan

>  <Num_Not_Resolved_Atoms>  (83) 
nan

$$$$
CHEMBL4226464
     RDKit          3D

  0  0  0  0  0  0  0  0  0  0999 V3000
M  V30 BEGIN CTAB
M  V30 COUNTS 53 57 0 0 0
M  V30 BEGIN ATOM
M  V30 1 C 3.112443 -3.796335 0.137389 0
M  V30 2 C 2.403667 -2.665666 -0.488912 0
M  V30 3 C 2.565673 -1.368267 -0.051828 0
M  V30 4 C 1.898084 -0.323371 -0.646385 0
M  V30 5 C 2.010130 1.087668 -0.245311 0
M  V30 6 N 2.529943 1.927449 -1.153634 0
M  V30 7 C 2.565313 3.168788 -0.646409 0
M  V30 8 C 2.982152 4.428527 -1.090965 0
M  V30 9 C 2.813737 5.460488 -0.169995 0
M  V30 10 C 2.287159 5.329500 1.096481 0
M  V30 11 N 1.907242 4.076470 1.451520 0
M  V30 12 N 2.057899 3.082476 0.592288 0
M  V30 13 C 1.696171 1.827562 0.901937 0
M  V30 14 C 1.120317 1.058943 1.985409 0
M  V30 15 C 1.623855 0.990892 3.251913 0
M  V30 16 C 0.957062 0.199278 4.171064 0
M  V30 17 N -0.150341 -0.496076 3.875913 0
M  V30 18 C -0.694033 -0.472578 2.656783 0
M  V30 19 N -1.855706 -1.246277 2.444979 0
M  V30 20 C -2.614992 -1.393548 1.256706 0
M  V30 21 O -2.286153 -0.792801 0.210852 0
M  V30 22 C -3.816898 -2.224733 1.118316 0
M  V30 23 C -5.095873 -2.019732 1.550837 0
M  V30 24 C -6.082813 -2.950484 1.301108 0
M  V30 25 C -5.810881 -4.107331 0.612836 0
M  V30 26 C -4.514118 -4.327011 0.168196 0
M  V30 27 C -3.525720 -3.396886 0.417336 0
M  V30 28 C -2.182984 -3.762092 -0.117921 0
M  V30 29 C -0.028584 0.312475 1.752393 0
M  V30 30 C 1.029577 -0.539333 -1.717292 0
M  V30 31 C 0.846535 -1.838590 -2.179622 0
M  V30 32 C 1.546112 -2.858510 -1.542494 0
M  V30 33 F 1.358530 -4.119667 -1.999723 0
M  V30 34 H 2.547710 -4.155977 1.006997 0
M  V30 35 H 4.141456 -3.505449 0.474789 0
M  V30 36 H 3.236650 -4.622729 -0.592417 0
M  V30 37 H 3.217089 -1.118824 0.768527 0
M  V30 38 H 3.387225 4.520081 -2.064960 0
M  V30 39 H 3.148656 6.424023 -0.560570 0
M  V30 40 H 2.208026 6.208498 1.719466 0
M  V30 41 H 2.532205 1.566364 3.487752 0
M  V30 42 H 1.334196 0.129216 5.181568 0
M  V30 43 H -2.274505 -1.815258 3.210223 0
M  V30 44 H -5.206818 -1.083418 2.079243 0
M  V30 45 H -7.074653 -2.723266 1.670055 0
M  V30 46 H -6.600784 -4.835995 0.420629 0
M  V30 47 H -4.327264 -5.257093 -0.376814 0
M  V30 48 H -1.371186 -3.368073 0.533395 0
M  V30 49 H -2.050532 -4.853411 -0.129737 0
M  V30 50 H -2.119889 -3.322567 -1.145211 0
M  V30 51 H -0.426537 0.366651 0.746417 0
M  V30 52 H 0.458452 0.230898 -2.250916 0
M  V30 53 H 0.174062 -2.048881 -3.014597 0
M  V30 END ATOM
M  V30 BEGIN BOND
M  V30 1 1 1 2
M  V30 2 2 2 3
M  V30 3 1 3 4
M  V30 4 1 4 5
M  V30 5 1 5 6
M  V30 6 2 6 7
M  V30 7 1 7 8
M  V30 8 2 8 9
M  V30 9 1 9 10
M  V30 10 2 10 11
M  V30 11 1 11 12
M  V30 12 1 12 13
M  V30 13 1 13 14
M  V30 14 2 14 15
M  V30 15 1 15 16
M  V30 16 2 16 17
M  V30 17 1 17 18
M  V30 18 1 18 19
M  V30 19 1 19 20
M  V30 20 2 20 21
M  V30 21 1 20 22
M  V30 22 2 22 23
M  V30 23 1 23 24
M  V30 24 2 24 25
M  V30 25 1 25 26
M  V30 26 2 26 27
M  V30 27 1 27 28
M  V30 28 2 18 29
M  V30 29 2 4 30
M  V30 30 1 30 31
M  V30 31 2 31 32
M  V30 32 1 32 33
M  V30 33 1 32 2
M  V30 34 2 13 5
M  V30 35 1 29 14
M  V30 36 1 12 7
M  V30 37 1 27 22
M  V30 38 1 1 34
M  V30 39 1 1 35
M  V30 40 1 1 36
M  V30 41 1 3 37
M  V30 42 1 8 38
M  V30 43 1 9 39
M  V30 44 1 10 40
M  V30 45 1 15 41
M  V30 46 1 16 42
M  V30 47 1 19 43
M  V30 48 1 23 44
M  V30 49 1 24 45
M  V30 50 1 25 46
M  V30 51 1 26 47
M  V30 52 1 28 48
M  V30 53 1 28 49
M  V30 54 1 28 50
M  V30 55 1 29 51
M  V30 56 1 30 52
M  V30 57 1 31 53
M  V30 END BOND
M  V30 END CTAB
M  END
>  <Dataset>  (84) 
ChEMBL_Kinases

>  <Ligand_Instance>  (84) 
nan

>  <PDB_ID>  (84) 
nan

>  <Standardized_SMILES>  (84) 
Cc1cc(-c2nc3cccnn3c2-c2ccnc(NC(=O)c3ccccc3C)c2)ccc1F

>  <Name>  (84) 
nan

>  <Pocket>  (84) 
nan

>  <ATP_Site>  (84) 
nan

>  <Peripheral>  (84) 
nan

>  <Num_H_Atoms_ProtBoundConf>  (84) 
nan

>  <Num_Resolved_Atoms>  (84) 
nan

>  <Num_Not_Resolved_Atoms>  (84) 
nan

$$$$
CHEMBL4226323
     RDKit          3D

  0  0  0  0  0  0  0  0  0  0999 V3000
M  V30 BEGIN CTAB
M  V30 COUNTS 72 75 0 0 0
M  V30 BEGIN ATOM
M  V30 1 C 3.320966 -1.454734 6.103955 0
M  V30 2 C 2.998479 -2.082848 4.813290 0
M  V30 3 C 2.534872 -1.435701 3.730638 0
M  V30 4 C 2.349079 -0.004125 3.866920 0
M  V30 5 O 2.617592 0.580476 4.972114 0
M  V30 6 N 1.878054 0.874722 2.862834 0
M  V30 7 C 1.647412 2.267597 2.853938 0
M  V30 8 C 1.830667 3.160802 3.880076 0
M  V30 9 C 1.582981 4.505065 3.802412 0
M  V30 10 C 1.116696 5.011246 2.622387 0
M  V30 11 N 0.784101 6.250809 2.218707 0
M  V30 12 N 0.385629 6.207857 0.960176 0
M  V30 13 C 0.449317 4.946527 0.514800 0
M  V30 14 C 0.914706 4.170148 1.565986 0
M  V30 15 C 1.175622 2.822122 1.678523 0
M  V30 16 C 2.172784 -2.041775 2.424989 0
M  V30 17 C 0.708272 -2.045267 2.160280 0
M  V30 18 C -0.204373 -2.365537 3.154993 0
M  V30 19 C -1.559112 -2.395355 2.883952 0
M  V30 20 C -2.075605 -2.115886 1.637610 0
M  V30 21 F -3.391700 -2.126931 1.308183 0
M  V30 22 C -1.199550 -1.795188 0.628226 0
M  V30 23 C -1.539513 -1.477063 -0.774050 0
M  V30 24 C -1.911193 -2.704828 -1.528029 0
M  V30 25 O -1.890056 -3.735921 -0.796839 0
M  V30 26 N -2.269483 -2.849780 -2.895117 0
M  V30 27 C -2.582562 -4.224407 -3.239198 0
M  V30 28 C -1.322509 -4.929758 -3.683869 0
M  V30 29 O -0.850775 -4.222254 -4.799458 0
M  V30 30 C -2.275920 -1.679465 -3.747870 0
M  V30 31 C -3.575285 -0.951232 -3.792883 0
M  V30 32 C -3.507250 0.264136 -4.703399 0
M  V30 33 C -2.430829 1.171669 -4.150428 0
M  V30 34 C -3.293554 -0.094203 -6.148212 0
M  V30 35 C 0.143533 -1.768247 0.910427 0
M  V30 36 N 2.539955 -3.446934 2.501410 0
M  V30 37 C 3.020376 -4.259318 3.554660 0
M  V30 38 O 3.191886 -5.472717 3.368840 0
M  V30 39 N 3.244953 -3.506580 4.732584 0
M  V30 40 H 2.386645 -1.044174 6.572986 0
M  V30 41 H 3.671491 -2.237307 6.837368 0
M  V30 42 H 4.153999 -0.731619 6.076860 0
M  V30 43 H 1.691431 0.334273 1.994294 0
M  V30 44 H 2.192141 2.798059 4.813910 0
M  V30 45 H 1.751844 5.160733 4.650389 0
M  V30 46 H 0.839960 7.117118 2.835111 0
M  V30 47 H 0.194578 4.567093 -0.473555 0
M  V30 48 H 0.988742 2.231375 0.809167 0
M  V30 49 H 2.714889 -1.562580 1.604155 0
M  V30 50 H 0.149320 -2.593886 4.158049 0
M  V30 51 H -2.312892 -2.642998 3.643810 0
M  V30 52 H -0.740316 -0.932780 -1.307815 0
M  V30 53 H -2.443183 -0.817462 -0.825860 0
M  V30 54 H -3.085893 -4.757785 -2.427155 0
M  V30 55 H -3.331226 -4.231910 -4.086810 0
M  V30 56 H -0.592912 -4.907258 -2.846553 0
M  V30 57 H -1.585482 -5.965035 -3.952793 0
M  V30 58 H -0.099292 -3.623492 -4.572422 0
M  V30 59 H -1.987385 -1.986162 -4.791862 0
M  V30 60 H -1.470041 -0.967105 -3.420193 0
M  V30 61 H -3.807376 -0.565073 -2.790698 0
M  V30 62 H -4.352308 -1.625271 -4.222893 0
M  V30 63 H -4.484857 0.780047 -4.629631 0
M  V30 64 H -2.639447 2.231855 -4.393958 0
M  V30 65 H -2.378160 1.089759 -3.049044 0
M  V30 66 H -1.465144 0.827792 -4.552262 0
M  V30 67 H -2.344704 -0.638089 -6.325535 0
M  V30 68 H -3.204910 0.870385 -6.707174 0
M  V30 69 H -4.160008 -0.697059 -6.469611 0
M  V30 70 H 0.911399 -1.522065 0.167186 0
M  V30 71 H 2.389626 -3.880947 1.538606 0
M  V30 72 H 3.603083 -4.043685 5.561009 0
M  V30 END ATOM
M  V30 BEGIN BOND
M  V30 1 1 1 2
M  V30 2 2 2 3
M  V30 3 1 3 4
M  V30 4 2 4 5
M  V30 5 1 4 6
M  V30 6 1 6 7
M  V30 7 2 7 8
M  V30 8 1 8 9
M  V30 9 2 9 10
M  V30 10 1 10 11
M  V30 11 1 11 12
M  V30 12 2 12 13
M  V30 13 1 13 14
M  V30 14 2 14 15
M  V30 15 1 3 16
M  V30 16 1 16 17
M  V30 17 2 17 18
M  V30 18 1 18 19
M  V30 19 2 19 20
M  V30 20 1 20 21
M  V30 21 1 20 22
M  V30 22 1 22 23
M  V30 23 1 23 24
M  V30 24 2 24 25
M  V30 25 1 24 26
M  V30 26 1 26 27
M  V30 27 1 27 28
M  V30 28 1 28 29
M  V30 29 1 26 30
M  V30 30 1 30 31
M  V30 31 1 31 32
M  V30 32 1 32 33
M  V30 33 1 32 34
M  V30 34 2 22 35
M  V30 35 1 16 36
M  V30 36 1 36 37
M  V30 37 2 37 38
M  V30 38 1 37 39
M  V30 39 1 39 2
M  V30 40 1 15 7
M  V30 41 1 35 17
M  V30 42 1 14 10
M  V30 43 1 1 40
M  V30 44 1 1 41
M  V30 45 1 1 42
M  V30 46 1 6 43
M  V30 47 1 8 44
M  V30 48 1 9 45
M  V30 49 1 11 46
M  V30 50 1 13 47
M  V30 51 1 15 48
M  V30 52 1 16 49
M  V30 53 1 18 50
M  V30 54 1 19 51
M  V30 55 1 23 52
M  V30 56 1 23 53
M  V30 57 1 27 54
M  V30 58 1 27 55
M  V30 59 1 28 56
M  V30 60 1 28 57
M  V30 61 1 29 58
M  V30 62 1 30 59
M  V30 63 1 30 60
M  V30 64 1 31 61
M  V30 65 1 31 62
M  V30 66 1 32 63
M  V30 67 1 33 64
M  V30 68 1 33 65
M  V30 69 1 33 66
M  V30 70 1 34 67
M  V30 71 1 34 68
M  V30 72 1 34 69
M  V30 73 1 35 70
M  V30 74 1 36 71
M  V30 75 1 39 72
M  V30 END BOND
M  V30 END CTAB
M  END
>  <Dataset>  (85) 
ChEMBL_Kinases

>  <Ligand_Instance>  (85) 
nan

>  <PDB_ID>  (85) 
nan

>  <Standardized_SMILES>  (85) 
CC1=C(C(=O)Nc2ccc3[nH]ncc3c2)C(c2ccc(F)c(CC(=O)N(CCO)CCC(C)C)c2)NC(=O)N1

>  <Name>  (85) 
nan

>  <Pocket>  (85) 
nan

>  <ATP_Site>  (85) 
nan

>  <Peripheral>  (85) 
nan

>  <Num_H_Atoms_ProtBoundConf>  (85) 
nan

>  <Num_Resolved_Atoms>  (85) 
nan

>  <Num_Not_Resolved_Atoms>  (85) 
nan

$$$$
CHEMBL4226320
     RDKit          3D

  0  0  0  0  0  0  0  0  0  0999 V3000
M  V30 BEGIN CTAB
M  V30 COUNTS 53 57 0 0 0
M  V30 BEGIN ATOM
M  V30 1 C -0.282268 -0.517329 5.604838 0
M  V30 2 C 0.808697 -0.787999 4.631357 0
M  V30 3 C 1.155361 0.272270 3.820942 0
M  V30 4 C 2.160409 0.094016 2.893468 0
M  V30 5 C 2.706602 1.044535 1.930332 0
M  V30 6 N 3.983344 1.513432 1.878128 0
M  V30 7 C 4.027238 2.362897 0.830478 0
M  V30 8 C 5.136916 3.069589 0.410813 0
M  V30 9 C 5.006142 3.907049 -0.694025 0
M  V30 10 C 3.757229 3.960714 -1.286099 0
M  V30 11 N 2.716680 3.229211 -0.806245 0
M  V30 12 N 2.828774 2.434292 0.237515 0
M  V30 13 C 1.980612 1.623849 0.898396 0
M  V30 14 C 0.593327 1.419345 0.574993 0
M  V30 15 C -0.171663 2.578246 0.631472 0
M  V30 16 C -1.522059 2.527736 0.345599 0
M  V30 17 N -2.117667 1.347823 0.006492 0
M  V30 18 C -1.391006 0.222766 -0.051646 0
M  V30 19 N -2.030319 -0.997696 -0.406263 0
M  V30 20 C -2.312847 -1.723876 -1.581906 0
M  V30 21 O -1.897718 -1.167072 -2.639563 0
M  V30 22 C -3.026739 -2.987453 -1.434599 0
M  V30 23 C -3.474161 -3.583230 -0.299024 0
M  V30 24 C -4.133577 -4.792554 -0.381504 0
M  V30 25 C -4.346607 -5.407816 -1.599559 0
M  V30 26 C -3.895174 -4.809526 -2.759629 0
M  V30 27 C -4.160480 -5.531883 -4.031008 0
M  V30 28 F -5.525807 -5.567130 -4.262322 0
M  V30 29 F -3.745389 -6.838390 -3.862893 0
M  V30 30 F -3.565852 -4.917349 -5.109772 0
M  V30 31 C -3.237806 -3.600484 -2.658805 0
M  V30 32 C -0.041102 0.268831 0.233409 0
M  V30 33 C 2.806942 -1.139731 2.786217 0
M  V30 34 C 2.446923 -2.207005 3.613021 0
M  V30 35 C 1.439240 -2.006246 4.533345 0
M  V30 36 F 1.073925 -3.024020 5.344719 0
M  V30 37 H -1.266446 -0.443970 5.093993 0
M  V30 38 H -0.326330 -1.299478 6.398936 0
M  V30 39 H -0.015866 0.423241 6.129541 0
M  V30 40 H 0.739818 1.270410 3.799980 0
M  V30 41 H 6.113741 3.031183 0.869341 0
M  V30 42 H 5.779308 4.506483 -1.121049 0
M  V30 43 H 3.476065 4.548921 -2.141685 0
M  V30 44 H 0.199324 3.558322 0.887463 0
M  V30 45 H -2.153359 3.421123 0.380414 0
M  V30 46 H -2.283818 -1.277346 0.566703 0
M  V30 47 H -3.276904 -3.056122 0.600778 0
M  V30 48 H -4.460194 -5.205844 0.564358 0
M  V30 49 H -4.871460 -6.341580 -1.515251 0
M  V30 50 H -2.927849 -3.225406 -3.646904 0
M  V30 51 H 0.581413 -0.614521 0.198152 0
M  V30 52 H 3.604760 -1.398752 2.100450 0
M  V30 53 H 2.923744 -3.180455 3.561710 0
M  V30 END ATOM
M  V30 BEGIN BOND
M  V30 1 1 1 2
M  V30 2 2 2 3
M  V30 3 1 3 4
M  V30 4 1 4 5
M  V30 5 1 5 6
M  V30 6 2 6 7
M  V30 7 1 7 8
M  V30 8 2 8 9
M  V30 9 1 9 10
M  V30 10 2 10 11
M  V30 11 1 11 12
M  V30 12 1 12 13
M  V30 13 1 13 14
M  V30 14 2 14 15
M  V30 15 1 15 16
M  V30 16 2 16 17
M  V30 17 1 17 18
M  V30 18 1 18 19
M  V30 19 1 19 20
M  V30 20 2 20 21
M  V30 21 1 20 22
M  V30 22 2 22 23
M  V30 23 1 23 24
M  V30 24 2 24 25
M  V30 25 1 25 26
M  V30 26 1 26 27
M  V30 27 1 27 28
M  V30 28 1 27 29
M  V30 29 1 27 30
M  V30 30 2 26 31
M  V30 31 2 18 32
M  V30 32 2 4 33
M  V30 33 1 33 34
M  V30 34 2 34 35
M  V30 35 1 35 36
M  V30 36 1 35 2
M  V30 37 2 13 5
M  V30 38 1 32 14
M  V30 39 1 12 7
M  V30 40 1 31 22
M  V30 41 1 1 37
M  V30 42 1 1 38
M  V30 43 1 1 39
M  V30 44 1 3 40
M  V30 45 1 8 41
M  V30 46 1 9 42
M  V30 47 1 10 43
M  V30 48 1 15 44
M  V30 49 1 16 45
M  V30 50 1 19 46
M  V30 51 1 23 47
M  V30 52 1 24 48
M  V30 53 1 25 49
M  V30 54 1 31 50
M  V30 55 1 32 51
M  V30 56 1 33 52
M  V30 57 1 34 53
M  V30 END BOND
M  V30 END CTAB
M  END
>  <Dataset>  (86) 
ChEMBL_Kinases

>  <Ligand_Instance>  (86) 
nan

>  <PDB_ID>  (86) 
nan

>  <Standardized_SMILES>  (86) 
Cc1cc(-c2nc3cccnn3c2-c2ccnc(NC(=O)c3cccc(C(F)(F)F)c3)c2)ccc1F

>  <Name>  (86) 
nan

>  <Pocket>  (86) 
nan

>  <ATP_Site>  (86) 
nan

>  <Peripheral>  (86) 
nan

>  <Num_H_Atoms_ProtBoundConf>  (86) 
nan

>  <Num_Resolved_Atoms>  (86) 
nan

>  <Num_Not_Resolved_Atoms>  (86) 
nan

$$$$
CHEMBL4226319
     RDKit          3D

  0  0  0  0  0  0  0  0  0  0999 V3000
M  V30 BEGIN CTAB
M  V30 COUNTS 147 152 0 0 0
M  V30 BEGIN ATOM
M  V30 1 C -0.167910 4.459758 0.556004 0
M  V30 2 C -0.054915 4.372607 2.040049 0
M  V30 3 N -1.088673 4.797463 2.716635 0
M  V30 4 C -1.010691 4.716260 4.053925 0
M  V30 5 S 0.618092 3.998835 4.351530 0
M  V30 6 C 1.085909 3.858228 2.602334 0
M  V30 7 C 2.319788 3.328945 2.199489 0
M  V30 8 C 2.852486 3.194928 0.941459 0
M  V30 9 C 4.060152 2.653228 0.576311 0
M  V30 10 C 4.833183 2.184719 1.621329 0
M  V30 11 C 6.140526 1.588861 1.289026 0
M  V30 12 N 6.073018 0.205731 0.958468 0
M  V30 13 C 5.905954 -0.845992 1.889919 0
M  V30 14 O 5.802721 -0.678768 3.134166 0
M  V30 15 C 5.816610 -2.319930 1.609072 0 CFG=2
M  V30 16 C 7.010923 -3.006179 2.168924 0
M  V30 17 C 7.997545 -3.106780 1.033830 0 CFG=1
M  V30 18 O 8.629283 -4.355310 1.117638 0
M  V30 19 C 7.240015 -2.915889 -0.256053 0
M  V30 20 N 5.883530 -2.618800 0.196489 0
M  V30 21 C 4.686849 -2.587702 -0.558887 0
M  V30 22 O 3.536708 -2.349985 -0.098430 0
M  V30 23 C 4.026168 -2.722651 -1.843707 0 CFG=1
M  V30 24 N 2.561514 -2.563459 -1.704901 0
M  V30 25 C 1.703588 -3.486461 -2.397426 0
M  V30 26 O 2.048051 -4.440176 -3.140294 0
M  V30 27 C 0.237535 -3.327890 -2.242144 0
M  V30 28 O -0.387587 -4.317510 -3.003122 0
M  V30 29 C -1.776228 -4.250751 -2.856467 0
M  V30 30 C -2.370168 -2.944606 -3.225323 0
M  V30 31 C -2.175842 -2.516579 -4.656654 0
M  V30 32 O -2.773637 -1.276421 -4.765365 0
M  V30 33 C -2.749944 -0.691005 -6.007913 0
M  V30 34 C -3.356812 0.673925 -5.971389 0
M  V30 35 C -3.397623 1.409841 -7.274214 0
M  V30 36 C -4.007550 2.777033 -6.929822 0
M  V30 37 O -5.310173 2.617010 -6.393208 0
M  V30 38 C -5.765307 3.829896 -5.946333 0
M  V30 39 C -7.129485 3.837103 -5.334295 0
M  V30 40 C -7.244332 2.853170 -4.191802 0
M  V30 41 O -6.291773 3.039545 -3.196457 0
M  V30 42 C -6.316964 2.163147 -2.090219 0
M  V30 43 C -7.335505 1.220169 -2.100242 0
M  V30 44 C -7.420545 0.311607 -1.038671 0
M  V30 45 C -6.520880 0.339041 -0.000061 0
M  V30 46 N -6.656071 -0.587101 1.072688 0
M  V30 47 C -5.357534 -1.125850 1.292808 0
M  V30 48 N -5.473521 -2.307459 0.642063 0
M  V30 49 C -4.504252 -3.226823 0.526321 0
M  V30 50 C -3.282599 -2.976814 1.103920 0
M  V30 51 Cl -1.904753 -4.056543 1.069739 0
M  V30 52 C -3.144757 -1.759123 1.780105 0
M  V30 53 N -1.934859 -1.338976 2.393528 0
M  V30 54 C -1.540148 -0.179859 3.133906 0
M  V30 55 C -0.077115 -0.158505 3.433670 0
M  V30 56 C 0.367299 -1.331535 4.238819 0
M  V30 57 N -0.250837 -1.445354 5.537504 0
M  V30 58 C -1.474052 -2.155786 5.857616 0
M  V30 59 C 0.360668 -0.827870 6.641732 0
M  V30 60 O 1.313323 -0.347426 5.979814 0
M  V30 61 C 0.854508 -0.252079 7.915462 0
M  V30 62 C 2.114365 0.566502 7.774452 0
M  V30 63 C 2.925480 -0.699607 8.016347 0
M  V30 64 C 1.682000 -1.269500 8.715745 0
M  V30 65 N -4.147666 -0.870798 1.869582 0
M  V30 66 C -5.538789 1.311769 -0.071078 0
M  V30 67 C -5.383761 2.240992 -1.073888 0
M  V30 68 C 4.423022 -1.612142 -2.831463 0
M  V30 69 C 3.692865 -1.853135 -4.161900 0
M  V30 70 C 3.915039 -0.308123 -2.221545 0
M  V30 71 C 5.884829 -1.565509 -3.103136 0
M  V30 72 C 4.411497 2.264152 2.905808 0
M  V30 73 C 3.195359 2.819766 3.170166 0
M  V30 74 H -0.065517 3.420672 0.117939 0
M  V30 75 H 0.525962 5.192207 0.107166 0
M  V30 76 H -1.175215 4.773665 0.195844 0
M  V30 77 H -1.847436 5.055538 4.719183 0
M  V30 78 H 2.244203 3.570686 0.137661 0
M  V30 79 H 4.372726 2.601138 -0.449113 0
M  V30 80 H 6.784236 1.677857 2.202559 0
M  V30 81 H 6.617442 2.195202 0.501840 0
M  V30 82 H 6.144411 -0.184190 0.004552 0
M  V30 83 H 4.890910 -2.726555 2.074117 0
M  V30 84 H 6.796033 -3.994327 2.628598 0
M  V30 85 H 7.413843 -2.366670 2.989380 0
M  V30 86 H 8.783993 -2.305645 1.134086 0
M  V30 87 H 8.708403 -4.547061 2.099949 0
M  V30 88 H 7.193758 -3.902461 -0.808796 0
M  V30 89 H 7.657151 -2.124484 -0.878693 0
M  V30 90 H 4.226400 -3.671550 -2.333778 0
M  V30 91 H 2.074337 -1.816027 -1.137813 0
M  V30 92 H -0.028135 -2.304316 -2.575066 0
M  V30 93 H -0.037464 -3.366652 -1.171359 0
M  V30 94 H -2.175248 -5.022147 -3.578935 0
M  V30 95 H -2.100369 -4.602961 -1.861314 0
M  V30 96 H -3.487195 -3.043770 -3.079406 0
M  V30 97 H -2.050359 -2.111207 -2.573481 0
M  V30 98 H -2.592993 -3.250602 -5.372521 0
M  V30 99 H -1.091090 -2.351965 -4.849264 0
M  V30 100 H -3.352712 -1.356292 -6.682765 0
M  V30 101 H -1.739286 -0.651621 -6.455036 0
M  V30 102 H -2.764574 1.289741 -5.244884 0
M  V30 103 H -4.419814 0.604159 -5.619873 0
M  V30 104 H -2.381029 1.614995 -7.641810 0
M  V30 105 H -4.000440 0.916566 -8.039033 0
M  V30 106 H -4.074876 3.431767 -7.813226 0
M  V30 107 H -3.387425 3.221925 -6.131254 0
M  V30 108 H -5.836401 4.491905 -6.860182 0
M  V30 109 H -5.012090 4.326030 -5.272263 0
M  V30 110 H -7.875926 3.555492 -6.101321 0
M  V30 111 H -7.380015 4.828614 -4.919024 0
M  V30 112 H -7.289674 1.816415 -4.612582 0
M  V30 113 H -8.255002 3.040511 -3.737155 0
M  V30 114 H -8.082180 1.118806 -2.860826 0
M  V30 115 H -8.204468 -0.463118 -0.985572 0
M  V30 116 H -7.488039 -0.855180 1.615828 0
M  V30 117 H -4.489507 -4.201530 0.029566 0
M  V30 118 H -1.181502 -2.050759 2.253839 0
M  V30 119 H -2.170698 -0.140518 4.053488 0
M  V30 120 H -1.773446 0.701405 2.477413 0
M  V30 121 H 0.514440 -0.039605 2.493004 0
M  V30 122 H 0.152811 0.770231 4.029932 0
M  V30 123 H 0.158443 -2.282392 3.696497 0
M  V30 124 H 1.489416 -1.278590 4.341779 0
M  V30 125 H -2.227065 -1.481019 6.286408 0
M  V30 126 H -1.294087 -2.968574 6.616550 0
M  V30 127 H -1.912009 -2.590116 4.938044 0
M  V30 128 H 0.089183 0.256123 8.532632 0
M  V30 129 H 2.212315 1.332680 8.579823 0
M  V30 130 H 2.294745 1.048659 6.802155 0
M  V30 131 H 3.166905 -1.232004 7.074782 0
M  V30 132 H 3.796078 -0.593888 8.673891 0
M  V30 133 H 1.474786 -2.308255 8.395227 0
M  V30 134 H 1.695498 -1.078976 9.808908 0
M  V30 135 H -4.839086 1.301995 0.777085 0
M  V30 136 H -4.604384 2.984664 -1.091881 0
M  V30 137 H 3.917292 -2.873260 -4.513291 0
M  V30 138 H 4.053778 -1.093696 -4.882347 0
M  V30 139 H 2.630289 -1.674719 -3.965767 0
M  V30 140 H 4.422070 0.574838 -2.657593 0
M  V30 141 H 4.087612 -0.355372 -1.145299 0
M  V30 142 H 2.816834 -0.323507 -2.384564 0
M  V30 143 H 6.358374 -2.569888 -3.044627 0
M  V30 144 H 6.362716 -0.820123 -2.409586 0
M  V30 145 H 6.121355 -1.184322 -4.141400 0
M  V30 146 H 5.061254 1.887242 3.675457 0
M  V30 147 H 2.948529 2.837032 4.245489 0
M  V30 END ATOM
M  V30 BEGIN BOND
M  V30 1 1 1 2
M  V30 2 1 2 3
M  V30 3 2 3 4
M  V30 4 1 4 5
M  V30 5 1 5 6
M  V30 6 1 6 7
M  V30 7 2 7 8
M  V30 8 1 8 9
M  V30 9 2 9 10
M  V30 10 1 10 11
M  V30 11 1 11 12
M  V30 12 1 12 13
M  V30 13 2 13 14
M  V30 14 1 13 15
M  V30 15 1 15 16
M  V30 16 1 16 17
M  V30 17 1 17 18
M  V30 18 1 17 19
M  V30 19 1 19 20
M  V30 20 1 20 21
M  V30 21 2 21 22
M  V30 22 1 21 23
M  V30 23 1 23 24
M  V30 24 1 24 25
M  V30 25 2 25 26
M  V30 26 1 25 27
M  V30 27 1 27 28
M  V30 28 1 28 29
M  V30 29 1 29 30
M  V30 30 1 30 31
M  V30 31 1 31 32
M  V30 32 1 32 33
M  V30 33 1 33 34
M  V30 34 1 34 35
M  V30 35 1 35 36
M  V30 36 1 36 37
M  V30 37 1 37 38
M  V30 38 1 38 39
M  V30 39 1 39 40
M  V30 40 1 40 41
M  V30 41 1 41 42
M  V30 42 2 42 43
M  V30 43 1 43 44
M  V30 44 2 44 45
M  V30 45 1 45 46
M  V30 46 1 46 47
M  V30 47 2 47 48
M  V30 48 1 48 49
M  V30 49 2 49 50
M  V30 50 1 50 51
M  V30 51 1 50 52
M  V30 52 1 52 53
M  V30 53 1 53 54
M  V30 54 1 54 55
M  V30 55 1 55 56
M  V30 56 1 56 57
M  V30 57 1 57 58
M  V30 58 1 57 59
M  V30 59 2 59 60
M  V30 60 1 59 61
M  V30 61 1 61 62
M  V30 62 1 62 63
M  V30 63 1 63 64
M  V30 64 2 52 65
M  V30 65 1 45 66
M  V30 66 2 66 67
M  V30 67 1 23 68
M  V30 68 1 68 69
M  V30 69 1 68 70
M  V30 70 1 68 71
M  V30 71 1 10 72
M  V30 72 2 72 73
M  V30 73 2 6 2
M  V30 74 1 73 7
M  V30 75 1 20 15
M  V30 76 1 67 42
M  V30 77 1 65 47
M  V30 78 1 64 61
M  V30 79 1 1 74
M  V30 80 1 1 75
M  V30 81 1 1 76
M  V30 82 1 4 77
M  V30 83 1 8 78
M  V30 84 1 9 79
M  V30 85 1 11 80
M  V30 86 1 11 81
M  V30 87 1 12 82
M  V30 88 1 15 83 CFG=1
M  V30 89 1 16 84
M  V30 90 1 16 85
M  V30 91 1 17 86 CFG=1
M  V30 92 1 18 87
M  V30 93 1 19 88
M  V30 94 1 19 89
M  V30 95 1 23 90 CFG=3
M  V30 96 1 24 91
M  V30 97 1 27 92
M  V30 98 1 27 93
M  V30 99 1 29 94
M  V30 100 1 29 95
M  V30 101 1 30 96
M  V30 102 1 30 97
M  V30 103 1 31 98
M  V30 104 1 31 99
M  V30 105 1 33 100
M  V30 106 1 33 101
M  V30 107 1 34 102
M  V30 108 1 34 103
M  V30 109 1 35 104
M  V30 110 1 35 105
M  V30 111 1 36 106
M  V30 112 1 36 107
M  V30 113 1 38 108
M  V30 114 1 38 109
M  V30 115 1 39 110
M  V30 116 1 39 111
M  V30 117 1 40 112
M  V30 118 1 40 113
M  V30 119 1 43 114
M  V30 120 1 44 115
M  V30 121 1 46 116
M  V30 122 1 49 117
M  V30 123 1 53 118
M  V30 124 1 54 119
M  V30 125 1 54 120
M  V30 126 1 55 121
M  V30 127 1 55 122
M  V30 128 1 56 123
M  V30 129 1 56 124
M  V30 130 1 58 125
M  V30 131 1 58 126
M  V30 132 1 58 127
M  V30 133 1 61 128
M  V30 134 1 62 129
M  V30 135 1 62 130
M  V30 136 1 63 131
M  V30 137 1 63 132
M  V30 138 1 64 133
M  V30 139 1 64 134
M  V30 140 1 66 135
M  V30 141 1 67 136
M  V30 142 1 69 137
M  V30 143 1 69 138
M  V30 144 1 69 139
M  V30 145 1 70 140
M  V30 146 1 70 141
M  V30 147 1 70 142
M  V30 148 1 71 143
M  V30 149 1 71 144
M  V30 150 1 71 145
M  V30 151 1 72 146
M  V30 152 1 73 147
M  V30 END BOND
M  V30 END CTAB
M  END
>  <Dataset>  (87) 
ChEMBL_Kinases

>  <Ligand_Instance>  (87) 
nan

>  <PDB_ID>  (87) 
nan

>  <Standardized_SMILES>  (87) 
Cc1ncsc1-c1ccc(CNC(=O)[C@@H]2C[C@@H](O)CN2C(=O)[C@@H](NC(=O)COCCCOCCCCOCCCOc2ccc(Nc3ncc(Cl)c(NCCCN(C)C(=O)C4CCC4)n3)cc2)C(C)(C)C)cc1

>  <Name>  (87) 
nan

>  <Pocket>  (87) 
nan

>  <ATP_Site>  (87) 
nan

>  <Peripheral>  (87) 
nan

>  <Num_H_Atoms_ProtBoundConf>  (87) 
nan

>  <Num_Resolved_Atoms>  (87) 
nan

>  <Num_Not_Resolved_Atoms>  (87) 
nan

$$$$
CHEMBL4227582
     RDKit          3D

  0  0  0  0  0  0  0  0  0  0999 V3000
M  V30 BEGIN CTAB
M  V30 COUNTS 50 54 0 0 0
M  V30 BEGIN ATOM
M  V30 1 C 3.249225 -4.088238 0.256857 0
M  V30 2 C 2.643808 -3.011346 -0.561526 0
M  V30 3 C 2.859939 -1.715890 -0.146247 0
M  V30 4 C 2.317775 -0.699622 -0.875341 0
M  V30 5 C 2.387227 0.748076 -0.664557 0
M  V30 6 N 2.966503 1.600973 -1.528520 0
M  V30 7 C 2.848797 2.846843 -1.022800 0
M  V30 8 C 3.261634 4.073944 -1.493459 0
M  V30 9 C 3.029702 5.242965 -0.795200 0
M  V30 10 C 2.348599 5.085829 0.417161 0
M  V30 11 N 1.942377 3.887255 0.882396 0
M  V30 12 N 2.200428 2.807654 0.157158 0
M  V30 13 C 1.908461 1.515436 0.392105 0
M  V30 14 C 1.215328 0.922544 1.529981 0
M  V30 15 C 1.667167 1.049019 2.830339 0
M  V30 16 C 0.990604 0.472790 3.900634 0
M  V30 17 N -0.149589 -0.237969 3.672606 0
M  V30 18 C -0.645819 -0.400276 2.426038 0
M  V30 19 N -1.830686 -1.139064 2.173245 0
M  V30 20 C -3.216101 -0.905264 2.084815 0
M  V30 21 O -3.706848 0.239884 2.254190 0
M  V30 22 C -4.090990 -2.030986 1.788593 0
M  V30 23 C -5.431966 -1.725585 1.703676 0
M  V30 24 C -6.393436 -2.703074 1.425469 0
M  V30 25 C -5.941155 -3.981985 1.240505 0
M  V30 26 C -4.615535 -4.276363 1.325817 0
M  V30 27 F -4.137642 -5.551088 1.144809 0
M  V30 28 C -3.656336 -3.315932 1.600654 0
M  V30 29 C 0.051956 0.188844 1.363554 0
M  V30 30 C 1.564354 -0.992247 -2.013488 0
M  V30 31 C 1.349415 -2.293720 -2.427494 0
M  V30 32 C 1.899411 -3.323918 -1.687794 0
M  V30 33 F 1.706768 -4.608232 -2.067355 0
M  V30 34 H 2.577955 -4.327907 1.112058 0
M  V30 35 H 4.275624 -3.868502 0.583172 0
M  V30 36 H 3.287804 -5.023819 -0.362262 0
M  V30 37 H 3.414677 -1.382532 0.700284 0
M  V30 38 H 3.795492 4.193581 -2.444273 0
M  V30 39 H 3.302458 6.243289 -1.061738 0
M  V30 40 H 2.087401 5.908492 1.088430 0
M  V30 41 H 2.580205 1.615508 3.033860 0
M  V30 42 H 1.363058 0.584362 4.915571 0
M  V30 43 H -1.328718 -2.043048 2.050691 0
M  V30 44 H -5.840774 -0.727675 1.842111 0
M  V30 45 H -7.448172 -2.440764 1.362647 0
M  V30 46 H -6.661575 -4.746204 1.026304 0
M  V30 47 H -2.617237 -3.553297 1.666393 0
M  V30 48 H -0.328531 0.071108 0.355224 0
M  V30 49 H 1.077800 -0.263957 -2.681119 0
M  V30 50 H 0.770681 -2.561327 -3.304912 0
M  V30 END ATOM
M  V30 BEGIN BOND
M  V30 1 1 1 2
M  V30 2 2 2 3
M  V30 3 1 3 4
M  V30 4 1 4 5
M  V30 5 1 5 6
M  V30 6 2 6 7
M  V30 7 1 7 8
M  V30 8 2 8 9
M  V30 9 1 9 10
M  V30 10 2 10 11
M  V30 11 1 11 12
M  V30 12 1 12 13
M  V30 13 1 13 14
M  V30 14 2 14 15
M  V30 15 1 15 16
M  V30 16 2 16 17
M  V30 17 1 17 18
M  V30 18 1 18 19
M  V30 19 1 19 20
M  V30 20 2 20 21
M  V30 21 1 20 22
M  V30 22 2 22 23
M  V30 23 1 23 24
M  V30 24 2 24 25
M  V30 25 1 25 26
M  V30 26 1 26 27
M  V30 27 2 26 28
M  V30 28 2 18 29
M  V30 29 2 4 30
M  V30 30 1 30 31
M  V30 31 2 31 32
M  V30 32 1 32 33
M  V30 33 1 32 2
M  V30 34 2 13 5
M  V30 35 1 29 14
M  V30 36 1 12 7
M  V30 37 1 28 22
M  V30 38 1 1 34
M  V30 39 1 1 35
M  V30 40 1 1 36
M  V30 41 1 3 37
M  V30 42 1 8 38
M  V30 43 1 9 39
M  V30 44 1 10 40
M  V30 45 1 15 41
M  V30 46 1 16 42
M  V30 47 1 19 43
M  V30 48 1 23 44
M  V30 49 1 24 45
M  V30 50 1 25 46
M  V30 51 1 28 47
M  V30 52 1 29 48
M  V30 53 1 30 49
M  V30 54 1 31 50
M  V30 END BOND
M  V30 END CTAB
M  END
>  <Dataset>  (88) 
ChEMBL_Kinases

>  <Ligand_Instance>  (88) 
nan

>  <PDB_ID>  (88) 
nan

>  <Standardized_SMILES>  (88) 
Cc1cc(-c2nc3cccnn3c2-c2ccnc(NC(=O)c3cccc(F)c3)c2)ccc1F

>  <Name>  (88) 
nan

>  <Pocket>  (88) 
nan

>  <ATP_Site>  (88) 
nan

>  <Peripheral>  (88) 
nan

>  <Num_H_Atoms_ProtBoundConf>  (88) 
nan

>  <Num_Resolved_Atoms>  (88) 
nan

>  <Num_Not_Resolved_Atoms>  (88) 
nan

$$$$
CHEMBL4226300
     RDKit          3D

  0  0  0  0  0  0  0  0  0  0999 V3000
M  V30 BEGIN CTAB
M  V30 COUNTS 45 47 0 0 0
M  V30 BEGIN ATOM
M  V30 1 O 1.344344 -0.538656 1.843686 0
M  V30 2 C 0.847731 -0.143151 0.757911 0
M  V30 3 N 1.557119 -0.366801 -0.435013 0
M  V30 4 O 2.753059 -1.010044 -0.305972 0
M  V30 5 C 3.270080 -1.119087 -1.607534 0
M  V30 6 C 4.599700 -1.813635 -1.621744 0 CFG=1
M  V30 7 O 5.007124 -1.860213 -2.963178 0
M  V30 8 C 5.666490 -1.021826 -0.894862 0
M  V30 9 O 6.884724 -1.665529 -1.030530 0
M  V30 10 C -0.444718 0.526674 0.822163 0
M  V30 11 C -1.088568 1.003827 -0.301352 0
M  V30 12 C -2.313084 1.641254 -0.263301 0
M  V30 13 C -2.918087 1.804080 0.980508 0
M  V30 14 C -2.280032 1.327808 2.121397 0
M  V30 15 F -2.862099 1.482706 3.332258 0
M  V30 16 C -1.040711 0.686096 2.055333 0
M  V30 17 N -0.456173 0.228021 3.275637 0
M  V30 18 C -0.810811 -1.096082 3.638328 0
M  V30 19 C -1.658554 -1.852031 2.846519 0
M  V30 20 C -2.044143 -3.162586 3.152012 0
M  V30 21 C -1.553065 -3.742631 4.311614 0
M  V30 22 I -2.100965 -5.708717 4.817257 0
M  V30 23 C -0.708486 -3.005122 5.111223 0
M  V30 24 C -0.335551 -1.713760 4.799351 0
M  V30 25 F 0.495673 -1.036202 5.619604 0
M  V30 26 O -4.126229 2.458951 0.808973 0
M  V30 27 C -4.548908 2.184624 -0.517061 0
M  V30 28 C -3.231343 2.247004 -1.263809 0
M  V30 29 H 1.161277 -0.046074 -1.344532 0
M  V30 30 H 2.583858 -1.699947 -2.246681 0
M  V30 31 H 3.397456 -0.133288 -2.094952 0
M  V30 32 H 4.540323 -2.842477 -1.249444 0
M  V30 33 H 4.667219 -1.035943 -3.417397 0
M  V30 34 H 5.756663 -0.021308 -1.383061 0
M  V30 35 H 5.469790 -0.919796 0.193256 0
M  V30 36 H 7.352006 -1.450899 -1.875914 0
M  V30 37 H -0.647890 0.893687 -1.275812 0
M  V30 38 H 0.197060 0.734937 3.937857 0
M  V30 39 H -2.074684 -1.448553 1.924510 0
M  V30 40 H -2.719416 -3.696360 2.474223 0
M  V30 41 H -0.354062 -3.516799 6.012192 0
M  V30 42 H -5.277265 2.928026 -0.895334 0
M  V30 43 H -4.924985 1.140592 -0.551044 0
M  V30 44 H -3.258507 1.695823 -2.218732 0
M  V30 45 H -2.944527 3.310404 -1.358407 0
M  V30 END ATOM
M  V30 BEGIN BOND
M  V30 1 2 1 2
M  V30 2 1 2 3
M  V30 3 1 3 4
M  V30 4 1 4 5
M  V30 5 1 5 6
M  V30 6 1 6 7
M  V30 7 1 6 8
M  V30 8 1 8 9
M  V30 9 1 2 10
M  V30 10 2 10 11
M  V30 11 1 11 12
M  V30 12 2 12 13
M  V30 13 1 13 14
M  V30 14 1 14 15
M  V30 15 2 14 16
M  V30 16 1 16 17
M  V30 17 1 17 18
M  V30 18 2 18 19
M  V30 19 1 19 20
M  V30 20 2 20 21
M  V30 21 1 21 22
M  V30 22 1 21 23
M  V30 23 2 23 24
M  V30 24 1 24 25
M  V30 25 1 13 26
M  V30 26 1 26 27
M  V30 27 1 27 28
M  V30 28 1 16 10
M  V30 29 1 24 18
M  V30 30 1 28 12
M  V30 31 1 3 29
M  V30 32 1 5 30
M  V30 33 1 5 31
M  V30 34 1 6 32 CFG=1
M  V30 35 1 7 33
M  V30 36 1 8 34
M  V30 37 1 8 35
M  V30 38 1 9 36
M  V30 39 1 11 37
M  V30 40 1 17 38
M  V30 41 1 19 39
M  V30 42 1 20 40
M  V30 43 1 23 41
M  V30 44 1 27 42
M  V30 45 1 27 43
M  V30 46 1 28 44
M  V30 47 1 28 45
M  V30 END BOND
M  V30 END CTAB
M  END
>  <Dataset>  (89) 
ChEMBL_Kinases

>  <Ligand_Instance>  (89) 
nan

>  <PDB_ID>  (89) 
nan

>  <Standardized_SMILES>  (89) 
O=C(NOC[C@@H](O)CO)c1cc2c(c(F)c1Nc1ccc(I)cc1F)OCC2

>  <Name>  (89) 
nan

>  <Pocket>  (89) 
nan

>  <ATP_Site>  (89) 
nan

>  <Peripheral>  (89) 
nan

>  <Num_H_Atoms_ProtBoundConf>  (89) 
nan

>  <Num_Resolved_Atoms>  (89) 
nan

>  <Num_Not_Resolved_Atoms>  (89) 
nan

$$$$
CHEMBL4226287
     RDKit          3D

  0  0  0  0  0  0  0  0  0  0999 V3000
M  V30 BEGIN CTAB
M  V30 COUNTS 64 68 0 0 0
M  V30 BEGIN ATOM
M  V30 1 C 4.843037 3.340496 1.823714 0
M  V30 2 C 4.678612 1.968776 1.305037 0
M  V30 3 C 3.478757 1.404382 1.231526 0
M  V30 4 C 2.232725 2.030447 1.630933 0
M  V30 5 O 1.088219 1.457501 1.549597 0
M  V30 6 N 1.676542 3.219698 2.164735 0
M  V30 7 C 0.262807 3.193818 2.330326 0
M  V30 8 C -0.385258 3.647966 1.192414 0
M  V30 9 C -1.783202 3.698373 1.157778 0
M  V30 10 C -2.509923 3.296248 2.254964 0
M  V30 11 N -3.826175 3.207429 2.577765 0
M  V30 12 N -3.975783 2.735288 3.817036 0
M  V30 13 C -2.762633 2.494786 4.359334 0
M  V30 14 C -1.851274 2.847142 3.378632 0
M  V30 15 C -0.457639 2.789794 3.430994 0
M  V30 16 C 3.219024 0.000058 0.724840 0
M  V30 17 C 2.190872 -0.050134 -0.329554 0
M  V30 18 C 2.345676 0.480556 -1.584583 0
M  V30 19 C 1.355665 0.382767 -2.540916 0
M  V30 20 C 0.154252 -0.259041 -2.276946 0
M  V30 21 F -0.829452 -0.365957 -3.203204 0
M  V30 22 C -0.077041 -0.820062 -1.033931 0
M  V30 23 C -1.328903 -1.524760 -0.659193 0
M  V30 24 C -1.371442 -2.897196 -1.254708 0
M  V30 25 O -0.453215 -3.385207 -1.993614 0
M  V30 26 N -2.551460 -3.634247 -0.920760 0
M  V30 27 C -2.642555 -4.970895 -1.471555 0
M  V30 28 C -3.869092 -5.094373 -2.375456 0
M  V30 29 C -4.722073 -6.079815 -1.690090 0
M  V30 30 O -5.867272 -6.478656 -1.970106 0
M  V30 31 N -4.082808 -6.615473 -0.550042 0
M  V30 32 C -4.530465 -7.600651 0.422624 0
M  V30 33 C -2.765388 -6.020480 -0.412932 0
M  V30 34 C 0.957198 -0.682207 -0.131675 0
M  V30 35 N 4.485704 -0.509170 0.338432 0
M  V30 36 C 5.831014 -0.054170 0.351671 0
M  V30 37 O 6.795345 -0.734679 -0.040915 0
M  V30 38 N 5.863357 1.266726 0.875322 0
M  V30 39 H 5.957582 3.559366 1.816446 0
M  V30 40 H 4.602427 3.439938 2.910008 0
M  V30 41 H 4.406736 4.122087 1.180718 0
M  V30 42 H 2.454114 3.911541 2.336690 0
M  V30 43 H 0.029325 3.995886 0.257182 0
M  V30 44 H -2.374836 4.036387 0.321120 0
M  V30 45 H -4.583448 3.483125 1.909521 0
M  V30 46 H -2.555138 2.105360 5.356647 0
M  V30 47 H 0.142507 2.455694 4.255519 0
M  V30 48 H 2.857426 -0.585998 1.596400 0
M  V30 49 H 3.271135 0.983496 -1.813743 0
M  V30 50 H 1.506622 0.815520 -3.537417 0
M  V30 51 H -1.311579 -1.664787 0.439495 0
M  V30 52 H -2.210427 -0.936908 -0.990756 0
M  V30 53 H -3.312194 -3.254751 -0.320260 0
M  V30 54 H -1.747036 -5.183986 -2.081793 0
M  V30 55 H -3.594867 -5.411722 -3.405997 0
M  V30 56 H -4.395198 -4.105992 -2.450083 0
M  V30 57 H -5.507494 -8.058996 0.112710 0
M  V30 58 H -4.661173 -7.176027 1.439358 0
M  V30 59 H -3.790756 -8.449275 0.485387 0
M  V30 60 H -2.015099 -6.850241 -0.530074 0
M  V30 61 H -2.613899 -5.627236 0.619080 0
M  V30 62 H 0.774637 -1.135959 0.849354 0
M  V30 63 H 4.254171 -1.461782 -0.037784 0
M  V30 64 H 6.811169 1.724801 0.938491 0
M  V30 END ATOM
M  V30 BEGIN BOND
M  V30 1 1 1 2
M  V30 2 2 2 3
M  V30 3 1 3 4
M  V30 4 2 4 5
M  V30 5 1 4 6
M  V30 6 1 6 7
M  V30 7 2 7 8
M  V30 8 1 8 9
M  V30 9 2 9 10
M  V30 10 1 10 11
M  V30 11 1 11 12
M  V30 12 2 12 13
M  V30 13 1 13 14
M  V30 14 2 14 15
M  V30 15 1 3 16
M  V30 16 1 16 17
M  V30 17 2 17 18
M  V30 18 1 18 19
M  V30 19 2 19 20
M  V30 20 1 20 21
M  V30 21 1 20 22
M  V30 22 1 22 23
M  V30 23 1 23 24
M  V30 24 2 24 25
M  V30 25 1 24 26
M  V30 26 1 26 27
M  V30 27 1 27 28
M  V30 28 1 28 29
M  V30 29 2 29 30
M  V30 30 1 29 31
M  V30 31 1 31 32
M  V30 32 1 31 33
M  V30 33 2 22 34
M  V30 34 1 16 35
M  V30 35 1 35 36
M  V30 36 2 36 37
M  V30 37 1 36 38
M  V30 38 1 38 2
M  V30 39 1 15 7
M  V30 40 1 34 17
M  V30 41 1 14 10
M  V30 42 1 33 27
M  V30 43 1 1 39
M  V30 44 1 1 40
M  V30 45 1 1 41
M  V30 46 1 6 42
M  V30 47 1 8 43
M  V30 48 1 9 44
M  V30 49 1 11 45
M  V30 50 1 13 46
M  V30 51 1 15 47
M  V30 52 1 16 48
M  V30 53 1 18 49
M  V30 54 1 19 50
M  V30 55 1 23 51
M  V30 56 1 23 52
M  V30 57 1 26 53
M  V30 58 1 27 54
M  V30 59 1 28 55
M  V30 60 1 28 56
M  V30 61 1 32 57
M  V30 62 1 32 58
M  V30 63 1 32 59
M  V30 64 1 33 60
M  V30 65 1 33 61
M  V30 66 1 34 62
M  V30 67 1 35 63
M  V30 68 1 38 64
M  V30 END BOND
M  V30 END CTAB
M  END
>  <Dataset>  (90) 
ChEMBL_Kinases

>  <Ligand_Instance>  (90) 
nan

>  <PDB_ID>  (90) 
nan

>  <Standardized_SMILES>  (90) 
CC1=C(C(=O)Nc2ccc3[nH]ncc3c2)C(c2ccc(F)c(CC(=O)NC3CC(=O)N(C)C3)c2)NC(=O)N1

>  <Name>  (90) 
nan

>  <Pocket>  (90) 
nan

>  <ATP_Site>  (90) 
nan

>  <Peripheral>  (90) 
nan

>  <Num_H_Atoms_ProtBoundConf>  (90) 
nan

>  <Num_Resolved_Atoms>  (90) 
nan

>  <Num_Not_Resolved_Atoms>  (90) 
nan

$$$$
CHEMBL4226250
     RDKit          3D

  0  0  0  0  0  0  0  0  0  0999 V3000
M  V30 BEGIN CTAB
M  V30 COUNTS 154 160 0 0 0
M  V30 BEGIN ATOM
M  V30 1 C 5.723683 3.743880 1.083203 0
M  V30 2 C 6.306182 3.127884 -0.137763 0
M  V30 3 N 7.486606 2.575269 -0.140496 0
M  V30 4 C 8.032095 2.064697 -1.108391 0
M  V30 5 S 6.715933 2.327113 -2.444356 0
M  V30 6 C 5.582252 3.152196 -1.324167 0
M  V30 7 C 4.300775 3.645693 -1.812151 0
M  V30 8 C 4.084153 3.537200 -3.178385 0
M  V30 9 C 2.868193 4.010835 -3.683754 0
M  V30 10 C 1.876964 4.579524 -2.884455 0
M  V30 11 C 0.702710 5.059623 -3.624206 0
M  V30 12 N -0.315816 4.079504 -3.842931 0
M  V30 13 C -1.386668 3.618060 -2.987932 0
M  V30 14 O -1.439352 4.155316 -1.851625 0
M  V30 15 C -2.268572 2.573861 -3.602512 0 CFG=2
M  V30 16 C -2.514853 2.977749 -5.036482 0
M  V30 17 C -4.012971 3.077369 -5.118550 0 CFG=1
M  V30 18 O -4.593883 1.845693 -5.443993 0
M  V30 19 C -4.355952 3.333763 -3.654637 0
M  V30 20 N -3.500368 2.362571 -2.947718 0
M  V30 21 C -3.870089 1.475760 -1.924299 0
M  V30 22 O -2.973222 0.718750 -1.471120 0
M  V30 23 C -4.822206 0.878970 -0.994925 0 CFG=1
M  V30 24 N -4.148271 -0.219704 -0.308641 0
M  V30 25 C -4.543081 -1.605249 -0.394580 0
M  V30 26 O -5.538605 -1.821316 -1.118370 0
M  V30 27 C -3.771897 -2.665573 0.352920 0
M  V30 28 O -2.751166 -2.018545 1.034095 0
M  V30 29 C -1.959914 -2.963975 1.699325 0
M  V30 30 C -0.850811 -2.202657 2.439910 0
M  V30 31 C -1.509960 -1.308424 3.450069 0
M  V30 32 O -2.440416 -0.417723 2.901486 0
M  V30 33 C -2.981813 0.279040 3.937808 0
M  V30 34 C -2.135545 1.288665 4.605178 0
M  V30 35 C -1.840649 2.480032 3.700516 0
M  V30 36 C -1.028275 3.516571 4.428387 0
M  V30 37 O 0.224691 3.364247 4.745279 0
M  V30 38 C 1.004583 2.422913 5.168977 0
M  V30 39 C 1.419327 1.446656 4.018284 0
M  V30 40 C 2.134426 2.361379 3.035995 0
M  V30 41 O 2.615273 1.754964 1.952031 0
M  V30 42 C 2.072975 1.062217 0.960193 0
M  V30 43 C 0.847396 0.613982 0.535304 0
M  V30 44 C 0.671213 -0.114599 -0.610510 0
M  V30 45 C 1.729475 -0.443604 -1.415297 0
M  V30 46 N 1.518918 -1.228762 -2.588435 0
M  V30 47 C 0.297632 -1.986758 -2.684965 0
M  V30 48 N -0.942083 -1.724402 -3.065007 0
M  V30 49 C -1.866975 -2.719218 -3.028345 0
M  V30 50 C -1.532921 -3.983331 -2.604459 0
M  V30 51 C -2.495966 -5.093282 -2.547704 0
M  V30 52 C -2.735113 -6.001673 -3.679007 0
M  V30 53 C -3.826975 -4.985631 -3.285128 0
M  V30 54 C -0.231225 -4.247036 -2.208700 0
M  V30 55 N 0.133322 -5.571892 -1.754201 0
M  V30 56 C 1.547437 -5.680002 -1.384904 0
M  V30 57 C 1.898367 -7.049583 -0.864415 0
M  V30 58 C 3.358949 -7.093633 -0.526592 0
M  V30 59 N 3.773746 -6.132672 0.468023 0
M  V30 60 C 4.230651 -4.821076 0.004319 0
M  V30 61 C 3.855630 -6.173904 1.876794 0
M  V30 62 O 4.226595 -5.314666 2.721534 0
M  V30 63 C 3.484864 -7.351579 2.699466 0
M  V30 64 C 3.688454 -7.153463 4.175375 0
M  V30 65 C 2.199634 -7.206096 4.367618 0
M  V30 66 C 1.979550 -7.445336 2.892098 0
M  V30 67 N 0.619338 -3.209245 -2.275998 0
M  V30 68 C 3.012613 -0.026359 -1.057991 0
M  V30 69 C 3.157866 0.718729 0.124925 0
M  V30 70 C -5.350764 1.883907 -0.030991 0
M  V30 71 C -6.074922 3.025185 -0.690460 0
M  V30 72 C -4.241183 2.513414 0.813953 0
M  V30 73 C -6.372037 1.244742 0.925113 0
M  V30 74 C 2.095492 4.682884 -1.524736 0
M  V30 75 C 3.302839 4.205220 -1.079126 0
M  V30 76 H 6.458795 3.743441 1.950073 0
M  V30 77 H 5.500755 4.826628 0.957750 0
M  V30 78 H 4.883471 3.152683 1.450942 0
M  V30 79 H 8.978452 1.583410 -1.253718 0
M  V30 80 H 4.763111 3.116757 -3.928796 0
M  V30 81 H 2.714591 3.916238 -4.772164 0
M  V30 82 H 0.274501 5.966959 -3.086088 0
M  V30 83 H 1.051822 5.434784 -4.626432 0
M  V30 84 H -0.233062 3.626978 -4.793822 0
M  V30 85 H -1.690700 1.618307 -3.543792 0
M  V30 86 H -2.075930 2.273113 -5.757939 0
M  V30 87 H -2.132233 4.012009 -5.211114 0
M  V30 88 H -4.371322 3.899610 -5.763177 0
M  V30 89 H -4.536110 1.223742 -4.652200 0
M  V30 90 H -5.406515 3.100109 -3.466782 0
M  V30 91 H -4.138363 4.363340 -3.345557 0
M  V30 92 H -5.693323 0.494281 -1.577328 0
M  V30 93 H -3.321916 0.019211 0.284679 0
M  V30 94 H -3.327615 -3.312650 -0.428701 0
M  V30 95 H -4.462835 -3.232131 1.018115 0
M  V30 96 H -1.480437 -3.648398 0.997950 0
M  V30 97 H -2.575070 -3.440376 2.483732 0
M  V30 98 H -0.259534 -2.965013 3.001918 0
M  V30 99 H -0.193132 -1.677597 1.767444 0
M  V30 100 H -2.132089 -1.937433 4.158736 0
M  V30 101 H -0.774130 -0.803116 4.087880 0
M  V30 102 H -3.319265 -0.457576 4.735392 0
M  V30 103 H -3.924851 0.811656 3.614879 0
M  V30 104 H -1.251936 0.876115 5.098805 0
M  V30 105 H -2.747326 1.733012 5.449535 0
M  V30 106 H -1.425253 2.156529 2.742959 0
M  V30 107 H -2.848636 2.930394 3.485001 0
M  V30 108 H -1.203433 4.525977 3.850672 0
M  V30 109 H -1.654433 3.789497 5.368391 0
M  V30 110 H 2.016700 2.852000 5.464118 0
M  V30 111 H 0.724136 1.785855 6.040065 0
M  V30 112 H 0.526375 1.057941 3.559252 0
M  V30 113 H 2.073983 0.711076 4.484097 0
M  V30 114 H 2.903968 2.905346 3.666403 0
M  V30 115 H 1.389352 3.186506 2.824248 0
M  V30 116 H 0.094943 0.940611 1.249087 0
M  V30 117 H -0.345285 -0.411153 -0.836207 0
M  V30 118 H 2.253529 -1.228172 -3.334192 0
M  V30 119 H -2.865180 -2.469171 -3.345426 0
M  V30 120 H -2.576822 -5.556014 -1.528655 0
M  V30 121 H -2.309108 -5.889093 -4.683075 0
M  V30 122 H -3.028796 -7.059340 -3.436463 0
M  V30 123 H -3.952863 -4.122017 -3.959714 0
M  V30 124 H -4.735709 -5.381234 -2.770237 0
M  V30 125 H -0.603327 -6.288936 -1.730286 0
M  V30 126 H 1.724022 -4.977577 -0.515594 0
M  V30 127 H 2.197261 -5.339183 -2.192438 0
M  V30 128 H 1.639689 -7.846508 -1.583413 0
M  V30 129 H 1.285953 -7.232050 0.047713 0
M  V30 130 H 3.960787 -6.981164 -1.457076 0
M  V30 131 H 3.596124 -8.141878 -0.170952 0
M  V30 132 H 5.302350 -4.700375 0.316865 0
M  V30 133 H 3.678101 -3.984438 0.436273 0
M  V30 134 H 4.235101 -4.727864 -1.094454 0
M  V30 135 H 3.942749 -8.312963 2.361976 0
M  V30 136 H 4.148059 -6.176694 4.422062 0
M  V30 137 H 4.243966 -7.990601 4.677519 0
M  V30 138 H 1.816975 -6.214527 4.698509 0
M  V30 139 H 1.832365 -8.036255 4.999920 0
M  V30 140 H 1.574423 -8.463728 2.642636 0
M  V30 141 H 1.442835 -6.625083 2.381139 0
M  V30 142 H 3.773904 -0.333679 -1.753821 0
M  V30 143 H 4.231235 0.936467 0.207473 0
M  V30 144 H -6.665788 2.595442 -1.523627 0
M  V30 145 H -6.837965 3.429718 0.025496 0
M  V30 146 H -5.426869 3.829360 -1.056471 0
M  V30 147 H -4.558357 2.515493 1.897612 0
M  V30 148 H -3.257791 2.031711 0.656438 0
M  V30 149 H -4.102541 3.596703 0.587812 0
M  V30 150 H -5.923915 1.156961 1.947489 0
M  V30 151 H -6.771607 0.291591 0.530743 0
M  V30 152 H -7.260880 1.908324 1.078685 0
M  V30 153 H 1.326104 5.120397 -0.916372 0
M  V30 154 H 3.453021 4.287966 -0.017655 0
M  V30 END ATOM
M  V30 BEGIN BOND
M  V30 1 1 1 2
M  V30 2 1 2 3
M  V30 3 2 3 4
M  V30 4 1 4 5
M  V30 5 1 5 6
M  V30 6 1 6 7
M  V30 7 2 7 8
M  V30 8 1 8 9
M  V30 9 2 9 10
M  V30 10 1 10 11
M  V30 11 1 11 12
M  V30 12 1 12 13
M  V30 13 2 13 14
M  V30 14 1 13 15
M  V30 15 1 15 16
M  V30 16 1 16 17
M  V30 17 1 17 18
M  V30 18 1 17 19
M  V30 19 1 19 20
M  V30 20 1 20 21
M  V30 21 2 21 22
M  V30 22 1 21 23
M  V30 23 1 23 24
M  V30 24 1 24 25
M  V30 25 2 25 26
M  V30 26 1 25 27
M  V30 27 1 27 28
M  V30 28 1 28 29
M  V30 29 1 29 30
M  V30 30 1 30 31
M  V30 31 1 31 32
M  V30 32 1 32 33
M  V30 33 1 33 34
M  V30 34 1 34 35
M  V30 35 1 35 36
M  V30 36 1 36 37
M  V30 37 1 37 38
M  V30 38 1 38 39
M  V30 39 1 39 40
M  V30 40 1 40 41
M  V30 41 1 41 42
M  V30 42 2 42 43
M  V30 43 1 43 44
M  V30 44 2 44 45
M  V30 45 1 45 46
M  V30 46 1 46 47
M  V30 47 2 47 48
M  V30 48 1 48 49
M  V30 49 2 49 50
M  V30 50 1 50 51
M  V30 51 1 51 52
M  V30 52 1 52 53
M  V30 53 1 50 54
M  V30 54 1 54 55
M  V30 55 1 55 56
M  V30 56 1 56 57
M  V30 57 1 57 58
M  V30 58 1 58 59
M  V30 59 1 59 60
M  V30 60 1 59 61
M  V30 61 2 61 62
M  V30 62 1 61 63
M  V30 63 1 63 64
M  V30 64 1 64 65
M  V30 65 1 65 66
M  V30 66 2 54 67
M  V30 67 1 45 68
M  V30 68 2 68 69
M  V30 69 1 23 70
M  V30 70 1 70 71
M  V30 71 1 70 72
M  V30 72 1 70 73
M  V30 73 1 10 74
M  V30 74 2 74 75
M  V30 75 2 6 2
M  V30 76 1 75 7
M  V30 77 1 20 15
M  V30 78 1 69 42
M  V30 79 1 67 47
M  V30 80 1 53 51
M  V30 81 1 66 63
M  V30 82 1 1 76
M  V30 83 1 1 77
M  V30 84 1 1 78
M  V30 85 1 4 79
M  V30 86 1 8 80
M  V30 87 1 9 81
M  V30 88 1 11 82
M  V30 89 1 11 83
M  V30 90 1 12 84
M  V30 91 1 15 85 CFG=3
M  V30 92 1 16 86
M  V30 93 1 16 87
M  V30 94 1 17 88 CFG=3
M  V30 95 1 18 89
M  V30 96 1 19 90
M  V30 97 1 19 91
M  V30 98 1 23 92 CFG=3
M  V30 99 1 24 93
M  V30 100 1 27 94
M  V30 101 1 27 95
M  V30 102 1 29 96
M  V30 103 1 29 97
M  V30 104 1 30 98
M  V30 105 1 30 99
M  V30 106 1 31 100
M  V30 107 1 31 101
M  V30 108 1 33 102
M  V30 109 1 33 103
M  V30 110 1 34 104
M  V30 111 1 34 105
M  V30 112 1 35 106
M  V30 113 1 35 107
M  V30 114 1 36 108
M  V30 115 1 36 109
M  V30 116 1 38 110
M  V30 117 1 38 111
M  V30 118 1 39 112
M  V30 119 1 39 113
M  V30 120 1 40 114
M  V30 121 1 40 115
M  V30 122 1 43 116
M  V30 123 1 44 117
M  V30 124 1 46 118
M  V30 125 1 49 119
M  V30 126 1 51 120
M  V30 127 1 52 121
M  V30 128 1 52 122
M  V30 129 1 53 123
M  V30 130 1 53 124
M  V30 131 1 55 125
M  V30 132 1 56 126
M  V30 133 1 56 127
M  V30 134 1 57 128
M  V30 135 1 57 129
M  V30 136 1 58 130
M  V30 137 1 58 131
M  V30 138 1 60 132
M  V30 139 1 60 133
M  V30 140 1 60 134
M  V30 141 1 63 135
M  V30 142 1 64 136
M  V30 143 1 64 137
M  V30 144 1 65 138
M  V30 145 1 65 139
M  V30 146 1 66 140
M  V30 147 1 66 141
M  V30 148 1 68 142
M  V30 149 1 69 143
M  V30 150 1 71 144
M  V30 151 1 71 145
M  V30 152 1 71 146
M  V30 153 1 72 147
M  V30 154 1 72 148
M  V30 155 1 72 149
M  V30 156 1 73 150
M  V30 157 1 73 151
M  V30 158 1 73 152
M  V30 159 1 74 153
M  V30 160 1 75 154
M  V30 END BOND
M  V30 END CTAB
M  END
>  <Dataset>  (91) 
ChEMBL_Kinases

>  <Ligand_Instance>  (91) 
nan

>  <PDB_ID>  (91) 
nan

>  <Standardized_SMILES>  (91) 
Cc1ncsc1-c1ccc(CNC(=O)[C@@H]2C[C@@H](O)CN2C(=O)[C@@H](NC(=O)COCCCOCCCCOCCCOc2ccc(Nc3ncc(C4CC4)c(NCCCN(C)C(=O)C4CCC4)n3)cc2)C(C)(C)C)cc1

>  <Name>  (91) 
nan

>  <Pocket>  (91) 
nan

>  <ATP_Site>  (91) 
nan

>  <Peripheral>  (91) 
nan

>  <Num_H_Atoms_ProtBoundConf>  (91) 
nan

>  <Num_Resolved_Atoms>  (91) 
nan

>  <Num_Not_Resolved_Atoms>  (91) 
nan

$$$$
CHEMBL4226206
     RDKit          3D

  0  0  0  0  0  0  0  0  0  0999 V3000
M  V30 BEGIN CTAB
M  V30 COUNTS 50 54 0 0 0
M  V30 BEGIN ATOM
M  V30 1 C 2.779158 -1.674014 -3.084763 0
M  V30 2 C 3.423384 -1.003319 -1.890842 0
M  V30 3 C 4.733546 -1.334076 -1.527572 0
M  V30 4 C 5.342487 -0.723654 -0.430313 0
M  V30 5 C 4.661705 0.221246 0.319462 0
M  V30 6 C 3.369486 0.539010 -0.049479 0
M  V30 7 C 2.586867 1.527990 0.684816 0
M  V30 8 N 2.840530 2.867573 0.683261 0
M  V30 9 C 1.918921 3.466369 1.459502 0
M  V30 10 C 1.736387 4.801253 1.782699 0
M  V30 11 C 0.699822 5.185200 2.612830 0
M  V30 12 C -0.115663 4.156458 3.080589 0
M  V30 13 N 0.107806 2.873059 2.733983 0
M  V30 14 N 1.097103 2.509125 1.942017 0
M  V30 15 C 1.480656 1.284186 1.481181 0
M  V30 16 C 0.848036 0.006222 1.778796 0
M  V30 17 C 1.722916 -0.860121 2.427141 0
M  V30 18 C 1.340626 -2.126944 2.812272 0
M  V30 19 N 0.061891 -2.476253 2.520945 0
M  V30 20 C -0.783512 -1.641963 1.895325 0
M  V30 21 N -2.100735 -2.107910 1.647681 0
M  V30 22 C -2.560442 -2.811826 0.507131 0
M  V30 23 O -1.745785 -3.072216 -0.413886 0
M  V30 24 C -3.936803 -3.252560 0.347462 0
M  V30 25 C -4.241925 -3.943903 -0.823760 0
M  V30 26 C -5.541100 -4.398186 -1.048224 0
M  V30 27 C -6.501899 -4.146780 -0.089837 0
M  V30 28 C -6.244665 -3.468566 1.080740 0
M  V30 29 C -4.943693 -3.035248 1.263258 0
M  V30 30 C -0.442820 -0.370881 1.494444 0
M  V30 31 C 2.747388 -0.057698 -1.138041 0
M  V30 32 H 3.581851 -2.051139 -3.729987 0
M  V30 33 H 2.046558 -2.402872 -2.734545 0
M  V30 34 H 2.208408 -0.832593 -3.567897 0
M  V30 35 H 5.270561 -2.075637 -2.107274 0
M  V30 36 H 6.367287 -0.968684 -0.127827 0
M  V30 37 H 5.061301 0.744687 1.184844 0
M  V30 38 H 2.386809 5.549172 1.400056 0
M  V30 39 H 0.518445 6.226082 2.893964 0
M  V30 40 H -0.934555 4.453059 3.736497 0
M  V30 41 H 2.762464 -0.617006 2.676985 0
M  V30 42 H 1.980389 -2.841223 3.319967 0
M  V30 43 H -2.770678 -1.884165 2.420745 0
M  V30 44 H -3.563571 -4.178710 -1.608109 0
M  V30 45 H -5.835489 -4.939099 -1.936450 0
M  V30 46 H -7.525966 -4.494861 -0.245820 0
M  V30 47 H -6.963893 -3.250214 1.854614 0
M  V30 48 H -4.697461 -2.499603 2.166106 0
M  V30 49 H -1.066856 0.341241 0.993040 0
M  V30 50 H 1.736246 0.148554 -1.478462 0
M  V30 END ATOM
M  V30 BEGIN BOND
M  V30 1 1 1 2
M  V30 2 2 2 3
M  V30 3 1 3 4
M  V30 4 2 4 5
M  V30 5 1 5 6
M  V30 6 1 6 7
M  V30 7 1 7 8
M  V30 8 2 8 9
M  V30 9 1 9 10
M  V30 10 2 10 11
M  V30 11 1 11 12
M  V30 12 2 12 13
M  V30 13 1 13 14
M  V30 14 1 14 15
M  V30 15 1 15 16
M  V30 16 2 16 17
M  V30 17 1 17 18
M  V30 18 2 18 19
M  V30 19 1 19 20
M  V30 20 1 20 21
M  V30 21 1 21 22
M  V30 22 2 22 23
M  V30 23 1 22 24
M  V30 24 2 24 25
M  V30 25 1 25 26
M  V30 26 2 26 27
M  V30 27 1 27 28
M  V30 28 2 28 29
M  V30 29 2 20 30
M  V30 30 2 6 31
M  V30 31 1 31 2
M  V30 32 2 15 7
M  V30 33 1 30 16
M  V30 34 1 14 9
M  V30 35 1 29 24
M  V30 36 1 1 32
M  V30 37 1 1 33
M  V30 38 1 1 34
M  V30 39 1 3 35
M  V30 40 1 4 36
M  V30 41 1 5 37
M  V30 42 1 10 38
M  V30 43 1 11 39
M  V30 44 1 12 40
M  V30 45 1 17 41
M  V30 46 1 18 42
M  V30 47 1 21 43
M  V30 48 1 25 44
M  V30 49 1 26 45
M  V30 50 1 27 46
M  V30 51 1 28 47
M  V30 52 1 29 48
M  V30 53 1 30 49
M  V30 54 1 31 50
M  V30 END BOND
M  V30 END CTAB
M  END
>  <Dataset>  (92) 
ChEMBL_Kinases

>  <Ligand_Instance>  (92) 
nan

>  <PDB_ID>  (92) 
nan

>  <Standardized_SMILES>  (92) 
Cc1cccc(-c2nc3cccnn3c2-c2ccnc(NC(=O)c3ccccc3)c2)c1

>  <Name>  (92) 
nan

>  <Pocket>  (92) 
nan

>  <ATP_Site>  (92) 
nan

>  <Peripheral>  (92) 
nan

>  <Num_H_Atoms_ProtBoundConf>  (92) 
nan

>  <Num_Resolved_Atoms>  (92) 
nan

>  <Num_Not_Resolved_Atoms>  (92) 
nan

$$$$
CHEMBL4226184
     RDKit          3D

  0  0  0  0  0  0  0  0  0  0999 V3000
M  V30 BEGIN CTAB
M  V30 COUNTS 59 64 0 0 0
M  V30 BEGIN ATOM
M  V30 1 C 2.151548 0.671240 5.586238 0
M  V30 2 C 1.981116 1.037639 4.157758 0
M  V30 3 C 2.922246 0.747279 3.192694 0
M  V30 4 N 2.844061 1.045162 1.888715 0
M  V30 5 C 3.685558 0.813048 0.872358 0
M  V30 6 C 4.960651 0.169046 0.801282 0
M  V30 7 C 5.850874 -0.452032 1.641786 0
M  V30 8 N 6.940124 -0.899955 1.026127 0
M  V30 9 N 6.833893 -0.598846 -0.268663 0
M  V30 10 C 5.663243 0.034184 -0.405193 0
M  V30 11 C 3.009732 1.368957 -0.196820 0
M  V30 12 N 1.856456 1.879569 0.212484 0
M  V30 13 C 1.721064 1.685392 1.557783 0
M  V30 14 C 0.715655 2.026886 2.430851 0
M  V30 15 N -0.402086 2.710810 1.877127 0
M  V30 16 C -1.461912 1.910703 1.285421 0
M  V30 17 C -1.517716 0.573978 1.194681 0
M  V30 18 C -2.647850 0.093778 0.571473 0
M  V30 19 C -2.865073 -1.376036 0.390033 0
M  V30 20 C -3.975586 -1.621652 -0.546802 0
M  V30 21 C -5.260942 -1.951056 -0.172190 0
M  V30 22 C -6.323342 -2.186388 -1.003735 0
M  V30 23 C -6.034840 -2.070995 -2.353373 0
M  V30 24 C -4.760467 -1.742352 -2.784959 0
M  V30 25 N -3.754786 -1.523537 -1.890042 0
M  V30 26 N -1.644295 -2.038397 -0.017679 0
M  V30 27 C -1.789186 -3.445890 -0.194781 0
M  V30 28 C -0.420763 -4.069659 -0.371431 0
M  V30 29 C 0.390771 -3.407714 -1.437967 0
M  V30 30 F 0.809285 -4.277305 -2.432954 0
M  V30 31 C -0.364938 -2.271011 -2.097058 0
M  V30 32 C -0.869057 -1.353373 -0.990934 0
M  V30 33 N -3.619236 1.007562 0.096094 0
M  V30 34 S -2.844371 2.637495 0.583675 0
M  V30 35 N 0.875112 1.685490 3.742735 0
M  V30 36 H 1.205460 0.180392 5.915616 0
M  V30 37 H 2.453416 1.515659 6.232355 0
M  V30 38 H 2.926697 -0.136216 5.667347 0
M  V30 39 H 3.783470 0.231347 3.574646 0
M  V30 40 H 5.699266 -0.573608 2.692383 0
M  V30 41 H 7.543043 -0.830135 -0.993689 0
M  V30 42 H 5.367503 0.378042 -1.409329 0
M  V30 43 H 3.271179 1.439385 -1.242776 0
M  V30 44 H -0.431654 3.732988 1.910766 0
M  V30 45 H -0.731233 -0.046571 1.584445 0
M  V30 46 H -3.095605 -1.775236 1.397946 0
M  V30 47 H -5.378817 -2.015610 0.913920 0
M  V30 48 H -7.293082 -2.437978 -0.645075 0
M  V30 49 H -6.794358 -2.233503 -3.108581 0
M  V30 50 H -4.567555 -1.659059 -3.863286 0
M  V30 51 H -2.170650 -3.858448 0.782967 0
M  V30 52 H -2.514621 -3.763989 -0.959812 0
M  V30 53 H 0.108562 -4.086375 0.604924 0
M  V30 54 H -0.584459 -5.127997 -0.660603 0
M  V30 55 H 1.302324 -2.974697 -0.981658 0
M  V30 56 H -1.214253 -2.626548 -2.712098 0
M  V30 57 H 0.373877 -1.685440 -2.681418 0
M  V30 58 H -1.319278 -0.483632 -1.467110 0
M  V30 59 H 0.074694 -0.989730 -0.487064 0
M  V30 END ATOM
M  V30 BEGIN BOND
M  V30 1 1 1 2
M  V30 2 2 2 3
M  V30 3 1 3 4
M  V30 4 1 4 5
M  V30 5 1 5 6
M  V30 6 1 6 7
M  V30 7 2 7 8
M  V30 8 1 8 9
M  V30 9 1 9 10
M  V30 10 2 5 11
M  V30 11 1 11 12
M  V30 12 2 12 13
M  V30 13 1 13 14
M  V30 14 1 14 15
M  V30 15 1 15 16
M  V30 16 2 16 17
M  V30 17 1 17 18
M  V30 18 1 18 19
M  V30 19 1 19 20
M  V30 20 2 20 21
M  V30 21 1 21 22
M  V30 22 2 22 23
M  V30 23 1 23 24
M  V30 24 2 24 25
M  V30 25 1 19 26
M  V30 26 1 26 27
M  V30 27 1 27 28
M  V30 28 1 28 29
M  V30 29 1 29 30
M  V30 30 1 29 31
M  V30 31 1 31 32
M  V30 32 2 18 33
M  V30 33 1 33 34
M  V30 34 2 14 35
M  V30 35 1 35 2
M  V30 36 1 13 4
M  V30 37 1 34 16
M  V30 38 2 10 6
M  V30 39 1 25 20
M  V30 40 1 32 26
M  V30 41 1 1 36
M  V30 42 1 1 37
M  V30 43 1 1 38
M  V30 44 1 3 39
M  V30 45 1 7 40
M  V30 46 1 9 41
M  V30 47 1 10 42
M  V30 48 1 11 43
M  V30 49 1 15 44
M  V30 50 1 17 45
M  V30 51 1 19 46
M  V30 52 1 21 47
M  V30 53 1 22 48
M  V30 54 1 23 49
M  V30 55 1 24 50
M  V30 56 1 27 51
M  V30 57 1 27 52
M  V30 58 1 28 53
M  V30 59 1 28 54
M  V30 60 1 29 55
M  V30 61 1 31 56
M  V30 62 1 31 57
M  V30 63 1 32 58
M  V30 64 1 32 59
M  V30 END BOND
M  V30 END CTAB
M  END
>  <Dataset>  (93) 
ChEMBL_Kinases

>  <Ligand_Instance>  (93) 
nan

>  <PDB_ID>  (93) 
nan

>  <Standardized_SMILES>  (93) 
Cc1cn2c(-c3cn[nH]c3)cnc2c(Nc2cc(C(c3ccccn3)N3CCC(F)CC3)ns2)n1

>  <Name>  (93) 
nan

>  <Pocket>  (93) 
nan

>  <ATP_Site>  (93) 
nan

>  <Peripheral>  (93) 
nan

>  <Num_H_Atoms_ProtBoundConf>  (93) 
nan

>  <Num_Resolved_Atoms>  (93) 
nan

>  <Num_Not_Resolved_Atoms>  (93) 
nan

$$$$
CHEMBL4226108
     RDKit          3D

  0  0  0  0  0  0  0  0  0  0999 V3000
M  V30 BEGIN CTAB
M  V30 COUNTS 84 90 0 0 0
M  V30 BEGIN ATOM
M  V30 1 C 0.234917 -6.413678 -0.869239 0
M  V30 2 C -0.394894 -5.264787 -0.168558 0
M  V30 3 O -1.622628 -5.497299 -0.026121 0
M  V30 4 N 0.371298 -4.128311 0.235000 0
M  V30 5 C 1.762084 -4.072780 -0.057640 0
M  V30 6 C 2.231955 -3.506228 -1.321646 0 CFG=2
M  V30 7 C 3.780365 -3.589188 -1.278652 0
M  V30 8 C 4.107819 -2.179970 -0.792462 0
M  V30 9 N 3.237618 -1.356749 -1.605315 0
M  V30 10 C 3.089943 -0.105902 -0.895058 0
M  V30 11 C 2.263866 0.854588 -1.630372 0
M  V30 12 O 1.969376 0.220195 -2.678509 0
M  V30 13 N 1.649239 2.112617 -1.740844 0
M  V30 14 C 0.901246 2.292525 -2.997938 0
M  V30 15 C -0.342401 3.130869 -2.723118 0
M  V30 16 N -0.729110 2.853077 -1.330760 0
M  V30 17 C -1.933571 2.191704 -0.952178 0
M  V30 18 C -2.346155 2.107211 0.362528 0
M  V30 19 C -3.510464 1.452313 0.709104 0
M  V30 20 C -4.321920 0.849766 -0.229129 0
M  V30 21 C -5.546623 0.160560 0.160049 0
M  V30 22 N -5.970796 0.069286 1.444458 0
M  V30 23 C -7.105437 -0.575679 1.769725 0
M  V30 24 C -7.871448 -1.165982 0.788688 0
M  V30 25 C -7.450728 -1.079552 -0.516123 0
M  V30 26 N -6.292085 -0.414908 -0.802601 0
M  V30 27 C -3.929130 0.921090 -1.555535 0
M  V30 28 C -2.761163 1.581941 -1.873022 0
M  V30 29 C 0.188301 3.275376 -0.293624 0
M  V30 30 C 1.581090 3.282158 -0.883868 0
M  V30 31 C 1.987319 -2.098396 -1.670944 0
M  V30 32 C -0.219403 -3.044726 0.945251 0
M  V30 33 C -1.553905 -2.899260 1.246821 0
M  V30 34 C -2.116707 -1.872380 1.965685 0
M  V30 35 C -1.304757 -0.870320 2.450638 0
M  V30 36 N -1.576776 0.229854 3.172222 0
M  V30 37 N -0.442638 0.855234 3.377273 0
M  V30 38 C 0.578144 0.172931 2.794108 0
M  V30 39 C 1.983000 0.556855 2.809634 0
M  V30 40 C 2.997160 -0.338417 3.074321 0
M  V30 41 C 4.321109 0.038648 3.081806 0
M  V30 42 C 4.714949 1.340011 2.824522 0
M  V30 43 F 5.989871 1.772591 2.816903 0
M  V30 44 C 3.702235 2.261683 2.554524 0
M  V30 45 C 2.381125 1.852896 2.553782 0
M  V30 46 C 0.045661 -0.951606 2.185271 0
M  V30 47 C 0.517993 -2.001884 1.465785 0
M  V30 48 H 0.679267 -6.136943 -1.825955 0
M  V30 49 H 1.049839 -6.821474 -0.196495 0
M  V30 50 H -0.449387 -7.300387 -0.964855 0
M  V30 51 H 2.296777 -3.687818 0.855200 0
M  V30 52 H 2.110574 -5.162607 -0.059111 0
M  V30 53 H 1.976989 -4.219569 -2.157146 0
M  V30 54 H 4.207328 -3.829311 -2.249935 0
M  V30 55 H 4.090392 -4.358253 -0.549295 0
M  V30 56 H 5.179339 -2.023282 -1.035851 0
M  V30 57 H 3.912440 -2.091281 0.285518 0
M  V30 58 H 2.763587 -0.220620 0.139534 0
M  V30 59 H 4.116656 0.332150 -0.845782 0
M  V30 60 H 0.633877 1.342967 -3.479346 0
M  V30 61 H 1.565555 2.863783 -3.676477 0
M  V30 62 H -1.094487 2.863960 -3.453187 0
M  V30 63 H -0.014999 4.197890 -2.800108 0
M  V30 64 H -1.774053 2.552738 1.160806 0
M  V30 65 H -3.845328 1.377832 1.723394 0
M  V30 66 H -7.466881 -0.663744 2.784444 0
M  V30 67 H -8.800901 -1.712138 0.919823 0
M  V30 68 H -7.920890 -1.481054 -1.421496 0
M  V30 69 H -4.567146 0.448288 -2.288352 0
M  V30 70 H -2.547168 1.580259 -2.914300 0
M  V30 71 H -0.086848 4.249643 0.148049 0
M  V30 72 H 0.134873 2.507402 0.518610 0
M  V30 73 H 2.369055 3.273736 -0.106381 0
M  V30 74 H 1.755826 4.168091 -1.519348 0
M  V30 75 H 1.763715 -2.099841 -2.795007 0
M  V30 76 H 1.125743 -1.591632 -1.252793 0
M  V30 77 H -2.285284 -3.617297 0.919189 0
M  V30 78 H -3.172751 -1.800479 2.177946 0
M  V30 79 H -2.495341 0.571480 3.529857 0
M  V30 80 H 2.791065 -1.368668 3.289179 0
M  V30 81 H 5.153816 -0.640420 3.286364 0
M  V30 82 H 3.995280 3.289683 2.349998 0
M  V30 83 H 1.684143 2.627246 2.338393 0
M  V30 84 H 1.586653 -1.941471 1.320410 0
M  V30 END ATOM
M  V30 BEGIN BOND
M  V30 1 1 1 2
M  V30 2 2 2 3
M  V30 3 1 2 4
M  V30 4 1 4 5
M  V30 5 1 5 6
M  V30 6 1 6 7
M  V30 7 1 7 8
M  V30 8 1 8 9
M  V30 9 1 9 10
M  V30 10 1 10 11
M  V30 11 2 11 12
M  V30 12 1 11 13
M  V30 13 1 13 14
M  V30 14 1 14 15
M  V30 15 1 15 16
M  V30 16 1 16 17
M  V30 17 2 17 18
M  V30 18 1 18 19
M  V30 19 2 19 20
M  V30 20 1 20 21
M  V30 21 2 21 22
M  V30 22 1 22 23
M  V30 23 2 23 24
M  V30 24 1 24 25
M  V30 25 2 25 26
M  V30 26 1 20 27
M  V30 27 2 27 28
M  V30 28 1 16 29
M  V30 29 1 29 30
M  V30 30 1 9 31
M  V30 31 1 4 32
M  V30 32 2 32 33
M  V30 33 1 33 34
M  V30 34 2 34 35
M  V30 35 1 35 36
M  V30 36 1 36 37
M  V30 37 2 37 38
M  V30 38 1 38 39
M  V30 39 2 39 40
M  V30 40 1 40 41
M  V30 41 2 41 42
M  V30 42 1 42 43
M  V30 43 1 42 44
M  V30 44 2 44 45
M  V30 45 1 38 46
M  V30 46 2 46 47
M  V30 47 1 31 6
M  V30 48 1 47 32
M  V30 49 1 30 13
M  V30 50 1 46 35
M  V30 51 1 28 17
M  V30 52 1 45 39
M  V30 53 1 26 21
M  V30 54 1 1 48
M  V30 55 1 1 49
M  V30 56 1 1 50
M  V30 57 1 5 51
M  V30 58 1 5 52
M  V30 59 1 6 53 CFG=3
M  V30 60 1 7 54
M  V30 61 1 7 55
M  V30 62 1 8 56
M  V30 63 1 8 57
M  V30 64 1 10 58
M  V30 65 1 10 59
M  V30 66 1 14 60
M  V30 67 1 14 61
M  V30 68 1 15 62
M  V30 69 1 15 63
M  V30 70 1 18 64
M  V30 71 1 19 65
M  V30 72 1 23 66
M  V30 73 1 24 67
M  V30 74 1 25 68
M  V30 75 1 27 69
M  V30 76 1 28 70
M  V30 77 1 29 71
M  V30 78 1 29 72
M  V30 79 1 30 73
M  V30 80 1 30 74
M  V30 81 1 31 75
M  V30 82 1 31 76
M  V30 83 1 33 77
M  V30 84 1 34 78
M  V30 85 1 36 79
M  V30 86 1 40 80
M  V30 87 1 41 81
M  V30 88 1 44 82
M  V30 89 1 45 83
M  V30 90 1 47 84
M  V30 END BOND
M  V30 END CTAB
M  END
>  <Dataset>  (94) 
ChEMBL_Kinases

>  <Ligand_Instance>  (94) 
nan

>  <PDB_ID>  (94) 
nan

>  <Standardized_SMILES>  (94) 
CC(=O)N(C[C@@H]1CCN(CC(=O)N2CCN(c3ccc(-c4ncccn4)cc3)CC2)C1)c1ccc2[nH]nc(-c3ccc(F)cc3)c2c1

>  <Name>  (94) 
nan

>  <Pocket>  (94) 
nan

>  <ATP_Site>  (94) 
nan

>  <Peripheral>  (94) 
nan

>  <Num_H_Atoms_ProtBoundConf>  (94) 
nan

>  <Num_Resolved_Atoms>  (94) 
nan

>  <Num_Not_Resolved_Atoms>  (94) 
nan

$$$$
CHEMBL4226036
     RDKit          3D

  0  0  0  0  0  0  0  0  0  0999 V3000
M  V30 BEGIN CTAB
M  V30 COUNTS 44 48 0 0 0
M  V30 BEGIN ATOM
M  V30 1 C -2.844852 1.822480 1.215755 0
M  V30 2 C -1.400873 1.559467 1.355394 0
M  V30 3 C -0.477938 1.526323 0.360372 0
M  V30 4 N 0.803706 1.269781 0.580837 0
M  V30 5 C 1.830387 1.181074 -0.266133 0
M  V30 6 C 1.997472 1.329985 -1.690797 0
M  V30 7 C 3.224127 1.170644 -2.313150 0
M  V30 8 N 3.151087 1.376463 -3.656728 0
M  V30 9 N 1.867951 1.674845 -3.930539 0
M  V30 10 C 1.208053 1.641576 -2.764484 0
M  V30 11 C 2.917589 0.874877 0.542432 0
M  V30 12 N 2.528951 0.788466 1.824573 0
M  V30 13 C 1.224186 1.028555 1.866052 0
M  V30 14 C 0.287986 1.060680 2.910906 0
M  V30 15 N 0.877739 0.750698 4.212601 0
M  V30 16 C 1.119288 -0.714692 4.040897 0
M  V30 17 C 0.305389 -1.626257 3.560990 0
M  V30 18 C 0.853703 -2.859012 3.442391 0
M  V30 19 C -0.016996 -3.954087 2.836486 0
M  V30 20 C -0.178496 -3.598653 1.373219 0
M  V30 21 C -1.295399 -2.846193 1.053872 0
M  V30 22 C -1.604605 -2.387625 -0.198529 0
M  V30 23 C -0.737214 -2.695026 -1.235604 0
M  V30 24 F -0.985873 -2.267788 -2.510364 0
M  V30 25 C 0.368029 -3.442934 -0.906582 0
M  V30 26 N 0.652555 -3.884907 0.336713 0
M  V30 27 N 2.208784 -3.154862 3.813836 0
M  V30 28 S 2.664519 -1.449010 4.372213 0
M  V30 29 N -0.991882 1.322564 2.628504 0
M  V30 30 H -3.009436 2.884888 1.535090 0
M  V30 31 H -3.175656 1.625320 0.180658 0
M  V30 32 H -3.452508 1.119160 1.852549 0
M  V30 33 H -0.807275 1.717077 -0.648638 0
M  V30 34 H 4.231243 0.915053 -1.945710 0
M  V30 35 H 1.537467 1.881214 -4.893266 0
M  V30 36 H 0.169550 1.852745 -2.712847 0
M  V30 37 H 3.993286 0.688564 0.391233 0
M  V30 38 H 1.102841 1.316410 5.056984 0
M  V30 39 H -0.701186 -1.343555 3.314731 0
M  V30 40 H 0.439619 -4.927262 2.947969 0
M  V30 41 H -0.982538 -3.896670 3.320184 0
M  V30 42 H -2.065330 -2.525596 1.772606 0
M  V30 43 H -2.490436 -1.787975 -0.447973 0
M  V30 44 H 1.050874 -3.687625 -1.701115 0
M  V30 END ATOM
M  V30 BEGIN BOND
M  V30 1 1 1 2
M  V30 2 2 2 3
M  V30 3 1 3 4
M  V30 4 1 4 5
M  V30 5 1 5 6
M  V30 6 1 6 7
M  V30 7 2 7 8
M  V30 8 1 8 9
M  V30 9 1 9 10
M  V30 10 2 5 11
M  V30 11 1 11 12
M  V30 12 2 12 13
M  V30 13 1 13 14
M  V30 14 1 14 15
M  V30 15 1 15 16
M  V30 16 2 16 17
M  V30 17 1 17 18
M  V30 18 1 18 19
M  V30 19 1 19 20
M  V30 20 2 20 21
M  V30 21 1 21 22
M  V30 22 2 22 23
M  V30 23 1 23 24
M  V30 24 1 23 25
M  V30 25 2 25 26
M  V30 26 2 18 27
M  V30 27 1 27 28
M  V30 28 2 14 29
M  V30 29 1 29 2
M  V30 30 1 13 4
M  V30 31 1 28 16
M  V30 32 2 10 6
M  V30 33 1 26 20
M  V30 34 1 1 30
M  V30 35 1 1 31
M  V30 36 1 1 32
M  V30 37 1 3 33
M  V30 38 1 7 34
M  V30 39 1 9 35
M  V30 40 1 10 36
M  V30 41 1 11 37
M  V30 42 1 15 38
M  V30 43 1 17 39
M  V30 44 1 19 40
M  V30 45 1 19 41
M  V30 46 1 21 42
M  V30 47 1 22 43
M  V30 48 1 25 44
M  V30 END BOND
M  V30 END CTAB
M  END
>  <Dataset>  (95) 
ChEMBL_Kinases

>  <Ligand_Instance>  (95) 
nan

>  <PDB_ID>  (95) 
nan

>  <Standardized_SMILES>  (95) 
Cc1cn2c(-c3cn[nH]c3)cnc2c(Nc2cc(Cc3ccc(F)cn3)ns2)n1

>  <Name>  (95) 
nan

>  <Pocket>  (95) 
nan

>  <ATP_Site>  (95) 
nan

>  <Peripheral>  (95) 
nan

>  <Num_H_Atoms_ProtBoundConf>  (95) 
nan

>  <Num_Resolved_Atoms>  (95) 
nan

>  <Num_Not_Resolved_Atoms>  (95) 
nan

$$$$
CHEMBL4225995
     RDKit          3D

  0  0  0  0  0  0  0  0  0  0999 V3000
M  V30 BEGIN CTAB
M  V30 COUNTS 157 163 0 0 0
M  V30 BEGIN ATOM
M  V30 1 C 7.329043 -0.487240 4.134271 0
M  V30 2 C 8.361682 -0.825828 3.124609 0
M  V30 3 N 9.136906 -1.808365 3.449847 0
M  V30 4 C 10.093966 -2.136425 2.502938 0
M  V30 5 S 9.785231 -0.918493 1.111212 0
M  V30 6 C 8.406560 -0.101588 1.954623 0
M  V30 7 C 7.759377 0.953998 1.317945 0
M  V30 8 C 8.159351 1.352008 0.050147 0
M  V30 9 C 7.566324 2.384398 -0.656241 0
M  V30 10 C 6.514836 3.074537 -0.089930 0
M  V30 11 C 5.877297 4.172512 -0.845040 0
M  V30 12 N 4.848132 3.626389 -1.735905 0
M  V30 13 C 3.635666 3.251243 -1.134146 0
M  V30 14 O 3.122028 3.240911 0.013405 0
M  V30 15 C 2.290703 2.677991 -1.411598 0 CFG=2
M  V30 16 C 1.477546 3.719260 -2.136257 0
M  V30 17 C 0.983905 4.613192 -1.035778 0 CFG=1
M  V30 18 O -0.289991 5.126757 -1.390859 0
M  V30 19 C 0.923411 3.735769 0.185302 0
M  V30 20 N 1.618528 2.536135 -0.153752 0
M  V30 21 C 1.508054 1.538415 0.804686 0
M  V30 22 O 0.838778 2.097112 1.716245 0
M  V30 23 C 1.673303 0.246403 1.428920 0 CFG=1
M  V30 24 N 1.127033 0.257621 2.796390 0
M  V30 25 C 0.342595 -0.111955 3.966965 0
M  V30 26 O -0.354083 -1.052667 3.604665 0
M  V30 27 C 0.632690 0.720329 5.137685 0
M  V30 28 O -0.030663 0.441848 6.245105 0
M  V30 29 C -1.352001 0.548524 6.426361 0
M  V30 30 C -1.875697 1.978967 6.234440 0
M  V30 31 C -3.322191 2.070251 6.617453 0
M  V30 32 O -3.783997 3.352825 6.423908 0
M  V30 33 C -3.966425 3.758403 5.131601 0
M  V30 34 C -4.299349 5.256886 5.117145 0
M  V30 35 C -4.636843 5.704179 3.746319 0
M  V30 36 C -3.604040 5.417379 2.677689 0
M  V30 37 O -4.133992 5.876408 1.502028 0
M  V30 38 C -3.460917 5.569949 0.337858 0
M  V30 39 C -3.421660 4.056708 0.162095 0
M  V30 40 C -4.851031 3.506477 0.186873 0
M  V30 41 O -4.849686 2.160081 0.124304 0
M  V30 42 C -4.480001 1.176176 -0.689037 0
M  V30 43 C -4.809692 0.013827 0.040015 0
M  V30 44 C -4.572021 -1.272241 -0.480225 0
M  V30 45 C -4.011654 -1.371302 -1.714557 0
M  V30 46 N -3.642263 -2.563534 -2.355595 0
M  V30 47 C -3.596262 -2.871631 -3.727248 0
M  V30 48 N -4.139996 -2.137036 -4.715073 0
M  V30 49 C -3.991438 -2.578504 -6.002409 0
M  V30 50 C -3.310204 -3.748079 -6.397713 0
M  V30 51 C -3.175834 -4.118512 -7.791674 0
M  V30 52 C -3.726597 -5.345350 -8.363436 0
M  V30 53 C -2.471781 -5.489516 -9.196646 0
M  V30 54 C -1.882986 -4.314278 -8.461376 0
M  V30 55 C -2.786432 -4.432407 -5.324151 0
M  V30 56 N -2.085324 -5.629650 -5.499986 0
M  V30 57 C -1.460416 -6.430551 -4.453628 0
M  V30 58 C -0.397206 -5.647909 -3.728110 0
M  V30 59 C 0.353102 -6.377223 -2.681009 0
M  V30 60 N -0.355345 -6.913338 -1.581046 0
M  V30 61 C -0.844675 -8.278214 -1.717761 0
M  V30 62 C -0.630616 -6.282192 -0.364590 0
M  V30 63 O -0.006698 -5.372704 -1.013009 0
M  V30 64 C -1.006967 -5.802601 0.951596 0
M  V30 65 C -0.294415 -6.612612 2.031119 0
M  V30 66 C -1.560761 -6.522535 2.840158 0
M  V30 67 C -2.309343 -6.353459 1.511946 0
M  V30 68 N -2.938183 -3.994619 -4.067349 0
M  V30 69 C -3.675812 -0.254940 -2.462288 0
M  V30 70 C -3.916207 1.020594 -1.934968 0
M  V30 71 C 0.905557 -0.836235 0.604990 0
M  V30 72 C 1.434832 -0.783164 -0.833492 0
M  V30 73 C -0.552627 -0.718851 0.639610 0
M  V30 74 C 1.329459 -2.233567 1.069707 0
M  V30 75 C 6.052873 2.744159 1.173291 0
M  V30 76 C 6.710060 1.703104 1.790202 0
M  V30 77 H 6.301216 -0.587745 3.719082 0
M  V30 78 H 7.526888 0.543705 4.487649 0
M  V30 79 H 7.313777 -1.179074 5.023749 0
M  V30 80 H 10.806376 -3.022818 2.764629 0
M  V30 81 H 8.967847 0.904994 -0.519913 0
M  V30 82 H 7.879744 2.689309 -1.635178 0
M  V30 83 H 6.564177 4.794472 -1.421075 0
M  V30 84 H 5.380146 4.859299 -0.117658 0
M  V30 85 H 4.673622 3.394803 -2.732590 0
M  V30 86 H 2.360646 1.726894 -1.980197 0
M  V30 87 H 2.172628 4.343909 -2.774281 0
M  V30 88 H 0.663767 3.271763 -2.752934 0
M  V30 89 H 1.710632 5.437103 -0.856459 0
M  V30 90 H -0.621507 4.585665 -2.164041 0
M  V30 91 H 1.254443 4.199388 1.114973 0
M  V30 92 H -0.171977 3.470123 0.307984 0
M  V30 93 H 2.661828 -0.186510 1.461267 0
M  V30 94 H 1.769166 1.100910 3.040701 0
M  V30 95 H 1.759551 0.637659 5.320028 0
M  V30 96 H 0.562886 1.825198 4.826063 0
M  V30 97 H -1.622183 0.157533 7.434324 0
M  V30 98 H -1.977117 -0.055821 5.725960 0
M  V30 99 H -1.808994 2.151053 5.136762 0
M  V30 100 H -1.218377 2.623076 6.820926 0
M  V30 101 H -3.471590 1.842226 7.701889 0
M  V30 102 H -3.886087 1.350143 5.984021 0
M  V30 103 H -3.146890 3.498571 4.454320 0
M  V30 104 H -4.898091 3.251567 4.739697 0
M  V30 105 H -3.507832 5.851486 5.608216 0
M  V30 106 H -5.204576 5.342350 5.753206 0
M  V30 107 H -4.824503 6.815401 3.716962 0
M  V30 108 H -5.616753 5.264839 3.441852 0
M  V30 109 H -2.658514 5.997711 2.873921 0
M  V30 110 H -3.333934 4.371018 2.623954 0
M  V30 111 H -2.398438 5.883147 0.375985 0
M  V30 112 H -3.926165 6.007408 -0.542218 0
M  V30 113 H -3.068672 3.873464 -0.874524 0
M  V30 114 H -2.832921 3.601720 0.933844 0
M  V30 115 H -5.483328 4.035616 -0.558827 0
M  V30 116 H -5.233928 3.822226 1.204219 0
M  V30 117 H -5.265902 -0.149620 1.035967 0
M  V30 118 H -4.764870 -2.240161 -0.051238 0
M  V30 119 H -3.376130 -3.268132 -1.636760 0
M  V30 120 H -4.464583 -1.925502 -6.758907 0
M  V30 121 H -3.692836 -3.257853 -8.389669 0
M  V30 122 H -3.854666 -6.265926 -7.776421 0
M  V30 123 H -4.668833 -5.239137 -8.980764 0
M  V30 124 H -2.729773 -5.281809 -10.272938 0
M  V30 125 H -1.904687 -6.441519 -9.069918 0
M  V30 126 H -1.610697 -3.528748 -9.239749 0
M  V30 127 H -0.987407 -4.615821 -7.881287 0
M  V30 128 H -1.968595 -6.061142 -6.438492 0
M  V30 129 H -1.026005 -7.338738 -4.898272 0
M  V30 130 H -2.256133 -6.781824 -3.738842 0
M  V30 131 H 0.353353 -5.329386 -4.513385 0
M  V30 132 H -0.838762 -4.689784 -3.378229 0
M  V30 133 H 0.942983 -7.189640 -3.226313 0
M  V30 134 H 1.205119 -5.679772 -2.382192 0
M  V30 135 H 0.028859 -8.915411 -1.375914 0
M  V30 136 H -1.039495 -8.591360 -2.743428 0
M  V30 137 H -1.650232 -8.525696 -0.994874 0
M  V30 138 H -0.948037 -4.745970 1.188300 0
M  V30 139 H -0.087800 -7.644790 1.671101 0
M  V30 140 H 0.599022 -6.094828 2.426855 0
M  V30 141 H -1.819334 -7.455111 3.391238 0
M  V30 142 H -1.610002 -5.660734 3.520517 0
M  V30 143 H -3.100766 -5.603381 1.635265 0
M  V30 144 H -2.589090 -7.349974 1.118593 0
M  V30 145 H -3.232568 -0.185155 -3.440983 0
M  V30 146 H -3.733215 1.999327 -2.344829 0
M  V30 147 H 2.496487 -0.523541 -0.892433 0
M  V30 148 H 0.778843 -0.132524 -1.461703 0
M  V30 149 H 1.307207 -1.801901 -1.252653 0
M  V30 150 H -1.076287 -1.660819 0.947801 0
M  V30 151 H -0.936814 -0.554290 -0.413224 0
M  V30 152 H -0.947384 0.158121 1.198149 0
M  V30 153 H 2.446293 -2.198494 1.100977 0
M  V30 154 H 0.853315 -2.608373 1.951878 0
M  V30 155 H 1.124964 -2.913599 0.180715 0
M  V30 156 H 5.245233 3.271971 1.649814 0
M  V30 157 H 6.315226 1.490840 2.761099 0
M  V30 END ATOM
M  V30 BEGIN BOND
M  V30 1 1 1 2
M  V30 2 1 2 3
M  V30 3 2 3 4
M  V30 4 1 4 5
M  V30 5 1 5 6
M  V30 6 1 6 7
M  V30 7 2 7 8
M  V30 8 1 8 9
M  V30 9 2 9 10
M  V30 10 1 10 11
M  V30 11 1 11 12
M  V30 12 1 12 13
M  V30 13 2 13 14
M  V30 14 1 13 15
M  V30 15 1 15 16
M  V30 16 1 16 17
M  V30 17 1 17 18
M  V30 18 1 17 19
M  V30 19 1 19 20
M  V30 20 1 20 21
M  V30 21 2 21 22
M  V30 22 1 21 23
M  V30 23 1 23 24
M  V30 24 1 24 25
M  V30 25 2 25 26
M  V30 26 1 25 27
M  V30 27 1 27 28
M  V30 28 1 28 29
M  V30 29 1 29 30
M  V30 30 1 30 31
M  V30 31 1 31 32
M  V30 32 1 32 33
M  V30 33 1 33 34
M  V30 34 1 34 35
M  V30 35 1 35 36
M  V30 36 1 36 37
M  V30 37 1 37 38
M  V30 38 1 38 39
M  V30 39 1 39 40
M  V30 40 1 40 41
M  V30 41 1 41 42
M  V30 42 2 42 43
M  V30 43 1 43 44
M  V30 44 2 44 45
M  V30 45 1 45 46
M  V30 46 1 46 47
M  V30 47 2 47 48
M  V30 48 1 48 49
M  V30 49 2 49 50
M  V30 50 1 50 51
M  V30 51 1 51 52
M  V30 52 1 52 53
M  V30 53 1 53 54
M  V30 54 1 50 55
M  V30 55 1 55 56
M  V30 56 1 56 57
M  V30 57 1 57 58
M  V30 58 1 58 59
M  V30 59 1 59 60
M  V30 60 1 60 61
M  V30 61 1 60 62
M  V30 62 2 62 63
M  V30 63 1 62 64
M  V30 64 1 64 65
M  V30 65 1 65 66
M  V30 66 1 66 67
M  V30 67 2 55 68
M  V30 68 1 45 69
M  V30 69 2 69 70
M  V30 70 1 23 71
M  V30 71 1 71 72
M  V30 72 1 71 73
M  V30 73 1 71 74
M  V30 74 1 10 75
M  V30 75 2 75 76
M  V30 76 2 6 2
M  V30 77 1 76 7
M  V30 78 1 20 15
M  V30 79 1 70 42
M  V30 80 1 68 47
M  V30 81 1 54 51
M  V30 82 1 67 64
M  V30 83 1 1 77
M  V30 84 1 1 78
M  V30 85 1 1 79
M  V30 86 1 4 80
M  V30 87 1 8 81
M  V30 88 1 9 82
M  V30 89 1 11 83
M  V30 90 1 11 84
M  V30 91 1 12 85
M  V30 92 1 15 86 CFG=3
M  V30 93 1 16 87
M  V30 94 1 16 88
M  V30 95 1 17 89 CFG=1
M  V30 96 1 18 90
M  V30 97 1 19 91
M  V30 98 1 19 92
M  V30 99 1 23 93 CFG=1
M  V30 100 1 24 94
M  V30 101 1 27 95
M  V30 102 1 27 96
M  V30 103 1 29 97
M  V30 104 1 29 98
M  V30 105 1 30 99
M  V30 106 1 30 100
M  V30 107 1 31 101
M  V30 108 1 31 102
M  V30 109 1 33 103
M  V30 110 1 33 104
M  V30 111 1 34 105
M  V30 112 1 34 106
M  V30 113 1 35 107
M  V30 114 1 35 108
M  V30 115 1 36 109
M  V30 116 1 36 110
M  V30 117 1 38 111
M  V30 118 1 38 112
M  V30 119 1 39 113
M  V30 120 1 39 114
M  V30 121 1 40 115
M  V30 122 1 40 116
M  V30 123 1 43 117
M  V30 124 1 44 118
M  V30 125 1 46 119
M  V30 126 1 49 120
M  V30 127 1 51 121
M  V30 128 1 52 122
M  V30 129 1 52 123
M  V30 130 1 53 124
M  V30 131 1 53 125
M  V30 132 1 54 126
M  V30 133 1 54 127
M  V30 134 1 56 128
M  V30 135 1 57 129
M  V30 136 1 57 130
M  V30 137 1 58 131
M  V30 138 1 58 132
M  V30 139 1 59 133
M  V30 140 1 59 134
M  V30 141 1 61 135
M  V30 142 1 61 136
M  V30 143 1 61 137
M  V30 144 1 64 138
M  V30 145 1 65 139
M  V30 146 1 65 140
M  V30 147 1 66 141
M  V30 148 1 66 142
M  V30 149 1 67 143
M  V30 150 1 67 144
M  V30 151 1 69 145
M  V30 152 1 70 146
M  V30 153 1 72 147
M  V30 154 1 72 148
M  V30 155 1 72 149
M  V30 156 1 73 150
M  V30 157 1 73 151
M  V30 158 1 73 152
M  V30 159 1 74 153
M  V30 160 1 74 154
M  V30 161 1 74 155
M  V30 162 1 75 156
M  V30 163 1 76 157
M  V30 END BOND
M  V30 END CTAB
M  END
>  <Dataset>  (96) 
ChEMBL_Kinases

>  <Ligand_Instance>  (96) 
nan

>  <PDB_ID>  (96) 
nan

>  <Standardized_SMILES>  (96) 
Cc1ncsc1-c1ccc(CNC(=O)[C@@H]2C[C@@H](O)CN2C(=O)[C@@H](NC(=O)COCCCOCCCCOCCCOc2ccc(Nc3ncc(C4CCC4)c(NCCCN(C)C(=O)C4CCC4)n3)cc2)C(C)(C)C)cc1

>  <Name>  (96) 
nan

>  <Pocket>  (96) 
nan

>  <ATP_Site>  (96) 
nan

>  <Peripheral>  (96) 
nan

>  <Num_H_Atoms_ProtBoundConf>  (96) 
nan

>  <Num_Resolved_Atoms>  (96) 
nan

>  <Num_Not_Resolved_Atoms>  (96) 
nan

$$$$
CHEMBL4225979
     RDKit          3D

  0  0  0  0  0  0  0  0  0  0999 V3000
M  V30 BEGIN CTAB
M  V30 COUNTS 44 48 0 0 0
M  V30 BEGIN ATOM
M  V30 1 C -0.507826 2.805675 3.993516 0
M  V30 2 C 0.380099 1.817975 3.282720 0
M  V30 3 C 1.442268 2.234174 2.482996 0
M  V30 4 N 2.177454 1.268111 1.890779 0
M  V30 5 C 3.229745 1.421795 1.082505 0
M  V30 6 C 3.966982 2.544897 0.541007 0
M  V30 7 C 5.041427 2.399260 -0.303278 0
M  V30 8 N 5.533510 3.618998 -0.647814 0
M  V30 9 N 4.810386 4.572889 -0.051793 0
M  V30 10 C 3.864098 3.890927 0.664764 0
M  V30 11 C 3.583085 0.112646 0.769260 0
M  V30 12 N 2.738900 -0.741640 1.395229 0
M  V30 13 C 1.873534 -0.011090 2.085560 0
M  V30 14 C 0.843977 -0.461536 2.860079 0
M  V30 15 N 0.434149 -1.773702 3.157124 0
M  V30 16 C -0.140623 -2.802550 2.200516 0
M  V30 17 C -0.322040 -3.048301 0.933834 0
M  V30 18 C -0.988560 -4.181356 0.713220 0
M  V30 19 C -1.225503 -4.584629 -0.703945 0
M  V30 20 C -2.349809 -3.878638 -1.357263 0
M  V30 21 N -3.603313 -4.441914 -1.454489 0
M  V30 22 C -4.600990 -3.744105 -2.058158 0
M  V30 23 C -4.504243 -2.463641 -2.617768 0
M  V30 24 C -3.254131 -1.943682 -2.500569 0
M  V30 25 C -2.251321 -2.622545 -1.904899 0
M  V30 26 F -1.058792 -1.950160 -1.888560 0
M  V30 27 N -1.422879 -4.973276 1.629540 0
M  V30 28 S -0.915042 -4.185494 3.212134 0
M  V30 29 N 0.101497 0.521843 3.457056 0
M  V30 30 H -1.528718 2.398977 3.991267 0
M  V30 31 H -0.418566 3.803180 3.562161 0
M  V30 32 H -0.171495 2.799466 5.064497 0
M  V30 33 H 1.653299 3.273809 2.358714 0
M  V30 34 H 5.537313 1.544777 -0.719439 0
M  V30 35 H 4.958497 5.596844 -0.134739 0
M  V30 36 H 3.173576 4.456525 1.222657 0
M  V30 37 H 4.370138 -0.329424 0.147552 0
M  V30 38 H 0.598680 -1.935300 4.168645 0
M  V30 39 H 0.150445 -2.216767 0.441448 0
M  V30 40 H -0.282817 -4.483233 -1.301594 0
M  V30 41 H -1.394713 -5.694420 -0.710565 0
M  V30 42 H -5.566876 -4.270709 -2.092853 0
M  V30 43 H -5.409925 -2.077221 -3.053826 0
M  V30 44 H -3.146991 -0.938260 -2.929641 0
M  V30 END ATOM
M  V30 BEGIN BOND
M  V30 1 1 1 2
M  V30 2 2 2 3
M  V30 3 1 3 4
M  V30 4 1 4 5
M  V30 5 1 5 6
M  V30 6 1 6 7
M  V30 7 2 7 8
M  V30 8 1 8 9
M  V30 9 1 9 10
M  V30 10 2 5 11
M  V30 11 1 11 12
M  V30 12 2 12 13
M  V30 13 1 13 14
M  V30 14 1 14 15
M  V30 15 1 15 16
M  V30 16 2 16 17
M  V30 17 1 17 18
M  V30 18 1 18 19
M  V30 19 1 19 20
M  V30 20 2 20 21
M  V30 21 1 21 22
M  V30 22 2 22 23
M  V30 23 1 23 24
M  V30 24 2 24 25
M  V30 25 1 25 26
M  V30 26 2 18 27
M  V30 27 1 27 28
M  V30 28 2 14 29
M  V30 29 1 29 2
M  V30 30 1 13 4
M  V30 31 1 28 16
M  V30 32 2 10 6
M  V30 33 1 25 20
M  V30 34 1 1 30
M  V30 35 1 1 31
M  V30 36 1 1 32
M  V30 37 1 3 33
M  V30 38 1 7 34
M  V30 39 1 9 35
M  V30 40 1 10 36
M  V30 41 1 11 37
M  V30 42 1 15 38
M  V30 43 1 17 39
M  V30 44 1 19 40
M  V30 45 1 19 41
M  V30 46 1 22 42
M  V30 47 1 23 43
M  V30 48 1 24 44
M  V30 END BOND
M  V30 END CTAB
M  END
>  <Dataset>  (97) 
ChEMBL_Kinases

>  <Ligand_Instance>  (97) 
nan

>  <PDB_ID>  (97) 
nan

>  <Standardized_SMILES>  (97) 
Cc1cn2c(-c3cn[nH]c3)cnc2c(Nc2cc(Cc3ncccc3F)ns2)n1

>  <Name>  (97) 
nan

>  <Pocket>  (97) 
nan

>  <ATP_Site>  (97) 
nan

>  <Peripheral>  (97) 
nan

>  <Num_H_Atoms_ProtBoundConf>  (97) 
nan

>  <Num_Resolved_Atoms>  (97) 
nan

>  <Num_Not_Resolved_Atoms>  (97) 
nan

$$$$
CHEMBL4776298
     RDKit          3D

  0  0  0  0  0  0  0  0  0  0999 V3000
M  V30 BEGIN CTAB
M  V30 COUNTS 57 61 0 0 0
M  V30 BEGIN ATOM
M  V30 1 C -3.498876 -0.029733 4.504706 0
M  V30 2 C -3.845505 -0.541679 3.144223 0
M  V30 3 C -4.771898 0.145754 2.367955 0
M  V30 4 C -5.089044 -0.321307 1.111305 0
M  V30 5 C -4.498168 -1.459043 0.620932 0
M  V30 6 N -4.670250 -2.094939 -0.656370 0
M  V30 7 C -3.766827 -1.704060 -1.715228 0
M  V30 8 O -2.893577 -0.819463 -1.393141 0
M  V30 9 N -3.631874 -2.108181 -3.094508 0
M  V30 10 C -2.523726 -1.369289 -3.668804 0
M  V30 11 C -2.626840 -0.165366 -4.321234 0
M  V30 12 C -1.459636 0.432027 -4.771156 0
M  V30 13 C -0.285127 -0.239840 -4.522603 0
M  V30 14 C -0.179012 -1.443070 -3.870549 0
M  V30 15 N 1.083235 -2.078176 -3.608901 0
M  V30 16 C 2.239926 -1.298423 -3.762279 0
M  V30 17 N 3.111195 -1.153236 -4.765678 0
M  V30 18 C 4.167850 -0.328767 -4.702779 0
M  V30 19 N 4.420596 0.425407 -3.590058 0
M  V30 20 C 3.578323 0.319463 -2.552538 0
M  V30 21 C 3.825121 1.091063 -1.408851 0
M  V30 22 C 2.975087 1.009042 -0.326063 0
M  V30 23 C 3.174403 1.793382 0.910716 0
M  V30 24 C 4.333816 2.236422 1.534686 0
M  V30 25 N 4.003510 2.924701 2.649236 0
M  V30 26 N 2.676699 2.944802 2.771845 0
M  V30 27 C 1.984925 3.611405 3.879474 0
M  V30 28 C 2.161462 2.266595 1.730875 0
M  V30 29 C 1.873477 0.181489 -0.327711 0
M  V30 30 C 1.682180 -0.551607 -1.477144 0
M  V30 31 C 2.474105 -0.538259 -2.609963 0
M  V30 32 C -1.341225 -2.068487 -3.407837 0
M  V30 33 C -3.570349 -2.144642 1.403686 0
M  V30 34 C -3.221352 -1.704833 2.681172 0
M  V30 35 F -2.316419 -2.364273 3.452246 0
M  V30 36 H -2.380283 0.023324 4.653637 0
M  V30 37 H -3.845482 1.023530 4.618278 0
M  V30 38 H -3.899267 -0.689205 5.285885 0
M  V30 39 H -5.268535 1.042840 2.694891 0
M  V30 40 H -5.785229 0.111045 0.406053 0
M  V30 41 H -5.324038 -2.819958 -1.053321 0
M  V30 42 H -4.383029 -2.835361 -3.303921 0
M  V30 43 H -3.626784 0.208454 -4.422583 0
M  V30 44 H -1.552605 1.369778 -5.278537 0
M  V30 45 H 0.629568 0.233188 -4.876354 0
M  V30 46 H 1.091289 -3.087590 -3.317406 0
M  V30 47 H 4.753740 -0.350849 -5.611158 0
M  V30 48 H 4.656005 1.767143 -1.306616 0
M  V30 49 H 5.308161 2.018439 1.122242 0
M  V30 50 H 1.761283 2.950863 4.716411 0
M  V30 51 H 2.520786 4.558811 4.169967 0
M  V30 52 H 1.001415 3.983652 3.466319 0
M  V30 53 H 1.097684 2.161256 1.637932 0
M  V30 54 H 1.170459 0.079511 0.502174 0
M  V30 55 H 0.805713 -1.210777 -1.480145 0
M  V30 56 H -1.225718 -3.000174 -2.907121 0
M  V30 57 H -3.041614 -3.061833 1.107275 0
M  V30 END ATOM
M  V30 BEGIN BOND
M  V30 1 1 1 2
M  V30 2 2 2 3
M  V30 3 1 3 4
M  V30 4 2 4 5
M  V30 5 1 5 6
M  V30 6 1 6 7
M  V30 7 2 7 8
M  V30 8 1 7 9
M  V30 9 1 9 10
M  V30 10 2 10 11
M  V30 11 1 11 12
M  V30 12 2 12 13
M  V30 13 1 13 14
M  V30 14 1 14 15
M  V30 15 1 15 16
M  V30 16 2 16 17
M  V30 17 1 17 18
M  V30 18 2 18 19
M  V30 19 1 19 20
M  V30 20 2 20 21
M  V30 21 1 21 22
M  V30 22 1 22 23
M  V30 23 1 23 24
M  V30 24 2 24 25
M  V30 25 1 25 26
M  V30 26 1 26 27
M  V30 27 1 26 28
M  V30 28 2 22 29
M  V30 29 1 29 30
M  V30 30 2 30 31
M  V30 31 2 14 32
M  V30 32 1 5 33
M  V30 33 2 33 34
M  V30 34 1 34 35
M  V30 35 1 34 2
M  V30 36 1 32 10
M  V30 37 1 31 16
M  V30 38 1 31 20
M  V30 39 2 28 23
M  V30 40 1 1 36
M  V30 41 1 1 37
M  V30 42 1 1 38
M  V30 43 1 3 39
M  V30 44 1 4 40
M  V30 45 1 6 41
M  V30 46 1 9 42
M  V30 47 1 11 43
M  V30 48 1 12 44
M  V30 49 1 13 45
M  V30 50 1 15 46
M  V30 51 1 18 47
M  V30 52 1 21 48
M  V30 53 1 24 49
M  V30 54 1 27 50
M  V30 55 1 27 51
M  V30 56 1 27 52
M  V30 57 1 28 53
M  V30 58 1 29 54
M  V30 59 1 30 55
M  V30 60 1 32 56
M  V30 61 1 33 57
M  V30 END BOND
M  V30 END CTAB
M  END
>  <Dataset>  (98) 
ChEMBL_Kinases

>  <Ligand_Instance>  (98) 
nan

>  <PDB_ID>  (98) 
nan

>  <Standardized_SMILES>  (98) 
Cc1ccc(NC(=O)Nc2cccc(Nc3ncnc4cc(-c5cnn(C)c5)ccc34)c2)cc1F

>  <Name>  (98) 
nan

>  <Pocket>  (98) 
nan

>  <ATP_Site>  (98) 
nan

>  <Peripheral>  (98) 
nan

>  <Num_H_Atoms_ProtBoundConf>  (98) 
nan

>  <Num_Resolved_Atoms>  (98) 
nan

>  <Num_Not_Resolved_Atoms>  (98) 
nan

$$$$
CHEMBL4776345
     RDKit          3D

  0  0  0  0  0  0  0  0  0  0999 V3000
M  V30 BEGIN CTAB
M  V30 COUNTS 62 65 0 0 0
M  V30 BEGIN ATOM
M  V30 1 C -0.605007 -1.172995 5.121220 0
M  V30 2 O 0.480099 -0.931567 4.242676 0
M  V30 3 C 0.948549 -2.019044 3.524604 0
M  V30 4 O 0.265670 -3.026614 3.835211 0
M  V30 5 C 2.005089 -2.072697 2.586291 0
M  V30 6 S 2.346573 -3.686411 1.829087 0
M  V30 7 C 3.708229 -3.104621 0.796605 0
M  V30 8 C 3.821357 -1.737223 1.085549 0
M  V30 9 C 2.921790 -1.269641 2.009051 0
M  V30 10 N 2.838153 0.055986 2.496209 0
M  V30 11 C 1.849247 1.047897 2.454478 0
M  V30 12 N 0.675678 1.050924 1.802653 0
M  V30 13 C -0.191786 2.089037 1.889521 0
M  V30 14 N -1.415224 2.150499 1.213519 0
M  V30 15 C -2.021134 1.346410 0.202103 0
M  V30 16 C -1.368754 0.280380 -0.431912 0
M  V30 17 C -1.940570 -0.461096 -1.413131 0
M  V30 18 C -3.222447 -0.198122 -1.845438 0
M  V30 19 C -3.889950 0.840670 -1.243581 0
M  V30 20 C -3.326333 1.604107 -0.247595 0
M  V30 21 O -4.054710 2.640547 0.319176 0
M  V30 22 C -5.363906 2.875136 -0.151588 0
M  V30 23 C -3.677946 -1.116257 -2.922612 0
M  V30 24 C -2.369313 -1.654726 -3.401720 0
M  V30 25 N -1.530849 -1.552502 -2.222205 0
M  V30 26 C -0.482310 -2.448112 -1.994577 0
M  V30 27 O -0.167760 -3.397641 -2.761791 0
M  V30 28 C 0.559755 -2.722130 -1.012365 0
M  V30 29 N 1.340324 -3.840706 -1.391879 0
M  V30 30 C 2.171342 -3.680803 -2.551044 0
M  V30 31 C 0.748515 -5.124037 -1.367495 0
M  V30 32 N 0.116060 3.156883 2.646488 0
M  V30 33 C 1.270816 3.212393 3.319057 0
M  V30 34 C 2.136313 2.157556 3.222513 0
M  V30 35 N 3.313131 2.389643 4.011172 0 CHG=1 VAL=4
M  V30 36 O 4.106102 1.688977 4.659719 0
M  V30 37 O 3.822918 3.640960 4.208346 0 CHG=-1 VAL=1
M  V30 38 H -1.547784 -1.315904 4.515949 0
M  V30 39 H -0.761451 -0.329023 5.842120 0
M  V30 40 H -0.404424 -2.127986 5.666385 0
M  V30 41 H 4.344998 -3.614340 0.092455 0
M  V30 42 H 4.555629 -1.092581 0.622919 0
M  V30 43 H 3.760725 0.203003 2.958460 0
M  V30 44 H -2.066378 2.954769 1.483537 0
M  V30 45 H -0.381950 0.022944 -0.147802 0
M  V30 46 H -4.883743 1.076396 -1.549328 0
M  V30 47 H -5.394744 3.049120 -1.231766 0
M  V30 48 H -6.038870 2.027131 0.158727 0
M  V30 49 H -5.777629 3.789854 0.341037 0
M  V30 50 H -4.346309 -1.907037 -2.523118 0
M  V30 51 H -4.125120 -0.534869 -3.744004 0
M  V30 52 H -1.930358 -1.067869 -4.233427 0
M  V30 53 H -2.514924 -2.717859 -3.690963 0
M  V30 54 H 1.275290 -1.849343 -0.946951 0
M  V30 55 H 0.167827 -2.778795 0.034797 0
M  V30 56 H 1.849596 -4.403939 -3.337017 0
M  V30 57 H 3.189981 -4.067134 -2.245922 0
M  V30 58 H 2.246233 -2.634321 -2.912769 0
M  V30 59 H 0.470462 -5.583325 -2.315460 0
M  V30 60 H -0.172923 -5.171738 -0.711149 0
M  V30 61 H 1.428548 -5.882828 -0.870587 0
M  V30 62 H 1.438424 4.122375 3.911271 0
M  V30 END ATOM
M  V30 BEGIN BOND
M  V30 1 1 1 2
M  V30 2 1 2 3
M  V30 3 2 3 4
M  V30 4 1 3 5
M  V30 5 1 5 6
M  V30 6 1 6 7
M  V30 7 2 7 8
M  V30 8 1 8 9
M  V30 9 1 9 10
M  V30 10 1 10 11
M  V30 11 2 11 12
M  V30 12 1 12 13
M  V30 13 1 13 14
M  V30 14 1 14 15
M  V30 15 2 15 16
M  V30 16 1 16 17
M  V30 17 2 17 18
M  V30 18 1 18 19
M  V30 19 2 19 20
M  V30 20 1 20 21
M  V30 21 1 21 22
M  V30 22 1 18 23
M  V30 23 1 23 24
M  V30 24 1 24 25
M  V30 25 1 25 26
M  V30 26 2 26 27
M  V30 27 1 26 28
M  V30 28 1 28 29
M  V30 29 1 29 30
M  V30 30 1 29 31
M  V30 31 2 13 32
M  V30 32 1 32 33
M  V30 33 2 33 34
M  V30 34 1 34 35
M  V30 35 2 35 36
M  V30 36 1 35 37
M  V30 37 2 9 5
M  V30 38 1 34 11
M  V30 39 1 20 15
M  V30 40 1 25 17
M  V30 41 1 1 38
M  V30 42 1 1 39
M  V30 43 1 1 40
M  V30 44 1 7 41
M  V30 45 1 8 42
M  V30 46 1 10 43
M  V30 47 1 14 44
M  V30 48 1 16 45
M  V30 49 1 19 46
M  V30 50 1 22 47
M  V30 51 1 22 48
M  V30 52 1 22 49
M  V30 53 1 23 50
M  V30 54 1 23 51
M  V30 55 1 24 52
M  V30 56 1 24 53
M  V30 57 1 28 54
M  V30 58 1 28 55
M  V30 59 1 30 56
M  V30 60 1 30 57
M  V30 61 1 30 58
M  V30 62 1 31 59
M  V30 63 1 31 60
M  V30 64 1 31 61
M  V30 65 1 33 62
M  V30 END BOND
M  V30 END CTAB
M  END
>  <Dataset>  (99) 
ChEMBL_Kinases

>  <Ligand_Instance>  (99) 
nan

>  <PDB_ID>  (99) 
nan

>  <Standardized_SMILES>  (99) 
COC(=O)c1sccc1Nc1nc(Nc2cc3c(cc2OC)CCN3C(=O)CN(C)C)ncc1[N+](=O)[O-]

>  <Name>  (99) 
nan

>  <Pocket>  (99) 
nan

>  <ATP_Site>  (99) 
nan

>  <Peripheral>  (99) 
nan

>  <Num_H_Atoms_ProtBoundConf>  (99) 
nan

>  <Num_Resolved_Atoms>  (99) 
nan

>  <Num_Not_Resolved_Atoms>  (99) 
nan

$$$$
CHEMBL4776391
     RDKit          3D

  0  0  0  0  0  0  0  0  0  0999 V3000
M  V30 BEGIN CTAB
M  V30 COUNTS 37 38 0 0 0
M  V30 BEGIN ATOM
M  V30 1 C -0.620827 -4.199533 4.324870 0
M  V30 2 O 0.796511 -4.122191 4.428385 0
M  V30 3 C 1.560936 -3.297090 3.645110 0
M  V30 4 C 0.972353 -2.468826 2.680873 0
M  V30 5 C 1.791715 -1.641156 1.901557 0
M  V30 6 C 1.023618 -0.853478 0.940806 0
M  V30 7 C 1.269655 0.415975 0.683722 0
M  V30 8 C 2.351842 1.109906 1.370437 0
M  V30 9 N 3.201535 1.668091 1.931328 0
M  V30 10 C 0.544447 1.254645 -0.262583 0
M  V30 11 O 0.771782 2.455466 -0.510545 0
M  V30 12 N -0.536916 0.744071 -1.018943 0
M  V30 13 C -1.358831 1.393573 -1.979555 0
M  V30 14 C -2.517259 2.024462 -1.574817 0
M  V30 15 C -3.336707 2.662034 -2.479730 0
M  V30 16 C -2.972982 2.655320 -3.799250 0
M  V30 17 C -1.817028 2.024967 -4.197978 0
M  V30 18 C -0.969586 1.375958 -3.325280 0
M  V30 19 O 0.206334 0.722243 -3.653109 0
M  V30 20 C 3.151884 -1.664160 2.104195 0
M  V30 21 C 3.724768 -2.480596 3.054382 0
M  V30 22 C 2.927005 -3.297263 3.824630 0
M  V30 23 O 3.568357 -4.092713 4.761081 0
M  V30 24 H -1.069038 -3.230659 4.666627 0
M  V30 25 H -0.993190 -5.024482 4.958440 0
M  V30 26 H -0.939323 -4.344707 3.265944 0
M  V30 27 H -0.104045 -2.529603 2.605752 0
M  V30 28 H 0.209165 -1.300873 0.393293 0
M  V30 29 H -0.874660 -0.240141 -0.948444 0
M  V30 30 H -2.782781 2.015065 -0.521298 0
M  V30 31 H -4.229733 3.144658 -2.143479 0
M  V30 32 H -3.605724 3.153889 -4.536615 0
M  V30 33 H -1.488523 1.995893 -5.248726 0
M  V30 34 H 0.119228 -0.191267 -4.098776 0
M  V30 35 H 3.710069 -1.004325 1.459830 0
M  V30 36 H 4.800997 -2.399301 3.108530 0
M  V30 37 H 3.112600 -4.390278 5.632307 0
M  V30 END ATOM
M  V30 BEGIN BOND
M  V30 1 1 1 2
M  V30 2 1 2 3
M  V30 3 2 3 4
M  V30 4 1 4 5
M  V30 5 1 5 6
M  V30 6 2 6 7
M  V30 7 1 7 8
M  V30 8 3 8 9
M  V30 9 1 7 10
M  V30 10 2 10 11
M  V30 11 1 10 12
M  V30 12 1 12 13
M  V30 13 2 13 14
M  V30 14 1 14 15
M  V30 15 2 15 16
M  V30 16 1 16 17
M  V30 17 2 17 18
M  V30 18 1 18 19
M  V30 19 2 5 20
M  V30 20 1 20 21
M  V30 21 2 21 22
M  V30 22 1 22 23
M  V30 23 1 22 3
M  V30 24 1 18 13
M  V30 25 1 1 24
M  V30 26 1 1 25
M  V30 27 1 1 26
M  V30 28 1 4 27
M  V30 29 1 6 28
M  V30 30 1 12 29
M  V30 31 1 14 30
M  V30 32 1 15 31
M  V30 33 1 16 32
M  V30 34 1 17 33
M  V30 35 1 19 34
M  V30 36 1 20 35
M  V30 37 1 21 36
M  V30 38 1 23 37
M  V30 END BOND
M  V30 END CTAB
M  END
>  <Dataset>  (100) 
ChEMBL_Kinases

>  <Ligand_Instance>  (100) 
nan

>  <PDB_ID>  (100) 
nan

>  <Standardized_SMILES>  (100) 
COc1cc(/C=C(\C#N)C(=O)Nc2ccccc2O)ccc1O

>  <Name>  (100) 
nan

>  <Pocket>  (100) 
nan

>  <ATP_Site>  (100) 
nan

>  <Peripheral>  (100) 
nan

>  <Num_H_Atoms_ProtBoundConf>  (100) 
nan

>  <Num_Resolved_Atoms>  (100) 
nan

>  <Num_Not_Resolved_Atoms>  (100) 
nan

$$$$
CHEMBL4226302
     RDKit          3D

  0  0  0  0  0  0  0  0  0  0999 V3000
M  V30 BEGIN CTAB
M  V30 COUNTS 47 51 0 0 0
M  V30 BEGIN ATOM
M  V30 1 O -1.550322 -2.192172 2.620100 0
M  V30 2 C -1.510906 -3.152375 1.809686 0
M  V30 3 N -0.322352 -3.198302 1.021722 0
M  V30 4 C 0.456046 -2.060666 1.460594 0
M  V30 5 C 0.201108 -0.893934 0.750914 0
M  V30 6 C 0.946727 0.200681 1.172854 0
M  V30 7 C 0.719615 1.466019 0.458394 0
M  V30 8 C 1.753219 2.099447 -0.232770 0
M  V30 9 C 3.143320 1.646151 -0.358543 0
M  V30 10 C 3.621556 0.496452 -0.957675 0
M  V30 11 C 4.984547 0.265257 -0.960184 0
M  V30 12 C 5.855192 1.171629 -0.371502 0
M  V30 13 C 5.392314 2.340662 0.239777 0
M  V30 14 Cl 6.541275 3.440655 0.961972 0
M  V30 15 C 4.011168 2.557894 0.232668 0
M  V30 16 N 1.220251 3.219863 -0.768676 0
M  V30 17 C -0.098460 3.277862 -0.421109 0
M  V30 18 C -1.102468 4.203822 -0.700036 0
M  V30 19 C -2.355101 3.932579 -0.168106 0
M  V30 20 C -2.639065 2.812373 0.605417 0
M  V30 21 N -1.615279 1.965049 0.829966 0
M  V30 22 N -0.409604 2.223209 0.319893 0
M  V30 23 C 1.851395 0.087823 2.213365 0
M  V30 24 C 2.051841 -1.109991 2.874336 0
M  V30 25 N 1.332863 -2.195177 2.478347 0
M  V30 26 C -2.647438 -4.090337 1.760123 0
M  V30 27 C -3.671464 -3.812288 2.639993 0
M  V30 28 C -4.779364 -4.664929 2.640519 0
M  V30 29 C -4.885484 -5.773565 1.793202 0
M  V30 30 C -3.808201 -5.994103 0.926786 0
M  V30 31 C -2.711959 -5.158952 0.919534 0
M  V30 32 H -0.285203 -4.009751 0.334768 0
M  V30 33 H -0.502964 -0.847545 -0.043418 0
M  V30 34 H 2.842893 -0.125003 -1.378209 0
M  V30 35 H 5.300328 -0.646356 -1.441576 0
M  V30 36 H 6.931989 0.954511 -0.392516 0
M  V30 37 H 3.753766 3.480290 0.725497 0
M  V30 38 H -0.904149 5.078917 -1.297674 0
M  V30 39 H -3.098602 4.680697 -0.413355 0
M  V30 40 H -3.653746 2.706971 0.965055 0
M  V30 41 H 2.412971 0.948555 2.517892 0
M  V30 42 H 2.759330 -1.208133 3.692022 0
M  V30 43 H -3.744069 -2.988118 3.366712 0
M  V30 44 H -5.621305 -4.488600 3.320301 0
M  V30 45 H -5.776098 -6.394743 1.845650 0
M  V30 46 H -3.914633 -6.844122 0.293674 0
M  V30 47 H -1.885394 -5.352475 0.235213 0
M  V30 END ATOM
M  V30 BEGIN BOND
M  V30 1 2 1 2
M  V30 2 1 2 3
M  V30 3 1 3 4
M  V30 4 2 4 5
M  V30 5 1 5 6
M  V30 6 1 6 7
M  V30 7 2 7 8
M  V30 8 1 8 9
M  V30 9 2 9 10
M  V30 10 1 10 11
M  V30 11 2 11 12
M  V30 12 1 12 13
M  V30 13 1 13 14
M  V30 14 2 13 15
M  V30 15 1 8 16
M  V30 16 2 16 17
M  V30 17 1 17 18
M  V30 18 2 18 19
M  V30 19 1 19 20
M  V30 20 2 20 21
M  V30 21 1 21 22
M  V30 22 2 6 23
M  V30 23 1 23 24
M  V30 24 2 24 25
M  V30 25 1 2 26
M  V30 26 2 26 27
M  V30 27 1 27 28
M  V30 28 2 28 29
M  V30 29 1 29 30
M  V30 30 2 30 31
M  V30 31 1 25 4
M  V30 32 1 31 26
M  V30 33 1 22 7
M  V30 34 1 15 9
M  V30 35 1 22 17
M  V30 36 1 3 32
M  V30 37 1 5 33
M  V30 38 1 10 34
M  V30 39 1 11 35
M  V30 40 1 12 36
M  V30 41 1 15 37
M  V30 42 1 18 38
M  V30 43 1 19 39
M  V30 44 1 20 40
M  V30 45 1 23 41
M  V30 46 1 24 42
M  V30 47 1 27 43
M  V30 48 1 28 44
M  V30 49 1 29 45
M  V30 50 1 30 46
M  V30 51 1 31 47
M  V30 END BOND
M  V30 END CTAB
M  END
>  <Dataset>  (101) 
ChEMBL_Kinases

>  <Ligand_Instance>  (101) 
nan

>  <PDB_ID>  (101) 
nan

>  <Standardized_SMILES>  (101) 
O=C(Nc1cc(-c2c(-c3cccc(Cl)c3)nc3cccnn23)ccn1)c1ccccc1

>  <Name>  (101) 
nan

>  <Pocket>  (101) 
nan

>  <ATP_Site>  (101) 
nan

>  <Peripheral>  (101) 
nan

>  <Num_H_Atoms_ProtBoundConf>  (101) 
nan

>  <Num_Resolved_Atoms>  (101) 
nan

>  <Num_Not_Resolved_Atoms>  (101) 
nan

$$$$
CHEMBL4227557
     RDKit          3D

  0  0  0  0  0  0  0  0  0  0999 V3000
M  V30 BEGIN CTAB
M  V30 COUNTS 62 67 0 0 0
M  V30 BEGIN ATOM
M  V30 1 C 0.687988 -0.736418 4.764255 0
M  V30 2 C 0.936934 0.115874 3.576562 0
M  V30 3 C 1.933590 -0.034738 2.648092 0
M  V30 4 N 2.133328 0.739728 1.576036 0
M  V30 5 C 3.043259 0.710279 0.601994 0
M  V30 6 C 4.158809 -0.166807 0.326249 0
M  V30 7 C 4.757393 -1.274135 0.879092 0
M  V30 8 N 5.816612 -1.679503 0.169267 0
M  V30 9 N 5.955288 -0.855058 -0.878773 0
M  V30 10 C 4.961801 0.019866 -0.748157 0
M  V30 11 C 2.667430 1.802415 -0.190558 0
M  V30 12 N 1.600977 2.383384 0.348563 0
M  V30 13 C 1.215465 1.750386 1.469905 0
M  V30 14 C 0.198117 1.940306 2.378210 0
M  V30 15 N -0.622919 3.049464 2.046020 0
M  V30 16 C -1.895388 2.910708 1.392549 0
M  V30 17 C -2.556118 1.691704 1.127036 0
M  V30 18 C -3.717706 2.019859 0.470415 0
M  V30 19 C -4.637968 0.890022 0.075558 0
M  V30 20 C -3.984746 0.053336 -0.982724 0
M  V30 21 C -3.793882 0.612299 -2.224998 0
M  V30 22 C -3.191181 -0.230169 -3.130409 0
M  V30 23 C -2.788886 -1.529070 -2.890317 0
M  V30 24 C -3.031107 -1.981299 -1.615879 0
M  V30 25 C -2.695401 -3.327038 -1.111802 0
M  V30 26 N -1.464640 -3.456623 -0.428973 0
M  V30 27 C -0.266898 -3.142352 -1.118688 0
M  V30 28 C 0.863756 -3.851845 -0.354394 0
M  V30 29 C 0.864587 -3.475667 1.109651 0
M  V30 30 C -0.514167 -3.653555 1.738913 0
M  V30 31 C -1.447828 -2.822014 0.873945 0
M  V30 32 N -3.614636 -1.210787 -0.678354 0
M  V30 33 N -4.184737 3.273183 0.119873 0
M  V30 34 S -2.750309 4.233522 0.825412 0
M  V30 35 N 0.060849 1.123195 3.428902 0
M  V30 36 H -0.415937 -0.758848 4.996892 0
M  V30 37 H 1.180514 -0.296806 5.643647 0
M  V30 38 H 1.010386 -1.791940 4.577425 0
M  V30 39 H 2.587037 -0.850126 2.825540 0
M  V30 40 H 4.397930 -1.742378 1.772174 0
M  V30 41 H 6.733647 -1.016989 -1.548823 0
M  V30 42 H 4.941977 0.781068 -1.551604 0
M  V30 43 H 3.110320 2.184669 -1.106404 0
M  V30 44 H -0.198129 3.929463 2.325859 0
M  V30 45 H -2.183498 0.728159 1.404761 0
M  V30 46 H -4.818040 0.212075 0.956497 0
M  V30 47 H -5.616277 1.197681 -0.268637 0
M  V30 48 H -4.080375 1.618743 -2.508083 0
M  V30 49 H -3.012905 0.169525 -4.133425 0
M  V30 50 H -2.323004 -2.179687 -3.584754 0
M  V30 51 H -3.512333 -3.694296 -0.448933 0
M  V30 52 H -2.688713 -4.019423 -1.985327 0
M  V30 53 H -0.031804 -2.054563 -1.148065 0
M  V30 54 H -0.285799 -3.551454 -2.132308 0
M  V30 55 H 1.804635 -3.542888 -0.802038 0
M  V30 56 H 0.734045 -4.948953 -0.481906 0
M  V30 57 H 1.629186 -4.112634 1.591864 0
M  V30 58 H 1.116864 -2.403893 1.198732 0
M  V30 59 H -0.445403 -3.309960 2.764273 0
M  V30 60 H -0.748030 -4.749108 1.646329 0
M  V30 61 H -2.447839 -2.679701 1.316445 0
M  V30 62 H -0.937300 -1.832426 0.771100 0
M  V30 END ATOM
M  V30 BEGIN BOND
M  V30 1 1 1 2
M  V30 2 2 2 3
M  V30 3 1 3 4
M  V30 4 1 4 5
M  V30 5 1 5 6
M  V30 6 1 6 7
M  V30 7 2 7 8
M  V30 8 1 8 9
M  V30 9 1 9 10
M  V30 10 2 5 11
M  V30 11 1 11 12
M  V30 12 2 12 13
M  V30 13 1 13 14
M  V30 14 1 14 15
M  V30 15 1 15 16
M  V30 16 2 16 17
M  V30 17 1 17 18
M  V30 18 1 18 19
M  V30 19 1 19 20
M  V30 20 2 20 21
M  V30 21 1 21 22
M  V30 22 2 22 23
M  V30 23 1 23 24
M  V30 24 1 24 25
M  V30 25 1 25 26
M  V30 26 1 26 27
M  V30 27 1 27 28
M  V30 28 1 28 29
M  V30 29 1 29 30
M  V30 30 1 30 31
M  V30 31 2 24 32
M  V30 32 2 18 33
M  V30 33 1 33 34
M  V30 34 2 14 35
M  V30 35 1 35 2
M  V30 36 1 13 4
M  V30 37 1 34 16
M  V30 38 2 10 6
M  V30 39 1 32 20
M  V30 40 1 31 26
M  V30 41 1 1 36
M  V30 42 1 1 37
M  V30 43 1 1 38
M  V30 44 1 3 39
M  V30 45 1 7 40
M  V30 46 1 9 41
M  V30 47 1 10 42
M  V30 48 1 11 43
M  V30 49 1 15 44
M  V30 50 1 17 45
M  V30 51 1 19 46
M  V30 52 1 19 47
M  V30 53 1 21 48
M  V30 54 1 22 49
M  V30 55 1 23 50
M  V30 56 1 25 51
M  V30 57 1 25 52
M  V30 58 1 27 53
M  V30 59 1 27 54
M  V30 60 1 28 55
M  V30 61 1 28 56
M  V30 62 1 29 57
M  V30 63 1 29 58
M  V30 64 1 30 59
M  V30 65 1 30 60
M  V30 66 1 31 61
M  V30 67 1 31 62
M  V30 END BOND
M  V30 END CTAB
M  END
>  <Dataset>  (102) 
ChEMBL_Kinases

>  <Ligand_Instance>  (102) 
nan

>  <PDB_ID>  (102) 
nan

>  <Standardized_SMILES>  (102) 
Cc1cn2c(-c3cn[nH]c3)cnc2c(Nc2cc(Cc3cccc(CN4CCCCC4)n3)ns2)n1

>  <Name>  (102) 
nan

>  <Pocket>  (102) 
nan

>  <ATP_Site>  (102) 
nan

>  <Peripheral>  (102) 
nan

>  <Num_H_Atoms_ProtBoundConf>  (102) 
nan

>  <Num_Resolved_Atoms>  (102) 
nan

>  <Num_Not_Resolved_Atoms>  (102) 
nan

$$$$
CHEMBL4227556
     RDKit          3D

  0  0  0  0  0  0  0  0  0  0999 V3000
M  V30 BEGIN CTAB
M  V30 COUNTS 47 50 0 0 0
M  V30 BEGIN ATOM
M  V30 1 C 0.363762 -3.064449 1.645883 0
M  V30 2 C 1.337550 -3.147200 2.821912 0
M  V30 3 C 0.969498 -2.166483 3.911361 0
M  V30 4 N 2.713140 -2.978759 2.393030 0
M  V30 5 C 3.237199 -1.816639 1.763107 0
M  V30 6 C 4.570314 -1.691325 1.354282 0
M  V30 7 C 5.020321 -0.535956 0.750494 0
M  V30 8 C 4.198172 0.544471 0.518159 0
M  V30 9 C 4.414352 1.779548 -0.056505 0
M  V30 10 N 3.221694 2.396987 0.003992 0
M  V30 11 N 2.318007 1.622663 0.569658 0
M  V30 12 C 0.932381 1.953530 0.801739 0
M  V30 13 C 0.475787 3.001498 1.573682 0
M  V30 14 N -0.845145 3.205222 1.712293 0
M  V30 15 C -1.734058 2.380719 1.093368 0
M  V30 16 C -1.302166 1.326438 0.316528 0
M  V30 17 C -2.195102 0.408495 -0.371594 0
M  V30 18 C -1.624466 -0.602542 -1.115051 0
M  V30 19 C -2.404911 -1.513313 -1.796745 0
M  V30 20 C -3.778274 -1.451794 -1.763880 0
M  V30 21 C -4.314749 -0.440989 -1.020286 0
M  V30 22 C -5.782512 -0.338685 -0.958102 0
M  V30 23 O -6.464849 -1.197324 -1.600112 0
M  V30 24 O -6.438359 0.647318 -0.234171 0
M  V30 25 C -3.557621 0.485876 -0.326891 0
M  V30 26 N 0.025998 1.146397 0.195509 0
M  V30 27 C 2.879721 0.447119 0.911412 0
M  V30 28 C 2.447207 -0.714611 1.513225 0
M  V30 29 H -0.149804 -4.033396 1.457162 0
M  V30 30 H 0.900123 -2.762247 0.712113 0
M  V30 31 H -0.372123 -2.281313 1.906207 0
M  V30 32 H 1.235428 -4.164327 3.224686 0
M  V30 33 H 0.117988 -1.508708 3.631909 0
M  V30 34 H 0.706474 -2.687199 4.830075 0
M  V30 35 H 1.828959 -1.497522 4.115605 0
M  V30 36 H 3.423562 -3.748959 2.535866 0
M  V30 37 H 5.204004 -2.544533 1.541945 0
M  V30 38 H 6.076258 -0.499957 0.453141 0
M  V30 39 H 5.328603 2.176741 -0.467155 0
M  V30 40 H 1.247776 3.612506 2.033412 0
M  V30 41 H -2.795865 2.551926 1.210321 0
M  V30 42 H -0.549024 -0.746305 -1.211604 0
M  V30 43 H -1.941616 -2.316544 -2.387339 0
M  V30 44 H -4.389856 -2.157043 -2.291809 0
M  V30 45 H -7.335839 0.403680 0.201683 0
M  V30 46 H -4.031120 1.254824 0.238168 0
M  V30 47 H 1.403269 -0.682107 1.780913 0
M  V30 END ATOM
M  V30 BEGIN BOND
M  V30 1 1 1 2
M  V30 2 1 2 3
M  V30 3 1 2 4
M  V30 4 1 4 5
M  V30 5 2 5 6
M  V30 6 1 6 7
M  V30 7 2 7 8
M  V30 8 1 8 9
M  V30 9 2 9 10
M  V30 10 1 10 11
M  V30 11 1 11 12
M  V30 12 2 12 13
M  V30 13 1 13 14
M  V30 14 2 14 15
M  V30 15 1 15 16
M  V30 16 1 16 17
M  V30 17 2 17 18
M  V30 18 1 18 19
M  V30 19 2 19 20
M  V30 20 1 20 21
M  V30 21 1 21 22
M  V30 22 2 22 23
M  V30 23 1 22 24
M  V30 24 2 21 25
M  V30 25 2 16 26
M  V30 26 1 11 27
M  V30 27 2 27 28
M  V30 28 1 28 5
M  V30 29 1 27 8
M  V30 30 1 26 12
M  V30 31 1 25 17
M  V30 32 1 1 29
M  V30 33 1 1 30
M  V30 34 1 1 31
M  V30 35 1 2 32
M  V30 36 1 3 33
M  V30 37 1 3 34
M  V30 38 1 3 35
M  V30 39 1 4 36
M  V30 40 1 6 37
M  V30 41 1 7 38
M  V30 42 1 9 39
M  V30 43 1 13 40
M  V30 44 1 15 41
M  V30 45 1 18 42
M  V30 46 1 19 43
M  V30 47 1 20 44
M  V30 48 1 24 45
M  V30 49 1 25 46
M  V30 50 1 28 47
M  V30 END BOND
M  V30 END CTAB
M  END
>  <Dataset>  (103) 
ChEMBL_Kinases

>  <Ligand_Instance>  (103) 
nan

>  <PDB_ID>  (103) 
nan

>  <Standardized_SMILES>  (103) 
CC(C)Nc1ccc2cnn(-c3cncc(-c4cccc(C(=O)O)c4)n3)c2c1

>  <Name>  (103) 
nan

>  <Pocket>  (103) 
nan

>  <ATP_Site>  (103) 
nan

>  <Peripheral>  (103) 
nan

>  <Num_H_Atoms_ProtBoundConf>  (103) 
nan

>  <Num_Resolved_Atoms>  (103) 
nan

>  <Num_Not_Resolved_Atoms>  (103) 
nan

$$$$
CHEMBL4227538
     RDKit          3D

  0  0  0  0  0  0  0  0  0  0999 V3000
M  V30 BEGIN CTAB
M  V30 COUNTS 41 45 0 0 0
M  V30 BEGIN ATOM
M  V30 1 C 2.962665 -4.721948 0.316027 0
M  V30 2 C 2.546328 -3.286901 0.417103 0
M  V30 3 C 2.921648 -2.348811 -0.519626 0
M  V30 4 N 2.595084 -1.052379 -0.502626 0
M  V30 5 C 2.884320 -0.046579 -1.332362 0
M  V30 6 C 3.656128 0.011210 -2.553979 0
M  V30 7 C 4.375337 -0.841022 -3.349331 0
M  V30 8 N 4.899459 -0.199889 -4.407343 0
M  V30 9 N 4.560869 1.080225 -4.366060 0
M  V30 10 C 3.818722 1.209205 -3.260966 0
M  V30 11 C 2.235989 1.030508 -0.734549 0
M  V30 12 N 1.620874 0.620198 0.375422 0
M  V30 13 C 1.832012 -0.696631 0.546500 0
M  V30 14 C 1.426319 -1.571372 1.505784 0
M  V30 15 N 0.620255 -1.195815 2.612588 0
M  V30 16 C -0.820864 -1.214938 2.509892 0
M  V30 17 C -1.735591 -0.910382 3.440299 0
M  V30 18 C -3.039912 -1.012382 3.071551 0
M  V30 19 C -4.177044 -0.707998 4.001329 0
M  V30 20 C -4.544379 0.777865 3.893857 0
M  V30 21 N -5.424301 1.432112 3.087203 0
M  V30 22 C -5.430823 2.729994 3.326857 0
M  V30 23 C -4.689040 3.484437 4.254651 0
M  V30 24 S -3.718378 2.042920 5.007787 0
M  V30 25 N -3.353716 -1.412560 1.794968 0
M  V30 26 S -1.651104 -1.666815 1.052466 0
M  V30 27 N 1.776034 -2.860298 1.450495 0
M  V30 28 H 4.068384 -4.813244 0.359489 0
M  V30 29 H 2.522626 -5.259890 1.165129 0
M  V30 30 H 2.626457 -5.117192 -0.666188 0
M  V30 31 H 3.525986 -2.734170 -1.312110 0
M  V30 32 H 4.501156 -1.876965 -3.152302 0
M  V30 33 H 4.841163 1.784741 -5.068322 0
M  V30 34 H 3.422527 2.206456 -3.022717 0
M  V30 35 H 2.195108 2.064355 -1.062663 0
M  V30 36 H 1.045598 -0.899119 3.518082 0
M  V30 37 H -1.411533 -0.602711 4.422156 0
M  V30 38 H -5.094842 -1.211136 3.716402 0
M  V30 39 H -3.887010 -0.910926 5.053748 0
M  V30 40 H -6.172206 3.144626 2.621084 0
M  V30 41 H -4.777472 4.457170 4.345354 0
M  V30 END ATOM
M  V30 BEGIN BOND
M  V30 1 1 1 2
M  V30 2 2 2 3
M  V30 3 1 3 4
M  V30 4 1 4 5
M  V30 5 1 5 6
M  V30 6 1 6 7
M  V30 7 2 7 8
M  V30 8 1 8 9
M  V30 9 1 9 10
M  V30 10 2 5 11
M  V30 11 1 11 12
M  V30 12 2 12 13
M  V30 13 1 13 14
M  V30 14 1 14 15
M  V30 15 1 15 16
M  V30 16 2 16 17
M  V30 17 1 17 18
M  V30 18 1 18 19
M  V30 19 1 19 20
M  V30 20 2 20 21
M  V30 21 1 21 22
M  V30 22 2 22 23
M  V30 23 1 23 24
M  V30 24 2 18 25
M  V30 25 1 25 26
M  V30 26 2 14 27
M  V30 27 1 27 2
M  V30 28 1 13 4
M  V30 29 1 26 16
M  V30 30 2 10 6
M  V30 31 1 24 20
M  V30 32 1 1 28
M  V30 33 1 1 29
M  V30 34 1 1 30
M  V30 35 1 3 31
M  V30 36 1 7 32
M  V30 37 1 9 33
M  V30 38 1 10 34
M  V30 39 1 11 35
M  V30 40 1 15 36
M  V30 41 1 17 37
M  V30 42 1 19 38
M  V30 43 1 19 39
M  V30 44 1 22 40
M  V30 45 1 23 41
M  V30 END BOND
M  V30 END CTAB
M  END
>  <Dataset>  (104) 
ChEMBL_Kinases

>  <Ligand_Instance>  (104) 
nan

>  <PDB_ID>  (104) 
nan

>  <Standardized_SMILES>  (104) 
Cc1cn2c(-c3cn[nH]c3)cnc2c(Nc2cc(Cc3nccs3)ns2)n1

>  <Name>  (104) 
nan

>  <Pocket>  (104) 
nan

>  <ATP_Site>  (104) 
nan

>  <Peripheral>  (104) 
nan

>  <Num_H_Atoms_ProtBoundConf>  (104) 
nan

>  <Num_Resolved_Atoms>  (104) 
nan

>  <Num_Not_Resolved_Atoms>  (104) 
nan

$$$$
CHEMBL4227523
     RDKit          3D

  0  0  0  0  0  0  0  0  0  0999 V3000
M  V30 BEGIN CTAB
M  V30 COUNTS 52 56 0 0 0
M  V30 BEGIN ATOM
M  V30 1 C 6.885975 -3.643710 4.700973 0
M  V30 2 C 5.903061 -2.976234 3.808691 0
M  V30 3 C 5.412336 -1.737381 4.098361 0
M  V30 4 C 4.500287 -1.086229 3.295094 0
M  V30 5 C 4.069498 -1.721712 2.149473 0
M  V30 6 C 3.110410 -1.244286 1.130108 0
M  V30 7 O 2.740019 -1.881924 0.087690 0
M  V30 8 N 2.439558 0.034100 1.163031 0
M  V30 9 C 1.622193 0.030554 -0.030466 0
M  V30 10 C 0.351765 -0.465894 0.111721 0
M  V30 11 C -0.529515 -0.530862 -0.947985 0
M  V30 12 C -1.898225 -1.031798 -0.921306 0
M  V30 13 C -2.942548 -0.434795 -0.248414 0
M  V30 14 C -3.001886 0.773371 0.567455 0
M  V30 15 C -2.415960 1.104436 1.766647 0
M  V30 16 C -2.641069 2.328947 2.319136 0
M  V30 17 C -3.443846 3.287495 1.735069 0
M  V30 18 F -3.634949 4.493333 2.333364 0
M  V30 19 C -4.039003 2.965487 0.527457 0
M  V30 20 C -4.898710 4.016626 -0.081977 0
M  V30 21 C -3.820714 1.733098 -0.041897 0
M  V30 22 N -4.033490 -1.222141 -0.481470 0
M  V30 23 C -3.615875 -2.243616 -1.269934 0
M  V30 24 C -4.338983 -3.301090 -1.779378 0
M  V30 25 C -3.707858 -4.238257 -2.568227 0
M  V30 26 C -2.354202 -4.099271 -2.834845 0
M  V30 27 N -1.696831 -3.048455 -2.312411 0
M  V30 28 N -2.304267 -2.149319 -1.555393 0
M  V30 29 C -0.013408 -0.051084 -2.158121 0
M  V30 30 C 1.268572 0.448358 -2.294950 0
M  V30 31 N 2.067097 0.478106 -1.214101 0
M  V30 32 C 4.569508 -2.974796 1.862130 0
M  V30 33 N 5.458903 -3.560935 2.684894 0
M  V30 34 H 6.683960 -3.455451 5.759462 0
M  V30 35 H 6.886434 -4.746574 4.510570 0
M  V30 36 H 7.879162 -3.232624 4.424553 0
M  V30 37 H 5.711055 -1.198302 4.972795 0
M  V30 38 H 4.051707 -0.114090 3.431432 0
M  V30 39 H 2.670829 0.658561 1.993142 0
M  V30 40 H -0.005516 -0.822775 1.046120 0
M  V30 41 H -1.813562 0.293717 2.139379 0
M  V30 42 H -2.135413 2.511984 3.277951 0
M  V30 43 H -5.736896 3.476870 -0.609095 0
M  V30 44 H -5.290792 4.717451 0.653618 0
M  V30 45 H -4.320051 4.539261 -0.874974 0
M  V30 46 H -4.353090 1.622954 -0.987828 0
M  V30 47 H -5.413400 -3.468548 -1.605765 0
M  V30 48 H -4.145384 -5.110568 -3.030940 0
M  V30 49 H -1.714793 -4.746923 -3.433584 0
M  V30 50 H -0.644692 -0.067464 -3.043893 0
M  V30 51 H 1.644845 0.814898 -3.245476 0
M  V30 52 H 4.342096 -3.619041 1.005803 0
M  V30 END ATOM
M  V30 BEGIN BOND
M  V30 1 1 1 2
M  V30 2 2 2 3
M  V30 3 1 3 4
M  V30 4 2 4 5
M  V30 5 1 5 6
M  V30 6 2 6 7
M  V30 7 1 6 8
M  V30 8 1 8 9
M  V30 9 2 9 10
M  V30 10 1 10 11
M  V30 11 1 11 12
M  V30 12 2 12 13
M  V30 13 1 13 14
M  V30 14 2 14 15
M  V30 15 1 15 16
M  V30 16 2 16 17
M  V30 17 1 17 18
M  V30 18 1 17 19
M  V30 19 1 19 20
M  V30 20 2 19 21
M  V30 21 1 13 22
M  V30 22 2 22 23
M  V30 23 1 23 24
M  V30 24 2 24 25
M  V30 25 1 25 26
M  V30 26 2 26 27
M  V30 27 1 27 28
M  V30 28 2 11 29
M  V30 29 1 29 30
M  V30 30 2 30 31
M  V30 31 1 5 32
M  V30 32 2 32 33
M  V30 33 1 33 2
M  V30 34 1 31 9
M  V30 35 1 28 12
M  V30 36 1 21 14
M  V30 37 1 28 23
M  V30 38 1 1 34
M  V30 39 1 1 35
M  V30 40 1 1 36
M  V30 41 1 3 37
M  V30 42 1 4 38
M  V30 43 1 8 39
M  V30 44 1 10 40
M  V30 45 1 15 41
M  V30 46 1 16 42
M  V30 47 1 20 43
M  V30 48 1 20 44
M  V30 49 1 20 45
M  V30 50 1 21 46
M  V30 51 1 24 47
M  V30 52 1 25 48
M  V30 53 1 26 49
M  V30 54 1 29 50
M  V30 55 1 30 51
M  V30 56 1 32 52
M  V30 END BOND
M  V30 END CTAB
M  END
>  <Dataset>  (105) 
ChEMBL_Kinases

>  <Ligand_Instance>  (105) 
nan

>  <PDB_ID>  (105) 
nan

>  <Standardized_SMILES>  (105) 
Cc1ccc(C(=O)Nc2cc(-c3c(-c4ccc(F)c(C)c4)nc4cccnn34)ccn2)cn1

>  <Name>  (105) 
nan

>  <Pocket>  (105) 
nan

>  <ATP_Site>  (105) 
nan

>  <Peripheral>  (105) 
nan

>  <Num_H_Atoms_ProtBoundConf>  (105) 
nan

>  <Num_Resolved_Atoms>  (105) 
nan

>  <Num_Not_Resolved_Atoms>  (105) 
nan

$$$$
CHEMBL4227512
     RDKit          3D

  0  0  0  0  0  0  0  0  0  0999 V3000
M  V30 BEGIN CTAB
M  V30 COUNTS 83 89 0 0 0
M  V30 BEGIN ATOM
M  V30 1 C 1.271951 -3.481237 2.084829 0
M  V30 2 C 0.910184 -2.540344 3.182456 0
M  V30 3 C -0.421588 -1.866394 3.045159 0 CFG=1
M  V30 4 C -0.671466 -0.944710 4.215095 0
M  V30 5 O -1.535380 -0.930275 5.137802 0
M  V30 6 N 0.299063 0.071161 4.195554 0
M  V30 7 C 0.602626 1.199298 5.004549 0
M  V30 8 C 1.493006 1.049881 6.075475 0
M  V30 9 C 1.854761 2.092127 6.928167 0
M  V30 10 C 1.311093 3.324502 6.706268 0
M  V30 11 N 1.429315 4.522235 7.308214 0
M  V30 12 N 0.676907 5.448038 6.705737 0
M  V30 13 C 0.047392 4.847545 5.682279 0
M  V30 14 C -0.866379 5.555301 4.791340 0
M  V30 15 C -2.110520 5.086385 4.366409 0
M  V30 16 C -2.849927 5.881519 3.526407 0
M  V30 17 C -2.464735 7.118067 3.060469 0
M  V30 18 F -3.245473 7.831681 2.239212 0
M  V30 19 C -1.219723 7.593985 3.481503 0
M  V30 20 C -0.466281 6.803071 4.327257 0
M  V30 21 C 0.430658 3.509125 5.661870 0
M  V30 22 C 0.076063 2.471054 4.819328 0
M  V30 23 C -0.511630 -1.031086 1.783345 0
M  V30 24 C -2.016107 -1.000415 1.623171 0
M  V30 25 N -2.358412 -2.379621 1.747681 0
M  V30 26 C -2.073366 -3.183169 0.573121 0
M  V30 27 C -2.917003 -2.840504 -0.570310 0
M  V30 28 O -3.840054 -2.015471 -0.814288 0
M  V30 29 N -2.645437 -3.632124 -1.729599 0
M  V30 30 C -3.322696 -3.498289 -3.005865 0
M  V30 31 C -2.242468 -3.078888 -3.965856 0
M  V30 32 C -0.972908 -3.438166 -3.879197 0
M  V30 33 C 0.036819 -3.011507 -4.825406 0
M  V30 34 C 1.358564 -3.420347 -4.697728 0
M  V30 35 C 2.387494 -3.068086 -5.542865 0
M  V30 36 C 2.057993 -2.241511 -6.594638 0
M  V30 37 C 3.171881 -1.866114 -7.491705 0
M  V30 38 N 4.441030 -2.306982 -7.302621 0
M  V30 39 C 5.471447 -1.994799 -8.080302 0
M  V30 40 C 5.241880 -1.173925 -9.144987 0
M  V30 41 C 3.970340 -0.688693 -9.394988 0
M  V30 42 N 2.988584 -1.059002 -8.552872 0
M  V30 43 C 0.776409 -1.774211 -6.819303 0
M  V30 44 C -0.192947 -2.190791 -5.903212 0
M  V30 45 C -0.534541 -4.323018 -2.764512 0
M  V30 46 C -1.673741 -4.699247 -1.854269 0
M  V30 47 C -1.553440 -2.815019 2.873035 0
M  V30 48 H 1.313573 -3.013384 1.103331 0
M  V30 49 H 0.662520 -4.425877 2.106422 0
M  V30 50 H 2.312981 -3.851950 2.316028 0
M  V30 51 H 1.002978 -3.082857 4.141236 0
M  V30 52 H 1.675313 -1.724209 3.188966 0
M  V30 53 H 1.105327 0.260455 3.523891 0
M  V30 54 H 1.909974 0.042986 6.225027 0
M  V30 55 H 2.549831 1.915279 7.742265 0
M  V30 56 H 2.014660 4.736998 8.127916 0
M  V30 57 H -2.408300 4.120240 4.732816 0
M  V30 58 H -3.813059 5.518791 3.197031 0
M  V30 59 H -0.859589 8.556901 3.154647 0
M  V30 60 H 0.492487 7.222517 4.621701 0
M  V30 61 H -0.615774 2.626160 3.999752 0
M  V30 62 H -0.009593 -1.492234 0.910164 0
M  V30 63 H -0.149213 0.019205 1.944599 0
M  V30 64 H -2.421571 -0.480516 2.512572 0
M  V30 65 H -2.361280 -0.516858 0.696587 0
M  V30 66 H -0.984145 -3.195495 0.308535 0
M  V30 67 H -2.267208 -4.245196 0.904918 0
M  V30 68 H -3.757607 -4.456109 -3.295874 0
M  V30 69 H -4.072051 -2.682236 -2.923094 0
M  V30 70 H -2.578352 -2.441416 -4.762481 0
M  V30 71 H 1.611077 -4.071939 -3.864790 0
M  V30 72 H 3.394852 -3.446739 -5.353029 0
M  V30 73 H 6.420452 -2.432769 -7.790972 0
M  V30 74 H 6.104924 -0.930000 -9.772192 0
M  V30 75 H 3.827000 -0.042240 -10.244525 0
M  V30 76 H 0.549375 -1.130136 -7.650535 0
M  V30 77 H -1.179816 -1.821204 -6.087620 0
M  V30 78 H -0.158824 -5.265316 -3.253134 0
M  V30 79 H 0.320614 -3.899932 -2.208959 0
M  V30 80 H -2.145309 -5.640611 -2.214413 0
M  V30 81 H -1.223764 -4.978849 -0.860365 0
M  V30 82 H -2.205558 -2.831727 3.781856 0
M  V30 83 H -1.179706 -3.849431 2.739916 0
M  V30 END ATOM
M  V30 BEGIN BOND
M  V30 1 1 1 2
M  V30 2 1 3 2 CFG=1
M  V30 3 1 3 4
M  V30 4 2 4 5
M  V30 5 1 4 6
M  V30 6 1 6 7
M  V30 7 2 7 8
M  V30 8 1 8 9
M  V30 9 2 9 10
M  V30 10 1 10 11
M  V30 11 1 11 12
M  V30 12 2 12 13
M  V30 13 1 13 14
M  V30 14 2 14 15
M  V30 15 1 15 16
M  V30 16 2 16 17
M  V30 17 1 17 18
M  V30 18 1 17 19
M  V30 19 2 19 20
M  V30 20 1 13 21
M  V30 21 2 21 22
M  V30 22 1 3 23
M  V30 23 1 23 24
M  V30 24 1 24 25
M  V30 25 1 25 26
M  V30 26 1 26 27
M  V30 27 2 27 28
M  V30 28 1 27 29
M  V30 29 1 29 30
M  V30 30 1 30 31
M  V30 31 2 31 32
M  V30 32 1 32 33
M  V30 33 2 33 34
M  V30 34 1 34 35
M  V30 35 2 35 36
M  V30 36 1 36 37
M  V30 37 2 37 38
M  V30 38 1 38 39
M  V30 39 2 39 40
M  V30 40 1 40 41
M  V30 41 2 41 42
M  V30 42 1 36 43
M  V30 43 2 43 44
M  V30 44 1 32 45
M  V30 45 1 45 46
M  V30 46 1 25 47
M  V30 47 1 47 3
M  V30 48 1 22 7
M  V30 49 1 46 29
M  V30 50 1 21 10
M  V30 51 1 44 33
M  V30 52 1 20 14
M  V30 53 1 42 37
M  V30 54 1 1 48
M  V30 55 1 1 49
M  V30 56 1 1 50
M  V30 57 1 2 51
M  V30 58 1 2 52
M  V30 59 1 6 53
M  V30 60 1 8 54
M  V30 61 1 9 55
M  V30 62 1 11 56
M  V30 63 1 15 57
M  V30 64 1 16 58
M  V30 65 1 19 59
M  V30 66 1 20 60
M  V30 67 1 22 61
M  V30 68 1 23 62
M  V30 69 1 23 63
M  V30 70 1 24 64
M  V30 71 1 24 65
M  V30 72 1 26 66
M  V30 73 1 26 67
M  V30 74 1 30 68
M  V30 75 1 30 69
M  V30 76 1 31 70
M  V30 77 1 34 71
M  V30 78 1 35 72
M  V30 79 1 39 73
M  V30 80 1 40 74
M  V30 81 1 41 75
M  V30 82 1 43 76
M  V30 83 1 44 77
M  V30 84 1 45 78
M  V30 85 1 45 79
M  V30 86 1 46 80
M  V30 87 1 46 81
M  V30 88 1 47 82
M  V30 89 1 47 83
M  V30 END BOND
M  V30 END CTAB
M  END
>  <Dataset>  (106) 
ChEMBL_Kinases

>  <Ligand_Instance>  (106) 
nan

>  <PDB_ID>  (106) 
nan

>  <Standardized_SMILES>  (106) 
CC[C@@]1(C(=O)Nc2ccc3[nH]nc(-c4ccc(F)cc4)c3c2)CCN(CC(=O)N2CC=C(c3ccc(-c4ncccn4)cc3)CC2)C1

>  <Name>  (106) 
nan

>  <Pocket>  (106) 
nan

>  <ATP_Site>  (106) 
nan

>  <Peripheral>  (106) 
nan

>  <Num_H_Atoms_ProtBoundConf>  (106) 
nan

>  <Num_Resolved_Atoms>  (106) 
nan

>  <Num_Not_Resolved_Atoms>  (106) 
nan

$$$$
CHEMBL4227413
     RDKit          3D

  0  0  0  0  0  0  0  0  0  0999 V3000
M  V30 BEGIN CTAB
M  V30 COUNTS 65 69 0 0 0
M  V30 BEGIN ATOM
M  V30 1 C 4.636134 1.263301 2.332288 0
M  V30 2 C 3.565292 0.262749 2.488442 0
M  V30 3 C 2.303078 0.612680 2.318723 0
M  V30 4 C 1.798835 1.923502 1.978211 0
M  V30 5 O 0.543508 2.148302 1.841001 0
M  V30 6 N 2.171437 3.259005 1.690552 0
M  V30 7 C 0.986558 4.003283 1.436571 0
M  V30 8 C 0.675124 3.952485 0.073481 0
M  V30 9 C -0.461178 4.624781 -0.393061 0
M  V30 10 C -1.235075 5.315807 0.513640 0
M  V30 11 N -2.357904 6.051471 0.429305 0
M  V30 12 N -2.721140 6.522438 1.627383 0
M  V30 13 C -1.851992 6.117832 2.559025 0
M  V30 14 C -0.922286 5.365126 1.873852 0
M  V30 15 C 0.198132 4.700928 2.327245 0
M  V30 16 C 1.172812 -0.381535 2.480246 0
M  V30 17 C 0.309502 -0.439630 1.273132 0
M  V30 18 C -1.022201 -0.021967 1.299011 0
M  V30 19 C -1.826776 -0.063196 0.180779 0
M  V30 20 C -1.271353 -0.536524 -0.984903 0
M  V30 21 F -2.023830 -0.552829 -2.103458 0
M  V30 22 C 0.020624 -0.973167 -1.125977 0
M  V30 23 C 0.740814 -1.535524 -2.277949 0
M  V30 24 C 0.526044 -3.004454 -2.454318 0
M  V30 25 C -0.853990 -3.459930 -2.681866 0
M  V30 26 O -2.117325 -3.375217 -2.849343 0
M  V30 27 N -0.825331 -4.917189 -2.794983 0
M  V30 28 C -2.084404 -5.638158 -3.020755 0
M  V30 29 C -3.048743 -5.460019 -1.911216 0
M  V30 30 N -4.055396 -4.633859 -1.582091 0
M  V30 31 C -4.586851 -4.966889 -0.411612 0
M  V30 32 C -3.870973 -6.060162 0.009705 0
M  V30 33 C -4.011336 -6.875514 1.261003 0
M  V30 34 O -2.981913 -6.310450 -0.902020 0
M  V30 35 C 0.760984 -0.896207 0.051191 0
M  V30 36 N 1.790255 -1.631309 2.776603 0
M  V30 37 C 3.105921 -2.118684 2.982453 0
M  V30 38 O 3.339451 -3.308753 3.263723 0
M  V30 39 N 4.015514 -1.046077 2.811756 0
M  V30 40 H 4.689503 1.667327 1.303797 0
M  V30 41 H 5.648281 0.820237 2.568282 0
M  V30 42 H 4.555300 2.098927 3.042287 0
M  V30 43 H 3.197113 3.337600 1.739376 0
M  V30 44 H 1.208783 3.447670 -0.702239 0
M  V30 45 H -0.757994 4.624339 -1.439603 0
M  V30 46 H -2.835388 6.195988 -0.491329 0
M  V30 47 H -1.852119 6.319257 3.618023 0
M  V30 48 H 0.542841 4.663462 3.341251 0
M  V30 49 H 0.549503 -0.058831 3.333556 0
M  V30 50 H -1.453958 0.346849 2.233648 0
M  V30 51 H -2.860440 0.250898 0.161627 0
M  V30 52 H 1.839209 -1.347930 -2.190535 0
M  V30 53 H 0.380668 -0.985168 -3.193500 0
M  V30 54 H 1.141830 -3.410255 -3.298854 0
M  V30 55 H 0.926752 -3.478518 -1.500744 0
M  V30 56 H 0.046481 -5.543062 -2.728591 0
M  V30 57 H -2.524747 -5.225283 -3.963831 0
M  V30 58 H -1.849084 -6.695064 -3.195716 0
M  V30 59 H -5.385562 -4.537338 0.140491 0
M  V30 60 H -4.834623 -7.604422 1.043641 0
M  V30 61 H -3.099589 -7.444944 1.468879 0
M  V30 62 H -4.289054 -6.180749 2.070491 0
M  V30 63 H 1.815971 -1.213067 0.085961 0
M  V30 64 H 0.955762 -2.293447 2.834347 0
M  V30 65 H 5.033475 -1.278727 2.938308 0
M  V30 END ATOM
M  V30 BEGIN BOND
M  V30 1 1 1 2
M  V30 2 2 2 3
M  V30 3 1 3 4
M  V30 4 2 4 5
M  V30 5 1 4 6
M  V30 6 1 6 7
M  V30 7 2 7 8
M  V30 8 1 8 9
M  V30 9 2 9 10
M  V30 10 1 10 11
M  V30 11 1 11 12
M  V30 12 2 12 13
M  V30 13 1 13 14
M  V30 14 2 14 15
M  V30 15 1 3 16
M  V30 16 1 16 17
M  V30 17 2 17 18
M  V30 18 1 18 19
M  V30 19 2 19 20
M  V30 20 1 20 21
M  V30 21 1 20 22
M  V30 22 1 22 23
M  V30 23 1 23 24
M  V30 24 1 24 25
M  V30 25 2 25 26
M  V30 26 1 25 27
M  V30 27 1 27 28
M  V30 28 1 28 29
M  V30 29 2 29 30
M  V30 30 1 30 31
M  V30 31 2 31 32
M  V30 32 1 32 33
M  V30 33 1 32 34
M  V30 34 2 22 35
M  V30 35 1 16 36
M  V30 36 1 36 37
M  V30 37 2 37 38
M  V30 38 1 37 39
M  V30 39 1 39 2
M  V30 40 1 15 7
M  V30 41 1 35 17
M  V30 42 1 14 10
M  V30 43 1 34 29
M  V30 44 1 1 40
M  V30 45 1 1 41
M  V30 46 1 1 42
M  V30 47 1 6 43
M  V30 48 1 8 44
M  V30 49 1 9 45
M  V30 50 1 11 46
M  V30 51 1 13 47
M  V30 52 1 15 48
M  V30 53 1 16 49
M  V30 54 1 18 50
M  V30 55 1 19 51
M  V30 56 1 23 52
M  V30 57 1 23 53
M  V30 58 1 24 54
M  V30 59 1 24 55
M  V30 60 1 27 56
M  V30 61 1 28 57
M  V30 62 1 28 58
M  V30 63 1 31 59
M  V30 64 1 33 60
M  V30 65 1 33 61
M  V30 66 1 33 62
M  V30 67 1 35 63
M  V30 68 1 36 64
M  V30 69 1 39 65
M  V30 END BOND
M  V30 END CTAB
M  END
>  <Dataset>  (107) 
ChEMBL_Kinases

>  <Ligand_Instance>  (107) 
nan

>  <PDB_ID>  (107) 
nan

>  <Standardized_SMILES>  (107) 
CC1=C(C(=O)Nc2ccc3[nH]ncc3c2)C(c2ccc(F)c(CCC(=O)NCc3ncc(C)o3)c2)NC(=O)N1

>  <Name>  (107) 
nan

>  <Pocket>  (107) 
nan

>  <ATP_Site>  (107) 
nan

>  <Peripheral>  (107) 
nan

>  <Num_H_Atoms_ProtBoundConf>  (107) 
nan

>  <Num_Resolved_Atoms>  (107) 
nan

>  <Num_Not_Resolved_Atoms>  (107) 
nan

$$$$
CHEMBL4776060
     RDKit          3D

  0  0  0  0  0  0  0  0  0  0999 V3000
M  V30 BEGIN CTAB
M  V30 COUNTS 34 36 0 0 0
M  V30 BEGIN ATOM
M  V30 1 C -1.810975 -5.765726 4.833595 0
M  V30 2 C -1.784194 -4.802568 4.101608 0
M  V30 3 C -1.739598 -3.647446 3.249890 0
M  V30 4 N -0.630815 -3.349790 2.562716 0
M  V30 5 C -0.496151 -2.293472 1.743826 0
M  V30 6 N 0.727984 -2.075410 1.064852 0
M  V30 7 C 1.050462 -1.027406 0.171875 0
M  V30 8 C 0.220882 -0.001468 -0.214057 0
M  V30 9 C 0.536730 1.018449 -1.083977 0
M  V30 10 C 1.804435 1.020918 -1.626216 0
M  V30 11 C 2.185352 2.104624 -2.569885 0
M  V30 12 C 2.773728 3.242199 -1.784279 0
M  V30 13 N 3.178182 4.345230 -2.587009 0
M  V30 14 O 2.900859 3.229030 -0.531454 0
M  V30 15 C 2.681377 0.017909 -1.277004 0
M  V30 16 C 2.299983 -0.971395 -0.401209 0
M  V30 17 N -1.592651 -1.540392 1.668298 0
M  V30 18 C -2.749838 -1.740350 2.305676 0
M  V30 19 N -3.927062 -1.085840 2.335606 0
M  V30 20 C -4.764543 -1.746922 3.169131 0
M  V30 21 N -4.085479 -2.821956 3.654683 0
M  V30 22 C -2.844990 -2.834797 3.135210 0
M  V30 23 H -1.817421 -6.621611 5.488236 0
M  V30 24 H 1.492447 -2.780282 1.247164 0
M  V30 25 H -0.779572 0.043557 0.180009 0
M  V30 26 H -0.162238 1.791792 -1.343498 0
M  V30 27 H 2.931696 1.688678 -3.268095 0
M  V30 28 H 1.332435 2.474480 -3.177429 0
M  V30 29 H 2.454481 5.096197 -2.794439 0
M  V30 30 H 3.857127 4.902214 -3.153472 0
M  V30 31 H 3.680957 0.006653 -1.695044 0
M  V30 32 H 3.047771 -1.737342 -0.167832 0
M  V30 33 H -4.174091 -0.199998 1.802302 0
M  V30 34 H -5.798876 -1.481245 3.418466 0
M  V30 END ATOM
M  V30 BEGIN BOND
M  V30 1 3 1 2
M  V30 2 1 2 3
M  V30 3 2 3 4
M  V30 4 1 4 5
M  V30 5 1 5 6
M  V30 6 1 6 7
M  V30 7 2 7 8
M  V30 8 1 8 9
M  V30 9 2 9 10
M  V30 10 1 10 11
M  V30 11 1 11 12
M  V30 12 1 12 13
M  V30 13 2 12 14
M  V30 14 1 10 15
M  V30 15 2 15 16
M  V30 16 2 5 17
M  V30 17 1 17 18
M  V30 18 1 18 19
M  V30 19 1 19 20
M  V30 20 2 20 21
M  V30 21 1 21 22
M  V30 22 1 22 3
M  V30 23 1 16 7
M  V30 24 2 22 18
M  V30 25 1 1 23
M  V30 26 1 6 24
M  V30 27 1 8 25
M  V30 28 1 9 26
M  V30 29 1 11 27
M  V30 30 1 11 28
M  V30 31 1 13 29
M  V30 32 1 13 30
M  V30 33 1 15 31
M  V30 34 1 16 32
M  V30 35 1 19 33
M  V30 36 1 20 34
M  V30 END BOND
M  V30 END CTAB
M  END
>  <Dataset>  (108) 
ChEMBL_Kinases

>  <Ligand_Instance>  (108) 
nan

>  <PDB_ID>  (108) 
nan

>  <Standardized_SMILES>  (108) 
C#Cc1nc(Nc2ccc(CC(N)=O)cc2)nc2[nH]cnc12

>  <Name>  (108) 
nan

>  <Pocket>  (108) 
nan

>  <ATP_Site>  (108) 
nan

>  <Peripheral>  (108) 
nan

>  <Num_H_Atoms_ProtBoundConf>  (108) 
nan

>  <Num_Resolved_Atoms>  (108) 
nan

>  <Num_Not_Resolved_Atoms>  (108) 
nan

$$$$
CHEMBL4227350
     RDKit          3D

  0  0  0  0  0  0  0  0  0  0999 V3000
M  V30 BEGIN CTAB
M  V30 COUNTS 75 80 0 0 0
M  V30 BEGIN ATOM
M  V30 1 C 2.368703 0.610243 6.352357 0
M  V30 2 C 1.832166 -0.703010 5.939315 0
M  V30 3 C 1.802636 -0.948688 4.627989 0
M  V30 4 C 2.214215 -0.148713 3.512857 0
M  V30 5 O 2.067110 -0.675567 2.351960 0
M  V30 6 N 2.761420 1.096174 3.175243 0
M  V30 7 C 3.106661 1.716330 1.986850 0
M  V30 8 C 3.056305 1.216424 0.706132 0
M  V30 9 C 3.404407 1.903104 -0.438948 0
M  V30 10 C 3.836622 3.200303 -0.267123 0
M  V30 11 N 4.235090 4.104676 -1.158101 0
M  V30 12 N 4.560333 5.220924 -0.526778 0
M  V30 13 C 4.376422 5.056553 0.792425 0
M  V30 14 C 3.916820 3.777317 0.974689 0
M  V30 15 C 3.549507 3.011551 2.047087 0
M  V30 16 C 1.199697 -2.221095 4.179407 0
M  V30 17 C -0.014688 -2.006532 3.344548 0
M  V30 18 C -0.579237 -0.763490 3.140080 0
M  V30 19 C -1.681093 -0.503404 2.351785 0
M  V30 20 C -2.256746 -1.588832 1.720154 0
M  V30 21 F -3.346811 -1.331843 0.938582 0
M  V30 22 C -1.691647 -2.855411 1.921230 0
M  V30 23 C -2.452617 -3.896429 1.133087 0
M  V30 24 C -1.997740 -3.751908 -0.298731 0
M  V30 25 O -1.123508 -2.851958 -0.306038 0
M  V30 26 N -2.441499 -4.467885 -1.438776 0
M  V30 27 C -1.882217 -4.195573 -2.726352 0
M  V30 28 C -2.043970 -2.770330 -3.198805 0
M  V30 29 C -3.515374 -2.415018 -3.275995 0
M  V30 30 C -3.747989 -1.111957 -3.955491 0
M  V30 31 N -2.812472 -0.686221 -4.910323 0
M  V30 32 C -2.795067 0.677818 -5.249413 0
M  V30 33 C -2.482713 1.770736 -4.316388 0
M  V30 34 C -1.510577 1.414936 -5.440364 0
M  V30 35 C -1.821826 -1.543789 -5.395342 0
M  V30 36 C -1.397882 -2.699357 -4.564800 0
M  V30 37 C -0.600693 -3.081950 2.707871 0
M  V30 38 N 0.996605 -3.120338 5.243645 0
M  V30 39 C 1.001347 -2.901342 6.643580 0
M  V30 40 O 0.650234 -3.747915 7.475945 0
M  V30 41 N 1.456106 -1.600715 6.971058 0
M  V30 42 H 1.721629 1.421991 5.998016 0
M  V30 43 H 3.431508 0.691504 6.071894 0
M  V30 44 H 2.402992 0.656039 7.487095 0
M  V30 45 H 2.912362 1.608136 4.068649 0
M  V30 46 H 2.738869 0.223377 0.515436 0
M  V30 47 H 3.356787 1.483934 -1.420035 0
M  V30 48 H 4.300641 4.010103 -2.178559 0
M  V30 49 H 4.545602 5.770808 1.583583 0
M  V30 50 H 3.640983 3.545045 3.008491 0
M  V30 51 H 1.996051 -2.695650 3.513223 0
M  V30 52 H -0.185646 0.137235 3.620072 0
M  V30 53 H -2.095171 0.491909 2.216609 0
M  V30 54 H -2.217001 -4.912462 1.494782 0
M  V30 55 H -3.523457 -3.707908 1.180808 0
M  V30 56 H -3.181265 -5.156941 -1.160649 0
M  V30 57 H -0.799362 -4.487755 -2.718873 0
M  V30 58 H -2.397298 -4.896803 -3.445471 0
M  V30 59 H -1.562444 -2.104670 -2.466953 0
M  V30 60 H -4.058393 -3.209467 -3.842275 0
M  V30 61 H -3.959169 -2.412185 -2.260542 0
M  V30 62 H -3.800873 -0.324903 -3.153665 0
M  V30 63 H -4.802117 -1.129059 -4.363744 0
M  V30 64 H -3.561713 0.948737 -6.037759 0
M  V30 65 H -3.032039 2.728815 -4.400277 0
M  V30 66 H -2.031618 1.638759 -3.322058 0
M  V30 67 H -1.436764 2.192905 -6.233594 0
M  V30 68 H -0.549039 0.962071 -5.166602 0
M  V30 69 H -2.171819 -1.969041 -6.386407 0
M  V30 70 H -0.919783 -0.932564 -5.698791 0
M  V30 71 H -0.304894 -2.643835 -4.379649 0
M  V30 72 H -1.559412 -3.687123 -5.064367 0
M  V30 73 H -0.260679 -4.091053 2.784900 0
M  V30 74 H 0.808960 -4.112774 4.911738 0
M  V30 75 H 1.513650 -1.306108 7.975714 0
M  V30 END ATOM
M  V30 BEGIN BOND
M  V30 1 1 1 2
M  V30 2 2 2 3
M  V30 3 1 3 4
M  V30 4 2 4 5
M  V30 5 1 4 6
M  V30 6 1 6 7
M  V30 7 2 7 8
M  V30 8 1 8 9
M  V30 9 2 9 10
M  V30 10 1 10 11
M  V30 11 1 11 12
M  V30 12 2 12 13
M  V30 13 1 13 14
M  V30 14 2 14 15
M  V30 15 1 3 16
M  V30 16 1 16 17
M  V30 17 2 17 18
M  V30 18 1 18 19
M  V30 19 2 19 20
M  V30 20 1 20 21
M  V30 21 1 20 22
M  V30 22 1 22 23
M  V30 23 1 23 24
M  V30 24 2 24 25
M  V30 25 1 24 26
M  V30 26 1 26 27
M  V30 27 1 27 28
M  V30 28 1 28 29
M  V30 29 1 29 30
M  V30 30 1 30 31
M  V30 31 1 31 32
M  V30 32 1 32 33
M  V30 33 1 33 34
M  V30 34 1 31 35
M  V30 35 1 35 36
M  V30 36 2 22 37
M  V30 37 1 16 38
M  V30 38 1 38 39
M  V30 39 2 39 40
M  V30 40 1 39 41
M  V30 41 1 41 2
M  V30 42 1 15 7
M  V30 43 1 37 17
M  V30 44 1 14 10
M  V30 45 1 36 28
M  V30 46 1 34 32
M  V30 47 1 1 42
M  V30 48 1 1 43
M  V30 49 1 1 44
M  V30 50 1 6 45
M  V30 51 1 8 46
M  V30 52 1 9 47
M  V30 53 1 11 48
M  V30 54 1 13 49
M  V30 55 1 15 50
M  V30 56 1 16 51
M  V30 57 1 18 52
M  V30 58 1 19 53
M  V30 59 1 23 54
M  V30 60 1 23 55
M  V30 61 1 26 56
M  V30 62 1 27 57
M  V30 63 1 27 58
M  V30 64 1 28 59
M  V30 65 1 29 60
M  V30 66 1 29 61
M  V30 67 1 30 62
M  V30 68 1 30 63
M  V30 69 1 32 64
M  V30 70 1 33 65
M  V30 71 1 33 66
M  V30 72 1 34 67
M  V30 73 1 34 68
M  V30 74 1 35 69
M  V30 75 1 35 70
M  V30 76 1 36 71
M  V30 77 1 36 72
M  V30 78 1 37 73
M  V30 79 1 38 74
M  V30 80 1 41 75
M  V30 END BOND
M  V30 END CTAB
M  END
>  <Dataset>  (109) 
ChEMBL_Kinases

>  <Ligand_Instance>  (109) 
nan

>  <PDB_ID>  (109) 
nan

>  <Standardized_SMILES>  (109) 
CC1=C(C(=O)Nc2ccc3[nH]ncc3c2)C(c2ccc(F)c(CC(=O)NCC3CCN(C4CC4)CC3)c2)NC(=O)N1

>  <Name>  (109) 
nan

>  <Pocket>  (109) 
nan

>  <ATP_Site>  (109) 
nan

>  <Peripheral>  (109) 
nan

>  <Num_H_Atoms_ProtBoundConf>  (109) 
nan

>  <Num_Resolved_Atoms>  (109) 
nan

>  <Num_Not_Resolved_Atoms>  (109) 
nan

$$$$
CHEMBL4227342
     RDKit          3D

  0  0  0  0  0  0  0  0  0  0999 V3000
M  V30 BEGIN CTAB
M  V30 COUNTS 150 155 0 0 0
M  V30 BEGIN ATOM
M  V30 1 C 7.346228 -0.141982 4.950852 0
M  V30 2 C 6.561069 0.350471 3.789496 0
M  V30 3 C 6.665820 1.629517 3.291530 0
M  V30 4 N 5.926552 2.010531 2.239861 0
M  V30 5 C 5.072525 1.160475 1.653165 0
M  V30 6 N 4.409536 1.790201 0.562557 0
M  V30 7 C 3.248589 2.631283 0.599631 0
M  V30 8 C 2.711874 3.126522 -0.562588 0
M  V30 9 C 1.610348 3.955503 -0.496580 0
M  V30 10 C 1.013388 4.315424 0.705017 0
M  V30 11 O -0.073819 5.158959 0.542080 0
M  V30 12 C -0.848995 5.668823 1.629530 0
M  V30 13 C -1.875870 6.592335 1.061639 0
M  V30 14 C -2.758476 7.255456 2.067578 0
M  V30 15 O -3.564537 6.407072 2.819768 0
M  V30 16 C -4.468045 5.732043 2.007132 0
M  V30 17 C -5.415887 4.914073 2.877281 0
M  V30 18 C -6.430000 4.214411 2.016018 0
M  V30 19 C -7.416791 3.463057 2.820759 0
M  V30 20 O -7.013377 2.445054 3.622015 0
M  V30 21 C -6.379382 1.410205 2.987581 0
M  V30 22 C -6.155748 0.200346 3.922162 0
M  V30 23 C -5.462558 -0.847462 3.118369 0
M  V30 24 O -5.296323 -2.070989 3.752079 0
M  V30 25 C -4.566913 -2.952819 2.920361 0
M  V30 26 C -3.147473 -2.578454 2.905192 0
M  V30 27 O -2.702385 -1.584123 3.603380 0
M  V30 28 N -1.973943 -2.998940 2.310673 0
M  V30 29 C -0.738165 -3.366319 1.746710 0 CFG=2
M  V30 30 C -0.465355 -2.895828 0.364486 0
M  V30 31 O 0.081593 -3.727018 -0.394030 0
M  V30 32 N -0.776181 -1.602407 -0.108992 0
M  V30 33 C -1.306241 -0.581489 0.791766 0
M  V30 34 C -0.499515 0.708768 0.511001 0 CFG=2
M  V30 35 O -1.372414 1.790851 0.410502 0
M  V30 36 C 0.108183 0.402114 -0.850349 0
M  V30 37 C -0.760147 -0.797956 -1.294609 0 CFG=1
M  V30 38 C -0.319093 -1.406853 -2.533049 0
M  V30 39 O -0.108030 -2.636157 -2.781824 0
M  V30 40 N -0.144239 -0.377394 -3.507822 0
M  V30 41 C 0.279629 -0.632008 -4.891951 0
M  V30 42 C -0.980826 -1.082932 -5.575865 0
M  V30 43 C -1.714093 -0.016109 -6.037891 0
M  V30 44 C -2.901017 -0.226303 -6.691808 0
M  V30 45 C -3.421354 -1.450044 -6.923233 0
M  V30 46 C -4.697576 -1.837211 -7.568931 0
M  V30 47 S -5.111328 -3.585134 -7.990913 0
M  V30 48 C -6.793774 -3.032589 -8.665763 0
M  V30 49 N -6.752388 -1.920585 -8.495624 0
M  V30 50 C -5.837694 -1.129636 -7.979927 0
M  V30 51 C -5.978926 0.336849 -7.816533 0
M  V30 52 C -2.675103 -2.519093 -6.454603 0
M  V30 53 C -1.486341 -2.337078 -5.798833 0
M  V30 54 C -0.233303 -4.740915 2.040024 0
M  V30 55 C 1.089276 -5.023989 1.430647 0
M  V30 56 C -0.124563 -5.004279 3.530215 0
M  V30 57 C -1.196394 -5.815926 1.519433 0
M  V30 58 C 1.581926 3.793564 1.846610 0
M  V30 59 C 2.682846 2.964201 1.799659 0
M  V30 60 N 4.933684 -0.090132 2.097493 0
M  V30 61 C 5.664490 -0.529320 3.165320 0
M  V30 62 N 5.453771 -1.878887 3.633199 0
M  V30 63 C 4.619929 -2.934152 3.139955 0
M  V30 64 C 5.177580 -3.734630 1.999125 0
M  V30 65 C 5.495772 -2.876361 0.838959 0
M  V30 66 N 6.015900 -3.612730 -0.306262 0
M  V30 67 C 7.438963 -3.912235 -0.509289 0
M  V30 68 C 5.108633 -4.072147 -1.273104 0
M  V30 69 O 3.967729 -3.681116 -0.833393 0
M  V30 70 C 5.037358 -4.805552 -2.539905 0
M  V30 71 C 5.824926 -4.196728 -3.707318 0
M  V30 72 C 4.665540 -4.636035 -4.609111 0
M  V30 73 C 3.794392 -4.540124 -3.356505 0
M  V30 74 H 7.822841 -1.086594 4.669193 0
M  V30 75 H 8.080018 0.636799 5.289589 0
M  V30 76 H 6.688304 -0.385192 5.834287 0
M  V30 77 H 7.359184 2.293388 3.788121 0
M  V30 78 H 4.880020 1.570278 -0.341543 0
M  V30 79 H 3.192547 2.831134 -1.489623 0
M  V30 80 H 1.279072 4.277231 -1.487376 0
M  V30 81 H -1.244995 4.852820 2.248539 0
M  V30 82 H -0.147223 6.269686 2.255311 0
M  V30 83 H -2.466669 6.080312 0.252506 0
M  V30 84 H -1.296451 7.423087 0.559052 0
M  V30 85 H -3.394279 8.056883 1.573937 0
M  V30 86 H -2.081702 7.815527 2.771513 0
M  V30 87 H -3.903630 5.095061 1.316218 0
M  V30 88 H -5.049541 6.462159 1.414331 0
M  V30 89 H -4.868306 4.251905 3.548517 0
M  V30 90 H -5.969214 5.657418 3.485291 0
M  V30 91 H -6.970246 5.015510 1.451413 0
M  V30 92 H -5.948350 3.587202 1.228562 0
M  V30 93 H -8.017363 4.239656 3.412174 0
M  V30 94 H -8.214608 3.064069 2.106845 0
M  V30 95 H -5.351670 1.729357 2.669799 0
M  V30 96 H -6.889612 1.057006 2.066613 0
M  V30 97 H -7.126460 -0.115541 4.344256 0
M  V30 98 H -5.530193 0.577075 4.766468 0
M  V30 99 H -4.501320 -0.502377 2.719998 0
M  V30 100 H -6.093905 -1.103076 2.202142 0
M  V30 101 H -4.986232 -2.731969 1.891981 0
M  V30 102 H -4.788194 -4.000194 3.140389 0
M  V30 103 H -2.383540 -3.799137 1.694224 0
M  V30 104 H 0.022620 -2.693790 2.345620 0
M  V30 105 H -2.351937 -0.333942 0.637552 0
M  V30 106 H -1.087647 -0.852963 1.847170 0
M  V30 107 H 0.230281 0.890319 1.296676 0
M  V30 108 H -1.212331 2.495293 1.071423 0
M  V30 109 H -0.034426 1.272615 -1.506300 0
M  V30 110 H 1.149570 0.133500 -0.727959 0
M  V30 111 H -1.764951 -0.323101 -1.467903 0
M  V30 112 H -0.292155 0.655867 -3.395753 0
M  V30 113 H 1.008377 -1.469165 -4.907446 0
M  V30 114 H 0.717181 0.212453 -5.394857 0
M  V30 115 H -1.445465 1.031237 -5.929640 0
M  V30 116 H -3.489853 0.580249 -7.077418 0
M  V30 117 H -7.687114 -3.638506 -9.147620 0
M  V30 118 H -5.749736 0.575313 -6.746347 0
M  V30 119 H -5.334984 0.929425 -8.459820 0
M  V30 120 H -7.057510 0.655741 -7.905252 0
M  V30 121 H -2.925365 -3.567430 -6.547584 0
M  V30 122 H -0.849264 -3.112217 -5.408634 0
M  V30 123 H 1.687180 -4.098050 1.172173 0
M  V30 124 H 1.062137 -5.628883 0.526157 0
M  V30 125 H 1.785820 -5.552449 2.155476 0
M  V30 126 H 0.466566 -4.185175 3.988443 0
M  V30 127 H -1.114070 -5.157273 4.012920 0
M  V30 128 H 0.515632 -5.921643 3.631631 0
M  V30 129 H -2.008931 -6.037525 2.214213 0
M  V30 130 H -1.560099 -5.530404 0.488294 0
M  V30 131 H -0.641265 -6.775639 1.328992 0
M  V30 132 H 1.063902 4.115416 2.751467 0
M  V30 133 H 3.059204 2.607120 2.759753 0
M  V30 134 H 6.022034 -2.112520 4.496412 0
M  V30 135 H 4.306134 -3.586291 3.989448 0
M  V30 136 H 3.645382 -2.429196 2.837011 0
M  V30 137 H 6.057424 -4.275214 2.411169 0
M  V30 138 H 4.389904 -4.467624 1.678793 0
M  V30 139 H 6.337654 -2.161771 1.081696 0
M  V30 140 H 4.633928 -2.312782 0.508280 0
M  V30 141 H 7.524609 -4.836340 -1.133830 0
M  V30 142 H 7.945920 -4.166918 0.436798 0
M  V30 143 H 7.887258 -3.013139 -0.961324 0
M  V30 144 H 5.203768 -5.903435 -2.467597 0
M  V30 145 H 6.727160 -4.773690 -4.000893 0
M  V30 146 H 5.908088 -3.114021 -3.654110 0
M  V30 147 H 4.752904 -5.692800 -4.895711 0
M  V30 148 H 4.406912 -3.917865 -5.386858 0
M  V30 149 H 3.009251 -5.323552 -3.306056 0
M  V30 150 H 3.443711 -3.504605 -3.178214 0
M  V30 END ATOM
M  V30 BEGIN BOND
M  V30 1 1 1 2
M  V30 2 2 2 3
M  V30 3 1 3 4
M  V30 4 2 4 5
M  V30 5 1 5 6
M  V30 6 1 6 7
M  V30 7 2 7 8
M  V30 8 1 8 9
M  V30 9 2 9 10
M  V30 10 1 10 11
M  V30 11 1 11 12
M  V30 12 1 12 13
M  V30 13 1 13 14
M  V30 14 1 14 15
M  V30 15 1 15 16
M  V30 16 1 16 17
M  V30 17 1 17 18
M  V30 18 1 18 19
M  V30 19 1 19 20
M  V30 20 1 20 21
M  V30 21 1 21 22
M  V30 22 1 22 23
M  V30 23 1 23 24
M  V30 24 1 24 25
M  V30 25 1 25 26
M  V30 26 2 26 27
M  V30 27 1 26 28
M  V30 28 1 28 29
M  V30 29 1 29 30
M  V30 30 2 30 31
M  V30 31 1 30 32
M  V30 32 1 32 33
M  V30 33 1 33 34
M  V30 34 1 34 35
M  V30 35 1 34 36
M  V30 36 1 36 37
M  V30 37 1 37 38
M  V30 38 2 38 39
M  V30 39 1 38 40
M  V30 40 1 40 41
M  V30 41 1 41 42
M  V30 42 2 42 43
M  V30 43 1 43 44
M  V30 44 2 44 45
M  V30 45 1 45 46
M  V30 46 1 46 47
M  V30 47 1 47 48
M  V30 48 2 48 49
M  V30 49 1 49 50
M  V30 50 1 50 51
M  V30 51 1 45 52
M  V30 52 2 52 53
M  V30 53 1 29 54
M  V30 54 1 54 55
M  V30 55 1 54 56
M  V30 56 1 54 57
M  V30 57 1 10 58
M  V30 58 2 58 59
M  V30 59 1 5 60
M  V30 60 2 60 61
M  V30 61 1 61 62
M  V30 62 1 62 63
M  V30 63 1 63 64
M  V30 64 1 64 65
M  V30 65 1 65 66
M  V30 66 1 66 67
M  V30 67 1 66 68
M  V30 68 2 68 69
M  V30 69 1 68 70
M  V30 70 1 70 71
M  V30 71 1 71 72
M  V30 72 1 72 73
M  V30 73 1 61 2
M  V30 74 1 73 70
M  V30 75 1 59 7
M  V30 76 1 37 32
M  V30 77 1 53 42
M  V30 78 2 50 46
M  V30 79 1 1 74
M  V30 80 1 1 75
M  V30 81 1 1 76
M  V30 82 1 3 77
M  V30 83 1 6 78
M  V30 84 1 8 79
M  V30 85 1 9 80
M  V30 86 1 12 81
M  V30 87 1 12 82
M  V30 88 1 13 83
M  V30 89 1 13 84
M  V30 90 1 14 85
M  V30 91 1 14 86
M  V30 92 1 16 87
M  V30 93 1 16 88
M  V30 94 1 17 89
M  V30 95 1 17 90
M  V30 96 1 18 91
M  V30 97 1 18 92
M  V30 98 1 19 93
M  V30 99 1 19 94
M  V30 100 1 21 95
M  V30 101 1 21 96
M  V30 102 1 22 97
M  V30 103 1 22 98
M  V30 104 1 23 99
M  V30 105 1 23 100
M  V30 106 1 25 101
M  V30 107 1 25 102
M  V30 108 1 28 103
M  V30 109 1 29 104 CFG=1
M  V30 110 1 33 105
M  V30 111 1 33 106
M  V30 112 1 34 107 CFG=1
M  V30 113 1 35 108
M  V30 114 1 36 109
M  V30 115 1 36 110
M  V30 116 1 37 111 CFG=3
M  V30 117 1 40 112
M  V30 118 1 41 113
M  V30 119 1 41 114
M  V30 120 1 43 115
M  V30 121 1 44 116
M  V30 122 1 48 117
M  V30 123 1 51 118
M  V30 124 1 51 119
M  V30 125 1 51 120
M  V30 126 1 52 121
M  V30 127 1 53 122
M  V30 128 1 55 123
M  V30 129 1 55 124
M  V30 130 1 55 125
M  V30 131 1 56 126
M  V30 132 1 56 127
M  V30 133 1 56 128
M  V30 134 1 57 129
M  V30 135 1 57 130
M  V30 136 1 57 131
M  V30 137 1 58 132
M  V30 138 1 59 133
M  V30 139 1 62 134
M  V30 140 1 63 135
M  V30 141 1 63 136
M  V30 142 1 64 137
M  V30 143 1 64 138
M  V30 144 1 65 139
M  V30 145 1 65 140
M  V30 146 1 67 141
M  V30 147 1 67 142
M  V30 148 1 67 143
M  V30 149 1 70 144
M  V30 150 1 71 145
M  V30 151 1 71 146
M  V30 152 1 72 147
M  V30 153 1 72 148
M  V30 154 1 73 149
M  V30 155 1 73 150
M  V30 END BOND
M  V30 END CTAB
M  END
>  <Dataset>  (110) 
ChEMBL_Kinases

>  <Ligand_Instance>  (110) 
nan

>  <PDB_ID>  (110) 
nan

>  <Standardized_SMILES>  (110) 
Cc1cnc(Nc2ccc(OCCCOCCCCOCCCOCC(=O)N[C@H](C(=O)N3C[C@H](O)C[C@H]3C(=O)NCc3ccc(-c4scnc4C)cc3)C(C)(C)C)cc2)nc1NCCCN(C)C(=O)C1CCC1

>  <Name>  (110) 
nan

>  <Pocket>  (110) 
nan

>  <ATP_Site>  (110) 
nan

>  <Peripheral>  (110) 
nan

>  <Num_H_Atoms_ProtBoundConf>  (110) 
nan

>  <Num_Resolved_Atoms>  (110) 
nan

>  <Num_Not_Resolved_Atoms>  (110) 
nan

$$$$
CHEMBL4227283
     RDKit          3D

  0  0  0  0  0  0  0  0  0  0999 V3000
M  V30 BEGIN CTAB
M  V30 COUNTS 70 74 0 0 0
M  V30 BEGIN ATOM
M  V30 1 C 6.006303 -1.783804 3.391072 0
M  V30 2 C 5.993125 -3.232033 3.752223 0
M  V30 3 C 4.583250 -3.752697 3.867831 0
M  V30 4 O 3.842736 -3.644366 2.737382 0
M  V30 5 C 4.263331 -4.289915 1.611196 0
M  V30 6 C 3.147083 -5.159688 1.020416 0
M  V30 7 C 2.457809 -4.280190 -0.019617 0
M  V30 8 N 3.021772 -2.977938 0.248855 0
M  V30 9 C 2.215215 -1.821507 0.248794 0
M  V30 10 O 1.000237 -2.025856 0.018697 0
M  V30 11 C 2.381138 -0.374627 0.448832 0
M  V30 12 C 1.074278 0.326571 0.376594 0
M  V30 13 C 0.490147 1.084822 -0.612083 0
M  V30 14 C -0.758303 1.614691 -0.392341 0
M  V30 15 C -1.280082 2.442735 -1.552424 0
M  V30 16 N -0.349483 3.524158 -1.702005 0
M  V30 17 C -0.444952 4.933196 -1.586483 0
M  V30 18 O 0.470150 5.742088 -1.717716 0
M  V30 19 N -1.810036 5.267981 -1.287362 0
M  V30 20 C -2.838144 4.300243 -1.140169 0
M  V30 21 C -4.239164 4.677750 -0.834688 0
M  V30 22 C -2.617604 3.006041 -1.260993 0
M  V30 23 C -3.525800 1.872721 -1.156996 0
M  V30 24 O -3.205233 0.632941 -1.306410 0
M  V30 25 N -4.877079 1.601274 -0.901583 0
M  V30 26 C -5.099539 0.204952 -0.955394 0
M  V30 27 C -4.916676 -0.396839 0.304559 0
M  V30 28 C -5.068681 -1.759554 0.557055 0
M  V30 29 C -5.421766 -2.505096 -0.543732 0
M  V30 30 N -5.659245 -3.841872 -0.705664 0
M  V30 31 N -5.976573 -4.113741 -1.973996 0
M  V30 32 C -5.966928 -2.979723 -2.717837 0
M  V30 33 C -5.621632 -2.006894 -1.809245 0
M  V30 34 C -5.452086 -0.649173 -1.976713 0
M  V30 35 C -1.466558 1.429949 0.773688 0
M  V30 36 C -0.875655 0.654717 1.788838 0
M  V30 37 C 0.384995 0.121077 1.562715 0
M  V30 38 F 0.810399 -0.596402 2.637124 0
M  V30 39 C 4.437434 -3.266633 0.488741 0
M  V30 40 H 6.171213 -1.194969 4.337934 0
M  V30 41 H 6.792473 -1.529907 2.660167 0
M  V30 42 H 4.991707 -1.544667 2.987625 0
M  V30 43 H 6.573320 -3.865605 3.053520 0
M  V30 44 H 6.467194 -3.368868 4.753682 0
M  V30 45 H 4.048140 -3.143773 4.658811 0
M  V30 46 H 4.602128 -4.774966 4.308934 0
M  V30 47 H 5.200310 -4.827494 1.725747 0
M  V30 48 H 3.660937 -6.010400 0.544057 0
M  V30 49 H 2.391234 -5.447395 1.757125 0
M  V30 50 H 1.351468 -4.316453 0.072046 0
M  V30 51 H 2.774343 -4.623355 -1.043356 0
M  V30 52 H 3.036510 0.081699 -0.326396 0
M  V30 53 H 2.894893 -0.215438 1.418645 0
M  V30 54 H 1.135161 1.160573 -1.472855 0
M  V30 55 H -1.307740 1.799165 -2.472353 0
M  V30 56 H 0.573224 3.089697 -1.948494 0
M  V30 57 H -2.076469 6.278371 -1.168963 0
M  V30 58 H -4.914708 4.469953 -1.685610 0
M  V30 59 H -4.219462 5.817904 -0.813222 0
M  V30 60 H -4.589346 4.384114 0.157799 0
M  V30 61 H -5.431241 2.460401 -0.728600 0
M  V30 62 H -4.636018 0.158425 1.205014 0
M  V30 63 H -4.924433 -2.192661 1.524931 0
M  V30 64 H -5.580216 -4.496687 0.107179 0
M  V30 65 H -6.174578 -2.831877 -3.768866 0
M  V30 66 H -5.572664 -0.104908 -2.907032 0
M  V30 67 H -2.422157 1.848961 0.959349 0
M  V30 68 H -1.459947 0.522521 2.705275 0
M  V30 69 H 5.035582 -2.406557 0.749902 0
M  V30 70 H 4.782726 -3.789481 -0.414651 0
M  V30 END ATOM
M  V30 BEGIN BOND
M  V30 1 1 1 2
M  V30 2 1 2 3
M  V30 3 1 3 4
M  V30 4 1 4 5
M  V30 5 1 5 6
M  V30 6 1 6 7
M  V30 7 1 7 8
M  V30 8 1 8 9
M  V30 9 2 9 10
M  V30 10 1 9 11
M  V30 11 1 11 12
M  V30 12 2 12 13
M  V30 13 1 13 14
M  V30 14 1 14 15
M  V30 15 1 15 16
M  V30 16 1 16 17
M  V30 17 2 17 18
M  V30 18 1 17 19
M  V30 19 1 19 20
M  V30 20 1 20 21
M  V30 21 2 20 22
M  V30 22 1 22 23
M  V30 23 2 23 24
M  V30 24 1 23 25
M  V30 25 1 25 26
M  V30 26 2 26 27
M  V30 27 1 27 28
M  V30 28 2 28 29
M  V30 29 1 29 30
M  V30 30 1 30 31
M  V30 31 2 31 32
M  V30 32 1 32 33
M  V30 33 2 33 34
M  V30 34 2 14 35
M  V30 35 1 35 36
M  V30 36 2 36 37
M  V30 37 1 37 38
M  V30 38 1 8 39
M  V30 39 1 39 5
M  V30 40 1 37 12
M  V30 41 1 22 15
M  V30 42 1 34 26
M  V30 43 1 33 29
M  V30 44 1 1 40
M  V30 45 1 1 41
M  V30 46 1 1 42
M  V30 47 1 2 43
M  V30 48 1 2 44
M  V30 49 1 3 45
M  V30 50 1 3 46
M  V30 51 1 5 47
M  V30 52 1 6 48
M  V30 53 1 6 49
M  V30 54 1 7 50
M  V30 55 1 7 51
M  V30 56 1 11 52
M  V30 57 1 11 53
M  V30 58 1 13 54
M  V30 59 1 15 55
M  V30 60 1 16 56
M  V30 61 1 19 57
M  V30 62 1 21 58
M  V30 63 1 21 59
M  V30 64 1 21 60
M  V30 65 1 25 61
M  V30 66 1 27 62
M  V30 67 1 28 63
M  V30 68 1 30 64
M  V30 69 1 32 65
M  V30 70 1 34 66
M  V30 71 1 35 67
M  V30 72 1 36 68
M  V30 73 1 39 69
M  V30 74 1 39 70
M  V30 END BOND
M  V30 END CTAB
M  END
>  <Dataset>  (111) 
ChEMBL_Kinases

>  <Ligand_Instance>  (111) 
nan

>  <PDB_ID>  (111) 
nan

>  <Standardized_SMILES>  (111) 
CCCOC1CCN(C(=O)Cc2cc(C3NC(=O)NC(C)=C3C(=O)Nc3ccc4[nH]ncc4c3)ccc2F)C1

>  <Name>  (111) 
nan

>  <Pocket>  (111) 
nan

>  <ATP_Site>  (111) 
nan

>  <Peripheral>  (111) 
nan

>  <Num_H_Atoms_ProtBoundConf>  (111) 
nan

>  <Num_Resolved_Atoms>  (111) 
nan

>  <Num_Not_Resolved_Atoms>  (111) 
nan

$$$$
CHEMBL4227266
     RDKit          3D

  0  0  0  0  0  0  0  0  0  0999 V3000
M  V30 BEGIN CTAB
M  V30 COUNTS 69 72 0 0 0
M  V30 BEGIN ATOM
M  V30 1 C 5.194958 -0.547165 5.953260 0
M  V30 2 C 5.703711 -0.476385 4.534620 0
M  V30 3 N 5.182125 0.671350 3.891474 0
M  V30 4 C 5.638284 1.944578 4.324664 0
M  V30 5 C 4.555066 2.973424 3.994633 0
M  V30 6 N 3.629935 2.470016 3.045388 0
M  V30 7 C 2.508027 3.257365 2.750114 0
M  V30 8 C 1.667245 2.500135 1.755127 0
M  V30 9 C 1.666025 2.847740 0.419781 0
M  V30 10 C 0.888516 2.137336 -0.472345 0
M  V30 11 C 0.114355 1.083923 -0.036777 0
M  V30 12 N -0.750409 0.238752 -0.788180 0
M  V30 13 C -0.488823 -0.973441 -1.473132 0
M  V30 14 O 0.621578 -1.544384 -1.544938 0
M  V30 15 N -1.603432 -1.538257 -2.105905 0
M  V30 16 C -1.494550 -2.770966 -2.849609 0 CFG=2
M  V30 17 C -2.037759 -2.684228 -4.233585 0
M  V30 18 C -2.870006 -3.946734 -4.285597 0
M  V30 19 N -3.580137 -3.857854 -3.023936 0
M  V30 20 C -4.909307 -3.781612 -2.526063 0
M  V30 21 C -5.138983 -3.714827 -1.171049 0
M  V30 22 C -6.453686 -3.645695 -0.762418 0
M  V30 23 N -7.498195 -3.641766 -1.629938 0
M  V30 24 C -7.229054 -3.708989 -2.956891 0
M  V30 25 N -8.362532 -3.702358 -3.813309 0
M  V30 26 C -9.154237 -2.671032 -4.469014 0
M  V30 27 N -5.952706 -3.776730 -3.372012 0
M  V30 28 C -2.349592 -3.873707 -2.261844 0
M  V30 29 C 0.131151 0.749957 1.318456 0
M  V30 30 C 0.902741 1.439863 2.262032 0
M  V30 31 C 0.888132 1.054067 3.697228 0
M  V30 32 F 0.018728 -0.035018 3.853975 0
M  V30 33 F 2.101279 0.619413 4.163609 0
M  V30 34 F 0.369387 2.072980 4.476743 0
M  V30 35 C 4.176040 1.694948 1.984754 0
M  V30 36 C 5.131072 0.623451 2.455872 0
M  V30 37 H 4.219878 -1.084294 6.000285 0
M  V30 38 H 5.957100 -1.078357 6.576668 0
M  V30 39 H 5.013083 0.428096 6.429171 0
M  V30 40 H 6.814842 -0.511340 4.487848 0
M  V30 41 H 5.332181 -1.370320 3.955492 0
M  V30 42 H 6.599065 2.257442 3.841410 0
M  V30 43 H 5.844565 1.933653 5.409760 0
M  V30 44 H 4.992910 3.954938 3.722129 0
M  V30 45 H 3.997931 3.141005 4.958792 0
M  V30 46 H 1.936561 3.528051 3.651946 0
M  V30 47 H 2.865525 4.210493 2.267324 0
M  V30 48 H 2.261956 3.668340 0.043784 0
M  V30 49 H 0.814998 2.325722 -1.532156 0
M  V30 50 H -1.682889 0.702958 -0.743737 0
M  V30 51 H -2.586597 -1.215922 -2.151205 0
M  V30 52 H -0.451405 -3.146608 -2.892233 0
M  V30 53 H -1.265186 -2.655392 -5.020474 0
M  V30 54 H -2.796688 -1.858371 -4.351496 0
M  V30 55 H -2.229264 -4.849444 -4.323473 0
M  V30 56 H -3.555854 -3.879142 -5.154294 0
M  V30 57 H -4.379276 -3.712724 -0.418396 0
M  V30 58 H -6.677738 -3.591488 0.295340 0
M  V30 59 H -8.734788 -4.654145 -4.040807 0
M  V30 60 H -9.229379 -2.914524 -5.531323 0
M  V30 61 H -10.196653 -2.666104 -4.068086 0
M  V30 62 H -8.711229 -1.660750 -4.358575 0
M  V30 63 H -2.522304 -3.559319 -1.196971 0
M  V30 64 H -1.845555 -4.860929 -2.301592 0
M  V30 65 H -0.456262 -0.074910 1.746712 0
M  V30 66 H 4.722476 2.344026 1.274470 0
M  V30 67 H 3.360328 1.194577 1.427858 0
M  V30 68 H 4.815149 -0.395397 2.156322 0
M  V30 69 H 6.166407 0.756252 2.038644 0
M  V30 END ATOM
M  V30 BEGIN BOND
M  V30 1 1 1 2
M  V30 2 1 2 3
M  V30 3 1 3 4
M  V30 4 1 4 5
M  V30 5 1 5 6
M  V30 6 1 6 7
M  V30 7 1 7 8
M  V30 8 2 8 9
M  V30 9 1 9 10
M  V30 10 2 10 11
M  V30 11 1 11 12
M  V30 12 1 12 13
M  V30 13 2 13 14
M  V30 14 1 13 15
M  V30 15 1 15 16
M  V30 16 1 16 17
M  V30 17 1 17 18
M  V30 18 1 18 19
M  V30 19 1 19 20
M  V30 20 2 20 21
M  V30 21 1 21 22
M  V30 22 2 22 23
M  V30 23 1 23 24
M  V30 24 1 24 25
M  V30 25 1 25 26
M  V30 26 2 24 27
M  V30 27 1 19 28
M  V30 28 1 11 29
M  V30 29 2 29 30
M  V30 30 1 30 31
M  V30 31 1 31 32
M  V30 32 1 31 33
M  V30 33 1 31 34
M  V30 34 1 6 35
M  V30 35 1 35 36
M  V30 36 1 36 3
M  V30 37 1 30 8
M  V30 38 1 28 16
M  V30 39 1 27 20
M  V30 40 1 1 37
M  V30 41 1 1 38
M  V30 42 1 1 39
M  V30 43 1 2 40
M  V30 44 1 2 41
M  V30 45 1 4 42
M  V30 46 1 4 43
M  V30 47 1 5 44
M  V30 48 1 5 45
M  V30 49 1 7 46
M  V30 50 1 7 47
M  V30 51 1 9 48
M  V30 52 1 10 49
M  V30 53 1 12 50
M  V30 54 1 15 51
M  V30 55 1 16 52 CFG=3
M  V30 56 1 17 53
M  V30 57 1 17 54
M  V30 58 1 18 55
M  V30 59 1 18 56
M  V30 60 1 21 57
M  V30 61 1 22 58
M  V30 62 1 25 59
M  V30 63 1 26 60
M  V30 64 1 26 61
M  V30 65 1 26 62
M  V30 66 1 28 63
M  V30 67 1 28 64
M  V30 68 1 29 65
M  V30 69 1 35 66
M  V30 70 1 35 67
M  V30 71 1 36 68
M  V30 72 1 36 69
M  V30 END BOND
M  V30 END CTAB
M  END
>  <Dataset>  (112) 
ChEMBL_Kinases

>  <Ligand_Instance>  (112) 
nan

>  <PDB_ID>  (112) 
nan

>  <Standardized_SMILES>  (112) 
CCN1CCN(Cc2ccc(NC(=O)N[C@@H]3CCN(c4ccnc(NC)n4)C3)cc2C(F)(F)F)CC1

>  <Name>  (112) 
nan

>  <Pocket>  (112) 
nan

>  <ATP_Site>  (112) 
nan

>  <Peripheral>  (112) 
nan

>  <Num_H_Atoms_ProtBoundConf>  (112) 
nan

>  <Num_Resolved_Atoms>  (112) 
nan

>  <Num_Not_Resolved_Atoms>  (112) 
nan

$$$$
CHEMBL4226693
     RDKit          3D

  0  0  0  0  0  0  0  0  0  0999 V3000
M  V30 BEGIN CTAB
M  V30 COUNTS 147 152 0 0 0
M  V30 BEGIN ATOM
M  V30 1 C -1.668560 5.299141 0.994738 0
M  V30 2 C -1.160481 5.362608 2.397385 0
M  V30 3 N -1.939287 5.908948 3.312922 0
M  V30 4 C -1.600960 6.007251 4.513975 0
M  V30 5 S 0.096589 5.225496 4.466906 0
M  V30 6 C 0.081044 4.869690 2.737279 0
M  V30 7 C 1.146565 4.237139 2.061766 0
M  V30 8 C 1.290299 3.874504 0.746506 0
M  V30 9 C 2.361851 3.253551 0.153255 0
M  V30 10 C 3.423188 2.951328 0.950431 0
M  V30 11 C 4.573591 2.284384 0.308085 0
M  V30 12 N 4.400502 0.852461 0.218160 0
M  V30 13 C 4.515403 -0.053895 1.272464 0
M  V30 14 O 4.805140 0.499048 2.398674 0
M  V30 15 C 4.432232 -1.485761 1.631397 0 CFG=2
M  V30 16 C 5.746785 -1.917291 2.208957 0
M  V30 17 C 5.965480 -3.308123 1.707104 0 CFG=2
M  V30 18 O 7.083116 -3.413932 0.878257 0
M  V30 19 C 4.706046 -3.673436 0.950576 0
M  V30 20 N 4.153688 -2.391662 0.561737 0
M  V30 21 C 3.499892 -2.374301 -0.698529 0
M  V30 22 O 2.821581 -1.777195 -1.558693 0
M  V30 23 C 3.314023 -3.328678 -1.811368 0 CFG=1
M  V30 24 N 2.150437 -2.844310 -2.582470 0
M  V30 25 C 0.866697 -3.470117 -2.420686 0
M  V30 26 O 1.032331 -4.384675 -1.525469 0
M  V30 27 C -0.546275 -3.650291 -2.709249 0
M  V30 28 O -1.060061 -2.811242 -3.680533 0
M  V30 29 C -0.491428 -3.125368 -4.899591 0
M  V30 30 C -1.057504 -2.391054 -6.069786 0
M  V30 31 C -0.942735 -0.893112 -5.999753 0
M  V30 32 O -1.524693 -0.409212 -7.163904 0
M  V30 33 C -1.543805 0.927416 -7.348360 0
M  V30 34 C -2.329630 1.621229 -6.237472 0
M  V30 35 C -2.346855 3.106568 -6.467930 0
M  V30 36 C -3.097119 3.803234 -5.399711 0
M  V30 37 O -4.447225 3.424016 -5.281841 0
M  V30 38 C -4.976775 4.182828 -4.256496 0
M  V30 39 C -6.411979 3.954991 -3.932669 0
M  V30 40 C -6.756484 2.551767 -3.510282 0
M  V30 41 O -5.990099 2.204501 -2.403490 0
M  V30 42 C -6.133496 0.986882 -1.770404 0
M  V30 43 C -6.941389 -0.111799 -1.933931 0
M  V30 44 C -6.848451 -1.220859 -1.124434 0
M  V30 45 C -5.928007 -1.290564 -0.095551 0
M  V30 46 N -5.863730 -2.452424 0.762372 0
M  V30 47 C -4.504433 -2.698633 1.144945 0
M  V30 48 N -4.217741 -3.872241 0.567894 0
M  V30 49 C -3.019532 -4.478934 0.635167 0
M  V30 50 C -1.991108 -3.903404 1.323612 0
M  V30 51 Br -0.178811 -4.336937 1.694680 0
M  V30 52 C -2.247157 -2.682135 1.937616 0
M  V30 53 N -1.659156 -1.608636 2.680205 0
M  V30 54 C -1.150947 -0.528400 3.408026 0
M  V30 55 C 0.301723 -0.434519 3.675920 0
M  V30 56 C 0.863697 -1.545724 4.508280 0
M  V30 57 N 0.246371 -1.550021 5.844468 0
M  V30 58 C -0.924868 -2.261273 6.281610 0
M  V30 59 C 0.908862 -0.746294 6.792936 0
M  V30 60 O 1.812745 -0.300857 6.056608 0
M  V30 61 C 1.394603 -0.006059 7.960492 0
M  V30 62 C 2.584839 0.855369 7.745260 0
M  V30 63 C 3.140178 0.393634 9.091543 0
M  V30 64 C 2.238842 -0.829508 8.931990 0
M  V30 65 N -3.494919 -2.126232 1.826637 0
M  V30 66 C -5.090423 -0.183581 0.094330 0
M  V30 67 C -5.189220 0.943262 -0.730950 0
M  V30 68 C 4.421601 -3.346063 -2.827641 0
M  V30 69 C 4.005275 -4.395561 -3.873165 0
M  V30 70 C 4.496803 -2.030534 -3.591115 0
M  V30 71 C 5.767686 -3.747581 -2.351877 0
M  V30 72 C 3.390219 3.268053 2.276613 0
M  V30 73 C 2.291176 3.884173 2.793444 0
M  V30 74 H -1.014607 5.847737 0.277021 0
M  V30 75 H -2.673951 5.809436 0.879404 0
M  V30 76 H -1.789806 4.271169 0.616021 0
M  V30 77 H -2.085748 6.406986 5.373371 0
M  V30 78 H 0.464914 4.100045 0.099912 0
M  V30 79 H 2.354365 3.017858 -0.898671 0
M  V30 80 H 5.528969 2.545964 0.828403 0
M  V30 81 H 4.668495 2.649909 -0.735100 0
M  V30 82 H 4.178661 0.292048 -0.612979 0
M  V30 83 H 3.667151 -1.615450 2.460227 0
M  V30 84 H 5.707228 -1.873550 3.323974 0
M  V30 85 H 6.573774 -1.283194 1.818009 0
M  V30 86 H 6.082685 -3.956623 2.612358 0
M  V30 87 H 7.445853 -4.348108 0.980376 0
M  V30 88 H 3.970559 -4.092139 1.729406 0
M  V30 89 H 4.848885 -4.411602 0.185167 0
M  V30 90 H 3.109633 -4.328309 -1.463004 0
M  V30 91 H 1.901979 -2.103492 -3.287000 0
M  V30 92 H -1.141331 -3.511491 -1.752486 0
M  V30 93 H -0.795067 -4.705281 -3.001567 0
M  V30 94 H 0.602785 -3.071854 -4.905047 0
M  V30 95 H -0.784729 -4.218862 -5.068327 0
M  V30 96 H -0.478992 -2.709289 -6.961424 0
M  V30 97 H -2.138791 -2.620342 -6.174099 0
M  V30 98 H 0.160823 -0.680024 -5.981653 0
M  V30 99 H -1.429474 -0.540644 -5.085026 0
M  V30 100 H -0.523414 1.322048 -7.406708 0
M  V30 101 H -2.096881 1.178683 -8.289745 0
M  V30 102 H -1.744308 1.449966 -5.292507 0
M  V30 103 H -3.351453 1.258510 -6.169009 0
M  V30 104 H -1.270565 3.435332 -6.398657 0
M  V30 105 H -2.687565 3.351653 -7.496986 0
M  V30 106 H -3.113393 4.908692 -5.504346 0
M  V30 107 H -2.613715 3.514988 -4.422114 0
M  V30 108 H -4.909461 5.256180 -4.608494 0
M  V30 109 H -4.336906 4.128670 -3.343433 0
M  V30 110 H -7.011420 4.292695 -4.807667 0
M  V30 111 H -6.675891 4.674487 -3.111802 0
M  V30 112 H -6.538147 1.905315 -4.407069 0
M  V30 113 H -7.824837 2.516152 -3.235345 0
M  V30 114 H -7.608816 0.058525 -2.756911 0
M  V30 115 H -7.537151 -2.020810 -1.345895 0
M  V30 116 H -6.650242 -3.025965 1.067453 0
M  V30 117 H -2.618848 -5.400253 0.245692 0
M  V30 118 H -0.751770 -2.118291 2.592783 0
M  V30 119 H -1.715004 -0.447068 4.399932 0
M  V30 120 H -1.464619 0.418006 2.862446 0
M  V30 121 H 0.894244 -0.278434 2.736504 0
M  V30 122 H 0.454032 0.520147 4.261736 0
M  V30 123 H 0.629702 -2.512890 4.002951 0
M  V30 124 H 1.958966 -1.415645 4.607235 0
M  V30 125 H -1.714870 -1.578184 6.651147 0
M  V30 126 H -0.707343 -2.986988 7.096100 0
M  V30 127 H -1.390687 -2.848898 5.450224 0
M  V30 128 H 0.593275 0.508343 8.547573 0
M  V30 129 H 2.431948 1.955373 7.733624 0
M  V30 130 H 3.198573 0.562971 6.887810 0
M  V30 131 H 2.846741 1.100689 9.880343 0
M  V30 132 H 4.190119 0.086464 9.051330 0
M  V30 133 H 1.742643 -1.061666 9.883256 0
M  V30 134 H 2.741572 -1.648996 8.402853 0
M  V30 135 H -4.349170 -0.201672 0.910603 0
M  V30 136 H -4.459691 1.726269 -0.449028 0
M  V30 137 H 3.171699 -3.966273 -4.472521 0
M  V30 138 H 4.855376 -4.615396 -4.540896 0
M  V30 139 H 3.689775 -5.322794 -3.352372 0
M  V30 140 H 4.633399 -1.198829 -2.879458 0
M  V30 141 H 3.663905 -1.871472 -4.283077 0
M  V30 142 H 5.432280 -2.009713 -4.223920 0
M  V30 143 H 6.251853 -3.045669 -1.675233 0
M  V30 144 H 6.422873 -3.802755 -3.272054 0
M  V30 145 H 5.761967 -4.783805 -1.961819 0
M  V30 146 H 4.224178 3.052444 2.933577 0
M  V30 147 H 2.345946 4.102240 3.866709 0
M  V30 END ATOM
M  V30 BEGIN BOND
M  V30 1 1 1 2
M  V30 2 1 2 3
M  V30 3 2 3 4
M  V30 4 1 4 5
M  V30 5 1 5 6
M  V30 6 1 6 7
M  V30 7 2 7 8
M  V30 8 1 8 9
M  V30 9 2 9 10
M  V30 10 1 10 11
M  V30 11 1 11 12
M  V30 12 1 12 13
M  V30 13 2 13 14
M  V30 14 1 13 15
M  V30 15 1 15 16
M  V30 16 1 16 17
M  V30 17 1 17 18
M  V30 18 1 17 19
M  V30 19 1 19 20
M  V30 20 1 20 21
M  V30 21 2 21 22
M  V30 22 1 21 23
M  V30 23 1 23 24
M  V30 24 1 24 25
M  V30 25 2 25 26
M  V30 26 1 25 27
M  V30 27 1 27 28
M  V30 28 1 28 29
M  V30 29 1 29 30
M  V30 30 1 30 31
M  V30 31 1 31 32
M  V30 32 1 32 33
M  V30 33 1 33 34
M  V30 34 1 34 35
M  V30 35 1 35 36
M  V30 36 1 36 37
M  V30 37 1 37 38
M  V30 38 1 38 39
M  V30 39 1 39 40
M  V30 40 1 40 41
M  V30 41 1 41 42
M  V30 42 2 42 43
M  V30 43 1 43 44
M  V30 44 2 44 45
M  V30 45 1 45 46
M  V30 46 1 46 47
M  V30 47 2 47 48
M  V30 48 1 48 49
M  V30 49 2 49 50
M  V30 50 1 50 51
M  V30 51 1 50 52
M  V30 52 1 52 53
M  V30 53 1 53 54
M  V30 54 1 54 55
M  V30 55 1 55 56
M  V30 56 1 56 57
M  V30 57 1 57 58
M  V30 58 1 57 59
M  V30 59 2 59 60
M  V30 60 1 59 61
M  V30 61 1 61 62
M  V30 62 1 62 63
M  V30 63 1 63 64
M  V30 64 2 52 65
M  V30 65 1 45 66
M  V30 66 2 66 67
M  V30 67 1 23 68
M  V30 68 1 68 69
M  V30 69 1 68 70
M  V30 70 1 68 71
M  V30 71 1 10 72
M  V30 72 2 72 73
M  V30 73 2 6 2
M  V30 74 1 73 7
M  V30 75 1 20 15
M  V30 76 1 67 42
M  V30 77 1 65 47
M  V30 78 1 64 61
M  V30 79 1 1 74
M  V30 80 1 1 75
M  V30 81 1 1 76
M  V30 82 1 4 77
M  V30 83 1 8 78
M  V30 84 1 9 79
M  V30 85 1 11 80
M  V30 86 1 11 81
M  V30 87 1 12 82
M  V30 88 1 15 83 CFG=1
M  V30 89 1 16 84
M  V30 90 1 16 85
M  V30 91 1 17 86 CFG=1
M  V30 92 1 18 87
M  V30 93 1 19 88
M  V30 94 1 19 89
M  V30 95 1 23 90 CFG=1
M  V30 96 1 24 91
M  V30 97 1 27 92
M  V30 98 1 27 93
M  V30 99 1 29 94
M  V30 100 1 29 95
M  V30 101 1 30 96
M  V30 102 1 30 97
M  V30 103 1 31 98
M  V30 104 1 31 99
M  V30 105 1 33 100
M  V30 106 1 33 101
M  V30 107 1 34 102
M  V30 108 1 34 103
M  V30 109 1 35 104
M  V30 110 1 35 105
M  V30 111 1 36 106
M  V30 112 1 36 107
M  V30 113 1 38 108
M  V30 114 1 38 109
M  V30 115 1 39 110
M  V30 116 1 39 111
M  V30 117 1 40 112
M  V30 118 1 40 113
M  V30 119 1 43 114
M  V30 120 1 44 115
M  V30 121 1 46 116
M  V30 122 1 49 117
M  V30 123 1 53 118
M  V30 124 1 54 119
M  V30 125 1 54 120
M  V30 126 1 55 121
M  V30 127 1 55 122
M  V30 128 1 56 123
M  V30 129 1 56 124
M  V30 130 1 58 125
M  V30 131 1 58 126
M  V30 132 1 58 127
M  V30 133 1 61 128
M  V30 134 1 62 129
M  V30 135 1 62 130
M  V30 136 1 63 131
M  V30 137 1 63 132
M  V30 138 1 64 133
M  V30 139 1 64 134
M  V30 140 1 66 135
M  V30 141 1 67 136
M  V30 142 1 69 137
M  V30 143 1 69 138
M  V30 144 1 69 139
M  V30 145 1 70 140
M  V30 146 1 70 141
M  V30 147 1 70 142
M  V30 148 1 71 143
M  V30 149 1 71 144
M  V30 150 1 71 145
M  V30 151 1 72 146
M  V30 152 1 73 147
M  V30 END BOND
M  V30 END CTAB
M  END
>  <Dataset>  (113) 
ChEMBL_Kinases

>  <Ligand_Instance>  (113) 
nan

>  <PDB_ID>  (113) 
nan

>  <Standardized_SMILES>  (113) 
Cc1ncsc1-c1ccc(CNC(=O)[C@@H]2C[C@H](O)CN2C(=O)[C@@H](NC(=O)COCCCOCCCCOCCCOc2ccc(Nc3ncc(Br)c(NCCCN(C)C(=O)C4CCC4)n3)cc2)C(C)(C)C)cc1

>  <Name>  (113) 
nan

>  <Pocket>  (113) 
nan

>  <ATP_Site>  (113) 
nan

>  <Peripheral>  (113) 
nan

>  <Num_H_Atoms_ProtBoundConf>  (113) 
nan

>  <Num_Resolved_Atoms>  (113) 
nan

>  <Num_Not_Resolved_Atoms>  (113) 
nan

$$$$
CHEMBL4776173
     RDKit          3D

  0  0  0  0  0  0  0  0  0  0999 V3000
M  V30 BEGIN CTAB
M  V30 COUNTS 49 53 0 0 0
M  V30 BEGIN ATOM
M  V30 1 O -1.023602 -3.654574 1.004640 0
M  V30 2 C -0.469016 -4.412337 -0.024102 0 CFG=1
M  V30 3 C -0.492025 -3.647263 -1.295919 0
M  V30 4 C 0.713775 -2.860100 -1.651215 0
M  V30 5 C 1.696345 -2.559838 -0.573684 0 CFG=1
M  V30 6 O 1.600990 -1.226593 -0.136584 0
M  V30 7 C 2.584998 -0.264175 -0.188118 0
M  V30 8 C 3.871855 -0.365954 -0.667565 0
M  V30 9 C 4.775201 0.670587 -0.668529 0
M  V30 10 C 4.406534 1.902578 -0.166850 0
M  V30 11 C 3.128007 2.017674 0.313725 0
M  V30 12 C 2.730170 3.228749 0.819226 0
M  V30 13 N 1.499819 3.351876 1.285431 0
M  V30 14 C 0.581272 2.370698 1.308465 0
M  V30 15 N -0.711250 2.620981 1.834841 0
M  V30 16 C -1.806048 1.728946 1.946373 0
M  V30 17 C -1.809633 0.412273 1.549146 0
M  V30 18 C -2.875287 -0.453836 1.658353 0
M  V30 19 C -4.040974 0.032218 2.211634 0
M  V30 20 N -5.244397 -0.475516 2.477313 0
M  V30 21 C -6.038434 0.466671 3.039143 0
M  V30 22 N -5.330752 1.605542 3.137215 0
M  V30 23 C -4.093348 1.343190 2.626637 0
M  V30 24 C -2.995749 2.159159 2.491123 0
M  V30 25 N 1.008429 1.206523 0.806946 0
M  V30 26 C 2.229994 0.978247 0.311956 0
M  V30 27 C 1.609988 -3.456948 0.627596 0
M  V30 28 C 0.961788 -4.787494 0.298825 0
M  V30 29 H -0.894871 -4.095101 1.882264 0
M  V30 30 H -1.071898 -5.325377 -0.099796 0
M  V30 31 H -1.407986 -2.987341 -1.231450 0
M  V30 32 H -0.763065 -4.357446 -2.112579 0
M  V30 33 H 1.203648 -3.336134 -2.527569 0
M  V30 34 H 0.370269 -1.867630 -2.063800 0
M  V30 35 H 2.715461 -2.714528 -0.975975 0
M  V30 36 H 4.160977 -1.324294 -1.058622 0
M  V30 37 H 5.769029 0.501978 -1.066063 0
M  V30 38 H 5.146704 2.686289 -0.187510 0
M  V30 39 H 3.391977 4.080124 0.846383 0
M  V30 40 H -0.882709 3.605074 2.192624 0
M  V30 41 H -0.936877 -0.016500 1.115279 0
M  V30 42 H -2.823422 -1.482872 1.328856 0
M  V30 43 H -7.063734 0.278483 3.339461 0
M  V30 44 H -5.691430 2.511483 3.537068 0
M  V30 45 H -3.093764 3.184440 2.835570 0
M  V30 46 H 2.609054 -3.694299 1.074195 0
M  V30 47 H 1.011115 -2.995595 1.436469 0
M  V30 48 H 0.965395 -5.418680 1.188774 0
M  V30 49 H 1.410375 -5.270810 -0.584003 0
M  V30 END ATOM
M  V30 BEGIN BOND
M  V30 1 1 1 2
M  V30 2 1 2 3
M  V30 3 1 3 4
M  V30 4 1 4 5
M  V30 5 1 5 6
M  V30 6 1 6 7
M  V30 7 2 7 8
M  V30 8 1 8 9
M  V30 9 2 9 10
M  V30 10 1 10 11
M  V30 11 2 11 12
M  V30 12 1 12 13
M  V30 13 2 13 14
M  V30 14 1 14 15
M  V30 15 1 15 16
M  V30 16 2 16 17
M  V30 17 1 17 18
M  V30 18 2 18 19
M  V30 19 1 19 20
M  V30 20 2 20 21
M  V30 21 1 21 22
M  V30 22 1 22 23
M  V30 23 2 23 24
M  V30 24 1 14 25
M  V30 25 2 25 26
M  V30 26 1 5 27
M  V30 27 1 27 28
M  V30 28 1 28 2
M  V30 29 1 26 7
M  V30 30 1 26 11
M  V30 31 1 24 16
M  V30 32 1 23 19
M  V30 33 1 1 29
M  V30 34 1 2 30 CFG=3
M  V30 35 1 3 31
M  V30 36 1 3 32
M  V30 37 1 4 33
M  V30 38 1 4 34
M  V30 39 1 5 35 CFG=3
M  V30 40 1 8 36
M  V30 41 1 9 37
M  V30 42 1 10 38
M  V30 43 1 12 39
M  V30 44 1 15 40
M  V30 45 1 17 41
M  V30 46 1 18 42
M  V30 47 1 21 43
M  V30 48 1 22 44
M  V30 49 1 24 45
M  V30 50 1 27 46
M  V30 51 1 27 47
M  V30 52 1 28 48
M  V30 53 1 28 49
M  V30 END BOND
M  V30 END CTAB
M  END
>  <Dataset>  (114) 
ChEMBL_Kinases

>  <Ligand_Instance>  (114) 
nan

>  <PDB_ID>  (114) 
nan

>  <Standardized_SMILES>  (114) 
O[C@H]1CC[C@@H](Oc2cccc3cnc(Nc4ccc5nc[nH]c5c4)nc23)CC1

>  <Name>  (114) 
nan

>  <Pocket>  (114) 
nan

>  <ATP_Site>  (114) 
nan

>  <Peripheral>  (114) 
nan

>  <Num_H_Atoms_ProtBoundConf>  (114) 
nan

>  <Num_Resolved_Atoms>  (114) 
nan

>  <Num_Not_Resolved_Atoms>  (114) 
nan

$$$$
CHEMBL477620
     RDKit          3D

  0  0  0  0  0  0  0  0  0  0999 V3000
M  V30 BEGIN CTAB
M  V30 COUNTS 56 59 0 0 0
M  V30 BEGIN ATOM
M  V30 1 C 4.712968 -4.692564 6.951456 0
M  V30 2 C 4.474624 -3.754948 5.808910 0
M  V30 3 C 3.539974 -2.758025 6.002471 0
M  V30 4 C 3.257796 -1.850133 5.002214 0
M  V30 5 C 3.909651 -1.934166 3.800946 0
M  V30 6 C 3.773770 -1.093111 2.614370 0
M  V30 7 O 4.378025 -1.183274 1.522478 0
M  V30 8 N 2.843578 -0.024797 2.673394 0
M  V30 9 C 2.428690 0.987393 1.765013 0
M  V30 10 C 3.004751 2.242395 1.644334 0
M  V30 11 C 2.508070 3.146881 0.716543 0
M  V30 12 C 1.437347 2.762731 -0.071254 0
M  V30 13 C 0.941237 3.764829 -1.048355 0
M  V30 14 C 0.831225 1.525283 0.012565 0
M  V30 15 C -0.298048 1.137853 -0.828141 0
M  V30 16 C -0.472130 1.310320 -2.170716 0
M  V30 17 C -1.631369 0.865359 -2.784224 0
M  V30 18 C -2.621473 0.244719 -2.050960 0
M  V30 19 C -3.809036 -0.192688 -2.775995 0
M  V30 20 O -3.868011 0.013723 -4.010182 0
M  V30 21 N -4.918346 -0.844947 -2.173328 0
M  V30 22 C -6.046537 -1.241019 -2.964884 0
M  V30 23 C -5.726195 -2.211597 -4.068424 0
M  V30 24 C -6.928535 -2.622119 -4.897931 0
M  V30 25 C -6.237158 -3.608134 -4.017477 0
M  V30 26 C -2.469262 0.058657 -0.692713 0
M  V30 27 C -1.297450 0.508846 -0.074688 0
M  V30 28 C 1.356261 0.641749 0.955641 0
M  V30 29 C 4.855989 -2.948951 3.614372 0
M  V30 30 C 5.143966 -3.866256 4.619072 0
M  V30 31 H 4.987981 -5.710666 6.607055 0
M  V30 32 H 3.808169 -4.830817 7.579176 0
M  V30 33 H 5.562373 -4.320070 7.557015 0
M  V30 34 H 2.986426 -2.632946 6.928721 0
M  V30 35 H 2.547955 -1.035858 5.049480 0
M  V30 36 H 2.235140 0.232604 3.482139 0
M  V30 37 H 3.846648 2.439278 2.318405 0
M  V30 38 H 2.983199 4.115537 0.651521 0
M  V30 39 H -0.162962 3.652262 -1.219879 0
M  V30 40 H 1.034457 4.808218 -0.642783 0
M  V30 41 H 1.525614 3.790419 -1.992806 0
M  V30 42 H 0.355168 1.805177 -2.660736 0
M  V30 43 H -1.712607 1.028268 -3.841522 0
M  V30 44 H -4.894793 -1.028971 -1.146298 0
M  V30 45 H -6.497887 -0.332518 -3.458299 0
M  V30 46 H -6.833447 -1.669552 -2.301190 0
M  V30 47 H -4.821789 -2.012539 -4.677258 0
M  V30 48 H -7.929263 -2.235057 -4.623122 0
M  V30 49 H -6.799780 -2.722208 -6.007822 0
M  V30 50 H -5.645960 -4.380996 -4.557859 0
M  V30 51 H -6.707825 -3.961374 -3.076926 0
M  V30 52 H -3.243142 -0.427300 -0.114934 0
M  V30 53 H -1.257842 0.320913 1.007710 0
M  V30 54 H 0.874397 -0.320187 1.010926 0
M  V30 55 H 5.431927 -3.106166 2.697731 0
M  V30 56 H 5.876977 -4.655327 4.479893 0
M  V30 END ATOM
M  V30 BEGIN BOND
M  V30 1 1 1 2
M  V30 2 2 2 3
M  V30 3 1 3 4
M  V30 4 2 4 5
M  V30 5 1 5 6
M  V30 6 2 6 7
M  V30 7 1 6 8
M  V30 8 1 8 9
M  V30 9 2 9 10
M  V30 10 1 10 11
M  V30 11 2 11 12
M  V30 12 1 12 13
M  V30 13 1 12 14
M  V30 14 1 14 15
M  V30 15 2 15 16
M  V30 16 1 16 17
M  V30 17 2 17 18
M  V30 18 1 18 19
M  V30 19 2 19 20
M  V30 20 1 19 21
M  V30 21 1 21 22
M  V30 22 1 22 23
M  V30 23 1 23 24
M  V30 24 1 24 25
M  V30 25 1 18 26
M  V30 26 2 26 27
M  V30 27 2 14 28
M  V30 28 1 5 29
M  V30 29 2 29 30
M  V30 30 1 30 2
M  V30 31 1 28 9
M  V30 32 1 27 15
M  V30 33 1 25 23
M  V30 34 1 1 31
M  V30 35 1 1 32
M  V30 36 1 1 33
M  V30 37 1 3 34
M  V30 38 1 4 35
M  V30 39 1 8 36
M  V30 40 1 10 37
M  V30 41 1 11 38
M  V30 42 1 13 39
M  V30 43 1 13 40
M  V30 44 1 13 41
M  V30 45 1 16 42
M  V30 46 1 17 43
M  V30 47 1 21 44
M  V30 48 1 22 45
M  V30 49 1 22 46
M  V30 50 1 23 47
M  V30 51 1 24 48
M  V30 52 1 24 49
M  V30 53 1 25 50
M  V30 54 1 25 51
M  V30 55 1 26 52
M  V30 56 1 27 53
M  V30 57 1 28 54
M  V30 58 1 29 55
M  V30 59 1 30 56
M  V30 END BOND
M  V30 END CTAB
M  END
>  <Dataset>  (115) 
ChEMBL_Kinases

>  <Ligand_Instance>  (115) 
nan

>  <PDB_ID>  (115) 
nan

>  <Standardized_SMILES>  (115) 
Cc1ccc(C(=O)Nc2ccc(C)c(-c3ccc(C(=O)NCC4CC4)cc3)c2)cc1

>  <Name>  (115) 
nan

>  <Pocket>  (115) 
nan

>  <ATP_Site>  (115) 
nan

>  <Peripheral>  (115) 
nan

>  <Num_H_Atoms_ProtBoundConf>  (115) 
nan

>  <Num_Resolved_Atoms>  (115) 
nan

>  <Num_Not_Resolved_Atoms>  (115) 
nan

$$$$
CHEMBL4227050
     RDKit          3D

  0  0  0  0  0  0  0  0  0  0999 V3000
M  V30 BEGIN CTAB
M  V30 COUNTS 49 53 0 0 0
M  V30 BEGIN ATOM
M  V30 1 C -0.200260 -1.887095 -3.800259 0
M  V30 2 C 0.701615 -2.094782 -2.647431 0
M  V30 3 C 1.190847 -0.985125 -1.984816 0
M  V30 4 C 2.043696 -1.185661 -0.895083 0
M  V30 5 C 2.509443 0.050798 -0.258230 0
M  V30 6 N 3.237239 0.933869 -0.989959 0
M  V30 7 C 3.533361 1.965055 -0.183251 0
M  V30 8 C 4.247225 3.139771 -0.394349 0
M  V30 9 C 4.338682 3.974245 0.702095 0
M  V30 10 C 3.785652 3.710768 1.927831 0
M  V30 11 N 3.100366 2.539247 2.058608 0
M  V30 12 N 2.999319 1.726420 1.026410 0
M  V30 13 C 2.357654 0.542335 1.004964 0
M  V30 14 C 1.606198 -0.223033 2.000990 0
M  V30 15 C 2.101572 -0.714807 3.192262 0
M  V30 16 C 1.261687 -1.426554 4.038946 0
M  V30 17 N -0.022769 -1.623698 3.680566 0
M  V30 18 C -0.524963 -1.151952 2.522493 0
M  V30 19 N -1.898745 -1.457922 2.315949 0
M  V30 20 C -3.059290 -0.755166 2.667182 0
M  V30 21 O -2.993969 0.328791 3.262010 0
M  V30 22 C -4.380774 -1.279256 2.342767 0
M  V30 23 C -5.474871 -0.522692 2.722526 0
M  V30 24 C -6.802707 -0.892934 2.481616 0
M  V30 25 N -6.976314 -2.067365 1.836718 0
M  V30 26 C -5.918571 -2.810402 1.463252 0
M  V30 27 C -4.617832 -2.468229 1.688088 0
M  V30 28 C 0.272472 -0.432507 1.637581 0
M  V30 29 C 2.424923 -2.435691 -0.443488 0
M  V30 30 C 1.927401 -3.554036 -1.116913 0
M  V30 31 C 1.094126 -3.330228 -2.180800 0
M  V30 32 F 0.607973 -4.430438 -2.838797 0
M  V30 33 H -1.215372 -1.717749 -3.351465 0
M  V30 34 H 0.046525 -0.955163 -4.337327 0
M  V30 35 H -0.218247 -2.783517 -4.442887 0
M  V30 36 H 0.909041 0.000544 -2.316323 0
M  V30 37 H 4.698351 3.375958 -1.358683 0
M  V30 38 H 4.888582 4.894551 0.564738 0
M  V30 39 H 3.902296 4.427300 2.755419 0
M  V30 40 H 3.133089 -0.512753 3.399338 0
M  V30 41 H 1.642130 -1.810076 4.964560 0
M  V30 42 H -1.901436 -2.373642 1.815063 0
M  V30 43 H -5.379151 0.425289 3.241614 0
M  V30 44 H -7.630555 -0.273217 2.794695 0
M  V30 45 H -6.078861 -3.751273 0.945821 0
M  V30 46 H -3.768802 -3.063856 1.388696 0
M  V30 47 H -0.197453 -0.085047 0.728248 0
M  V30 48 H 3.090553 -2.529000 0.409220 0
M  V30 49 H 2.201826 -4.557527 -0.794605 0
M  V30 END ATOM
M  V30 BEGIN BOND
M  V30 1 1 1 2
M  V30 2 2 2 3
M  V30 3 1 3 4
M  V30 4 1 4 5
M  V30 5 1 5 6
M  V30 6 2 6 7
M  V30 7 1 7 8
M  V30 8 2 8 9
M  V30 9 1 9 10
M  V30 10 2 10 11
M  V30 11 1 11 12
M  V30 12 1 12 13
M  V30 13 1 13 14
M  V30 14 2 14 15
M  V30 15 1 15 16
M  V30 16 2 16 17
M  V30 17 1 17 18
M  V30 18 1 18 19
M  V30 19 1 19 20
M  V30 20 2 20 21
M  V30 21 1 20 22
M  V30 22 2 22 23
M  V30 23 1 23 24
M  V30 24 2 24 25
M  V30 25 1 25 26
M  V30 26 2 26 27
M  V30 27 2 18 28
M  V30 28 2 4 29
M  V30 29 1 29 30
M  V30 30 2 30 31
M  V30 31 1 31 32
M  V30 32 1 31 2
M  V30 33 2 13 5
M  V30 34 1 28 14
M  V30 35 1 12 7
M  V30 36 1 27 22
M  V30 37 1 1 33
M  V30 38 1 1 34
M  V30 39 1 1 35
M  V30 40 1 3 36
M  V30 41 1 8 37
M  V30 42 1 9 38
M  V30 43 1 10 39
M  V30 44 1 15 40
M  V30 45 1 16 41
M  V30 46 1 19 42
M  V30 47 1 23 43
M  V30 48 1 24 44
M  V30 49 1 26 45
M  V30 50 1 27 46
M  V30 51 1 28 47
M  V30 52 1 29 48
M  V30 53 1 30 49
M  V30 END BOND
M  V30 END CTAB
M  END
>  <Dataset>  (116) 
ChEMBL_Kinases

>  <Ligand_Instance>  (116) 
nan

>  <PDB_ID>  (116) 
nan

>  <Standardized_SMILES>  (116) 
Cc1cc(-c2nc3cccnn3c2-c2ccnc(NC(=O)c3ccncc3)c2)ccc1F

>  <Name>  (116) 
nan

>  <Pocket>  (116) 
nan

>  <ATP_Site>  (116) 
nan

>  <Peripheral>  (116) 
nan

>  <Num_H_Atoms_ProtBoundConf>  (116) 
nan

>  <Num_Resolved_Atoms>  (116) 
nan

>  <Num_Not_Resolved_Atoms>  (116) 
nan

$$$$
CHEMBL4227028
     RDKit          3D

  0  0  0  0  0  0  0  0  0  0999 V3000
M  V30 BEGIN CTAB
M  V30 COUNTS 51 54 0 0 0
M  V30 BEGIN ATOM
M  V30 1 C 0.950993 2.421264 -4.400328 0
M  V30 2 O 0.932687 1.973206 -3.082212 0
M  V30 3 C 2.023413 1.687814 -2.289081 0
M  V30 4 C 3.249845 1.873208 -2.885603 0
M  V30 5 C 4.380464 1.604253 -2.142395 0
M  V30 6 C 5.697261 1.790798 -2.746351 0
M  V30 7 O 5.734934 2.195212 -3.937139 0
M  V30 8 O 6.859246 1.541881 -2.063271 0
M  V30 9 C 4.216879 1.165298 -0.845059 0
M  V30 10 C 2.963677 0.995300 -0.292668 0
M  V30 11 C 1.812060 1.254161 -1.005352 0
M  V30 12 C 0.547029 1.045003 -0.337706 0
M  V30 13 C -0.728296 1.221335 -0.803517 0
M  V30 14 N -1.858037 1.003795 -0.117130 0
M  V30 15 C -1.768811 0.572108 1.148599 0
M  V30 16 C -0.519133 0.373307 1.681582 0
M  V30 17 N -0.322389 -0.083027 3.015858 0
M  V30 18 N 0.399185 0.485431 3.975515 0
M  V30 19 C 0.344140 -0.241313 5.102416 0
M  V30 20 C -0.461400 -1.305199 4.784919 0
M  V30 21 C -0.878833 -2.380405 5.540604 0
M  V30 22 C -1.701749 -3.332335 4.979518 0
M  V30 23 C -2.160418 -3.288517 3.657964 0
M  V30 24 N -3.004968 -4.276054 3.100487 0
M  V30 25 C -3.491010 -4.260441 1.755321 0
M  V30 26 C -4.318738 -3.010835 1.475542 0
M  V30 27 C -2.320590 -4.307530 0.810219 0
M  V30 28 C -1.707712 -2.200610 2.975682 0
M  V30 29 C -0.887132 -1.215762 3.472644 0
M  V30 30 N 0.572159 0.611916 0.934830 0
M  V30 31 H 1.240425 3.491334 -4.457879 0
M  V30 32 H 1.641473 1.800462 -5.015089 0
M  V30 33 H -0.066431 2.226270 -4.823072 0
M  V30 34 H 3.349137 2.216429 -3.898792 0
M  V30 35 H 7.796788 1.713567 -2.453301 0
M  V30 36 H 5.100794 0.955016 -0.263972 0
M  V30 37 H 2.954060 0.641660 0.747443 0
M  V30 38 H -0.846944 1.566321 -1.812967 0
M  V30 39 H -2.629416 0.379132 1.751629 0
M  V30 40 H 0.842296 -0.011545 6.050658 0
M  V30 41 H -0.553227 -2.460992 6.565733 0
M  V30 42 H -2.010661 -4.171911 5.615824 0
M  V30 43 H -3.268868 -5.057580 3.755901 0
M  V30 44 H -4.137748 -5.170362 1.598479 0
M  V30 45 H -5.369951 -3.315759 1.279674 0
M  V30 46 H -4.319027 -2.352858 2.362801 0
M  V30 47 H -3.928548 -2.429273 0.610648 0
M  V30 48 H -2.347231 -5.259024 0.239635 0
M  V30 49 H -1.365539 -4.281087 1.373701 0
M  V30 50 H -2.407404 -3.481039 0.084439 0
M  V30 51 H -1.981032 -2.038733 1.949279 0
M  V30 END ATOM
M  V30 BEGIN BOND
M  V30 1 1 1 2
M  V30 2 1 2 3
M  V30 3 2 3 4
M  V30 4 1 4 5
M  V30 5 1 5 6
M  V30 6 2 6 7
M  V30 7 1 6 8
M  V30 8 2 5 9
M  V30 9 1 9 10
M  V30 10 2 10 11
M  V30 11 1 11 12
M  V30 12 2 12 13
M  V30 13 1 13 14
M  V30 14 2 14 15
M  V30 15 1 15 16
M  V30 16 1 16 17
M  V30 17 1 17 18
M  V30 18 2 18 19
M  V30 19 1 19 20
M  V30 20 2 20 21
M  V30 21 1 21 22
M  V30 22 2 22 23
M  V30 23 1 23 24
M  V30 24 1 24 25
M  V30 25 1 25 26
M  V30 26 1 25 27
M  V30 27 1 23 28
M  V30 28 2 28 29
M  V30 29 2 16 30
M  V30 30 1 11 3
M  V30 31 1 30 12
M  V30 32 1 29 17
M  V30 33 1 29 20
M  V30 34 1 1 31
M  V30 35 1 1 32
M  V30 36 1 1 33
M  V30 37 1 4 34
M  V30 38 1 8 35
M  V30 39 1 9 36
M  V30 40 1 10 37
M  V30 41 1 13 38
M  V30 42 1 15 39
M  V30 43 1 19 40
M  V30 44 1 21 41
M  V30 45 1 22 42
M  V30 46 1 24 43
M  V30 47 1 25 44
M  V30 48 1 26 45
M  V30 49 1 26 46
M  V30 50 1 26 47
M  V30 51 1 27 48
M  V30 52 1 27 49
M  V30 53 1 27 50
M  V30 54 1 28 51
M  V30 END BOND
M  V30 END CTAB
M  END
>  <Dataset>  (117) 
ChEMBL_Kinases

>  <Ligand_Instance>  (117) 
nan

>  <PDB_ID>  (117) 
nan

>  <Standardized_SMILES>  (117) 
COc1cc(C(=O)O)ccc1-c1cncc(-n2ncc3ccc(NC(C)C)cc32)n1

>  <Name>  (117) 
nan

>  <Pocket>  (117) 
nan

>  <ATP_Site>  (117) 
nan

>  <Peripheral>  (117) 
nan

>  <Num_H_Atoms_ProtBoundConf>  (117) 
nan

>  <Num_Resolved_Atoms>  (117) 
nan

>  <Num_Not_Resolved_Atoms>  (117) 
nan

$$$$
CHEMBL4226991
     RDKit          3D

  0  0  0  0  0  0  0  0  0  0999 V3000
M  V30 BEGIN CTAB
M  V30 COUNTS 46 48 0 0 0
M  V30 BEGIN ATOM
M  V30 1 C -1.953175 -4.596760 -2.041491 0
M  V30 2 O -1.912096 -4.123853 -0.679892 0
M  V30 3 C -0.854251 -3.392453 -0.195356 0
M  V30 4 N 0.252816 -3.032760 -0.845206 0
M  V30 5 C 1.197340 -2.311771 -0.200530 0
M  V30 6 N 2.448629 -1.735272 -0.578335 0
M  V30 7 C 2.398661 -0.301321 -0.659181 0
M  V30 8 C 1.165857 0.331824 -0.544783 0
M  V30 9 C 1.186486 1.737797 -0.580469 0
M  V30 10 C 2.360636 2.458547 -0.721082 0
M  V30 11 C 2.069501 3.882917 -0.706988 0
M  V30 12 O 1.429344 4.273368 -1.708716 0
M  V30 13 N 2.565652 4.577649 0.448620 0
M  V30 14 C 3.334187 4.011325 1.561004 0
M  V30 15 C 2.158369 5.989594 0.399166 0
M  V30 16 C 3.547591 1.783956 -0.830223 0
M  V30 17 C 3.571836 0.405796 -0.799679 0
M  V30 18 N 0.994511 -1.975887 1.084245 0
M  V30 19 C -0.085284 -2.292600 1.815697 0
M  V30 20 C -1.047097 -3.037714 1.120774 0
M  V30 21 C -2.223428 -3.335386 1.933448 0
M  V30 22 C -3.427328 -3.170702 1.213208 0
M  V30 23 S -4.691608 -3.551566 2.432021 0
M  V30 24 C -3.533865 -3.886118 3.753258 0
M  V30 25 C -3.829173 -4.277557 5.149051 0
M  V30 26 O -3.063924 -4.522012 6.116501 0
M  V30 27 O -5.202801 -4.382059 5.391722 0
M  V30 28 C -2.315727 -3.708393 3.252672 0
M  V30 29 H -2.814332 -4.059939 -2.518169 0
M  V30 30 H -2.084129 -5.696138 -2.071881 0
M  V30 31 H -0.998887 -4.329525 -2.537983 0
M  V30 32 H 3.212857 -2.410782 -0.746363 0
M  V30 33 H 0.221364 -0.209037 -0.435673 0
M  V30 34 H 0.175350 2.154453 -0.485365 0
M  V30 35 H 4.200864 3.439351 1.216189 0
M  V30 36 H 3.730408 4.891704 2.111431 0
M  V30 37 H 2.721025 3.425241 2.256918 0
M  V30 38 H 1.030671 6.013901 0.502554 0
M  V30 39 H 2.380821 6.403594 -0.579831 0
M  V30 40 H 2.570347 6.565771 1.249022 0
M  V30 41 H 4.403591 2.434205 -0.933233 0
M  V30 42 H 4.493534 -0.108116 -0.882853 0
M  V30 43 H -0.219507 -1.995204 2.871001 0
M  V30 44 H -3.675938 -2.896395 0.213405 0
M  V30 45 H -5.609645 -4.653164 6.275206 0
M  V30 46 H -1.391757 -3.834979 3.804067 0
M  V30 END ATOM
M  V30 BEGIN BOND
M  V30 1 1 1 2
M  V30 2 1 2 3
M  V30 3 2 3 4
M  V30 4 1 4 5
M  V30 5 1 5 6
M  V30 6 1 6 7
M  V30 7 2 7 8
M  V30 8 1 8 9
M  V30 9 2 9 10
M  V30 10 1 10 11
M  V30 11 2 11 12
M  V30 12 1 11 13
M  V30 13 1 13 14
M  V30 14 1 13 15
M  V30 15 1 10 16
M  V30 16 2 16 17
M  V30 17 2 5 18
M  V30 18 1 18 19
M  V30 19 2 19 20
M  V30 20 1 20 21
M  V30 21 2 21 22
M  V30 22 1 22 23
M  V30 23 1 23 24
M  V30 24 1 24 25
M  V30 25 2 25 26
M  V30 26 1 25 27
M  V30 27 2 24 28
M  V30 28 1 20 3
M  V30 29 1 28 21
M  V30 30 1 17 7
M  V30 31 1 1 29
M  V30 32 1 1 30
M  V30 33 1 1 31
M  V30 34 1 6 32
M  V30 35 1 8 33
M  V30 36 1 9 34
M  V30 37 1 14 35
M  V30 38 1 14 36
M  V30 39 1 14 37
M  V30 40 1 15 38
M  V30 41 1 15 39
M  V30 42 1 15 40
M  V30 43 1 16 41
M  V30 44 1 17 42
M  V30 45 1 19 43
M  V30 46 1 22 44
M  V30 47 1 27 45
M  V30 48 1 28 46
M  V30 END BOND
M  V30 END CTAB
M  END
>  <Dataset>  (118) 
ChEMBL_Kinases

>  <Ligand_Instance>  (118) 
nan

>  <PDB_ID>  (118) 
nan

>  <Standardized_SMILES>  (118) 
COc1nc(Nc2ccc(C(=O)N(C)C)cc2)ncc1-c1csc(C(=O)O)c1

>  <Name>  (118) 
nan

>  <Pocket>  (118) 
nan

>  <ATP_Site>  (118) 
nan

>  <Peripheral>  (118) 
nan

>  <Num_H_Atoms_ProtBoundConf>  (118) 
nan

>  <Num_Resolved_Atoms>  (118) 
nan

>  <Num_Not_Resolved_Atoms>  (118) 
nan

$$$$
CHEMBL4226969
     RDKit          3D

  0  0  0  0  0  0  0  0  0  0999 V3000
M  V30 BEGIN CTAB
M  V30 COUNTS 48 52 0 0 0
M  V30 BEGIN ATOM
M  V30 1 C 0.105568 -3.413496 2.591978 0
M  V30 2 O 1.020995 -4.356165 2.064664 0
M  V30 3 C 2.250934 -3.865974 1.643676 0
M  V30 4 C 3.230037 -4.681163 1.110944 0
M  V30 5 C 4.465132 -4.242085 0.679381 0
M  V30 6 C 4.764245 -2.888086 0.779297 0
M  V30 7 C 3.772940 -2.060226 1.319139 0
M  V30 8 C 4.065616 -0.600388 1.436787 0
M  V30 9 C 3.619478 0.101362 0.183441 0
M  V30 10 C 2.389873 0.643685 -0.008292 0
M  V30 11 C 2.182758 1.223316 -1.194787 0
M  V30 12 N 0.961305 1.878074 -1.661392 0
M  V30 13 C -0.155091 1.933373 -0.780757 0
M  V30 14 N -0.313678 2.996463 0.038484 0
M  V30 15 C -1.376457 3.070273 0.893069 0
M  V30 16 C -1.572689 4.229841 1.803694 0
M  V30 17 C -2.247826 2.003722 0.852859 0
M  V30 18 N -2.157920 0.918464 0.071222 0
M  V30 19 C -2.925457 -0.167478 -0.059266 0
M  V30 20 C -4.145324 -0.567615 0.604524 0
M  V30 21 C -4.996711 -0.090305 1.563333 0
M  V30 22 N -6.015597 -0.940279 1.781234 0
M  V30 23 N -5.884141 -1.999512 0.988479 0
M  V30 24 C -4.765990 -1.780209 0.282846 0
M  V30 25 C -2.250700 -0.877600 -1.036997 0
M  V30 26 N -1.156430 -0.213753 -1.431431 0
M  V30 27 C -1.086482 0.919942 -0.740515 0
M  V30 28 S 3.598043 1.094331 -2.144282 0
M  V30 29 N 4.545054 0.172876 -0.806081 0
M  V30 30 N 2.590645 -2.558776 1.719390 0
M  V30 31 H -0.769628 -3.270595 1.920881 0
M  V30 32 H 0.547161 -2.415094 2.718481 0
M  V30 33 H -0.218364 -3.790623 3.582924 0
M  V30 34 H 2.969957 -5.747605 1.042330 0
M  V30 35 H 5.196166 -4.932223 0.268106 0
M  V30 36 H 5.695978 -2.471876 0.467675 0
M  V30 37 H 3.431790 -0.235073 2.298909 0
M  V30 38 H 5.115635 -0.384960 1.696375 0
M  V30 39 H 1.615253 0.615819 0.744496 0
M  V30 40 H 0.908875 2.287130 -2.597220 0
M  V30 41 H -1.141871 5.165517 1.370087 0
M  V30 42 H -2.637960 4.321496 2.016089 0
M  V30 43 H -1.029488 4.056624 2.765139 0
M  V30 44 H -3.069953 2.093993 1.535787 0
M  V30 45 H -4.857461 0.841671 2.066993 0
M  V30 46 H -6.549984 -2.798667 0.971364 0
M  V30 47 H -4.470788 -2.537339 -0.436354 0
M  V30 48 H -2.503423 -1.848017 -1.481977 0
M  V30 END ATOM
M  V30 BEGIN BOND
M  V30 1 1 1 2
M  V30 2 1 2 3
M  V30 3 2 3 4
M  V30 4 1 4 5
M  V30 5 2 5 6
M  V30 6 1 6 7
M  V30 7 1 7 8
M  V30 8 1 8 9
M  V30 9 1 9 10
M  V30 10 2 10 11
M  V30 11 1 11 12
M  V30 12 1 12 13
M  V30 13 2 13 14
M  V30 14 1 14 15
M  V30 15 1 15 16
M  V30 16 2 15 17
M  V30 17 1 17 18
M  V30 18 1 18 19
M  V30 19 1 19 20
M  V30 20 1 20 21
M  V30 21 2 21 22
M  V30 22 1 22 23
M  V30 23 1 23 24
M  V30 24 2 19 25
M  V30 25 1 25 26
M  V30 26 2 26 27
M  V30 27 1 11 28
M  V30 28 1 28 29
M  V30 29 2 7 30
M  V30 30 1 30 3
M  V30 31 2 29 9
M  V30 32 1 27 13
M  V30 33 1 27 18
M  V30 34 2 24 20
M  V30 35 1 1 31
M  V30 36 1 1 32
M  V30 37 1 1 33
M  V30 38 1 4 34
M  V30 39 1 5 35
M  V30 40 1 6 36
M  V30 41 1 8 37
M  V30 42 1 8 38
M  V30 43 1 10 39
M  V30 44 1 12 40
M  V30 45 1 16 41
M  V30 46 1 16 42
M  V30 47 1 16 43
M  V30 48 1 17 44
M  V30 49 1 21 45
M  V30 50 1 23 46
M  V30 51 1 24 47
M  V30 52 1 25 48
M  V30 END BOND
M  V30 END CTAB
M  END
>  <Dataset>  (119) 
ChEMBL_Kinases

>  <Ligand_Instance>  (119) 
nan

>  <PDB_ID>  (119) 
nan

>  <Standardized_SMILES>  (119) 
COc1cccc(Cc2cc(Nc3nc(C)cn4c(-c5cn[nH]c5)cnc34)sn2)n1

>  <Name>  (119) 
nan

>  <Pocket>  (119) 
nan

>  <ATP_Site>  (119) 
nan

>  <Peripheral>  (119) 
nan

>  <Num_H_Atoms_ProtBoundConf>  (119) 
nan

>  <Num_Resolved_Atoms>  (119) 
nan

>  <Num_Not_Resolved_Atoms>  (119) 
nan

$$$$
CHEMBL4226886
     RDKit          3D

  0  0  0  0  0  0  0  0  0  0999 V3000
M  V30 BEGIN CTAB
M  V30 COUNTS 66 70 0 0 0
M  V30 BEGIN ATOM
M  V30 1 C 5.247351 -2.844245 1.952491 0
M  V30 2 C 3.818167 -3.084650 2.061912 0
M  V30 3 C 3.013021 -2.029869 2.094793 0
M  V30 4 C 3.317852 -0.622047 2.041129 0
M  V30 5 O 2.520125 0.348653 2.086372 0
M  V30 6 N 4.462262 0.253302 1.929928 0
M  V30 7 C 3.857836 1.535400 1.963168 0
M  V30 8 C 3.729880 2.219487 3.186525 0
M  V30 9 C 3.155706 3.480377 3.364546 0
M  V30 10 C 2.719907 3.981532 2.168293 0
M  V30 11 N 2.109657 5.206133 2.043767 0
M  V30 12 N 1.816786 5.381976 0.775421 0
M  V30 13 C 2.192220 4.347125 0.028485 0
M  V30 14 C 2.766703 3.453874 0.906789 0
M  V30 15 C 3.353019 2.223760 0.885877 0
M  V30 16 C 1.488336 -2.194531 2.098644 0
M  V30 17 C 1.006513 -1.725145 0.759228 0
M  V30 18 C 1.651619 -2.417358 -0.245007 0
M  V30 19 C 1.387470 -2.150016 -1.562751 0
M  V30 20 C 0.447329 -1.153726 -1.856187 0
M  V30 21 F 0.216184 -0.913919 -3.164587 0
M  V30 22 C -0.134251 -0.528632 -0.787970 0
M  V30 23 C -1.105940 0.505084 -1.310844 0
M  V30 24 C -2.336111 -0.092952 -1.838723 0
M  V30 25 O -1.697495 -1.044453 -1.252769 0
M  V30 26 N -3.514573 -0.628460 -2.353715 0
M  V30 27 C -4.410708 0.243499 -3.134150 0
M  V30 28 C -4.070358 -1.933864 -2.243568 0
M  V30 29 C -4.992809 -2.015083 -1.053717 0
M  V30 30 N -6.312131 -1.689131 -1.258923 0
M  V30 31 C -6.947710 -1.836989 -0.069407 0
M  V30 32 C -8.395730 -1.556163 0.023805 0
M  V30 33 C -5.982607 -2.237185 0.765203 0
M  V30 34 N -4.756242 -2.375482 0.257890 0
M  V30 35 C 0.052243 -0.716974 0.555642 0
M  V30 36 N 1.196785 -3.582126 2.321616 0
M  V30 37 C 1.968672 -4.808522 2.293364 0
M  V30 38 O 1.347600 -5.842889 2.390699 0
M  V30 39 N 3.327515 -4.402744 2.155599 0
M  V30 40 H 5.553027 -2.422758 0.967343 0
M  V30 41 H 5.767890 -3.854917 1.955589 0
M  V30 42 H 5.672461 -2.344399 2.831065 0
M  V30 43 H 5.313443 -0.317133 1.862448 0
M  V30 44 H 4.123080 1.701989 4.077230 0
M  V30 45 H 3.117327 3.897130 4.351846 0
M  V30 46 H 1.882444 5.921444 2.767321 0
M  V30 47 H 2.152038 4.067369 -1.014610 0
M  V30 48 H 3.435894 1.715724 -0.081655 0
M  V30 49 H 1.111210 -1.590422 2.911467 0
M  V30 50 H 2.390702 -3.196449 -0.122089 0
M  V30 51 H 1.866662 -2.671008 -2.380918 0
M  V30 52 H -0.620729 1.151677 -2.086778 0
M  V30 53 H -1.334811 1.205012 -0.465809 0
M  V30 54 H -3.921428 1.234923 -3.304167 0
M  V30 55 H -4.657870 -0.283705 -4.080677 0
M  V30 56 H -5.343392 0.316351 -2.545730 0
M  V30 57 H -4.623111 -2.275325 -3.124077 0
M  V30 58 H -3.276497 -2.730343 -2.090838 0
M  V30 59 H -8.645650 -0.491187 0.022027 0
M  V30 60 H -8.887220 -2.083487 -0.847670 0
M  V30 61 H -8.782617 -2.102496 0.926031 0
M  V30 62 H -6.165654 -2.446487 1.815169 0
M  V30 63 H -3.816665 -2.644597 0.569539 0
M  V30 64 H -0.410683 -0.217626 1.354719 0
M  V30 65 H 0.156129 -3.648238 2.549447 0
M  V30 66 H 3.986712 -5.218386 2.122143 0
M  V30 END ATOM
M  V30 BEGIN BOND
M  V30 1 1 1 2
M  V30 2 2 2 3
M  V30 3 1 3 4
M  V30 4 2 4 5
M  V30 5 1 4 6
M  V30 6 1 6 7
M  V30 7 2 7 8
M  V30 8 1 8 9
M  V30 9 2 9 10
M  V30 10 1 10 11
M  V30 11 1 11 12
M  V30 12 2 12 13
M  V30 13 1 13 14
M  V30 14 2 14 15
M  V30 15 1 3 16
M  V30 16 1 16 17
M  V30 17 2 17 18
M  V30 18 1 18 19
M  V30 19 2 19 20
M  V30 20 1 20 21
M  V30 21 1 20 22
M  V30 22 1 22 23
M  V30 23 1 23 24
M  V30 24 2 24 25
M  V30 25 1 24 26
M  V30 26 1 26 27
M  V30 27 1 26 28
M  V30 28 1 28 29
M  V30 29 2 29 30
M  V30 30 1 30 31
M  V30 31 1 31 32
M  V30 32 2 31 33
M  V30 33 1 33 34
M  V30 34 2 22 35
M  V30 35 1 16 36
M  V30 36 1 36 37
M  V30 37 2 37 38
M  V30 38 1 37 39
M  V30 39 1 39 2
M  V30 40 1 15 7
M  V30 41 1 35 17
M  V30 42 1 14 10
M  V30 43 1 34 29
M  V30 44 1 1 40
M  V30 45 1 1 41
M  V30 46 1 1 42
M  V30 47 1 6 43
M  V30 48 1 8 44
M  V30 49 1 9 45
M  V30 50 1 11 46
M  V30 51 1 13 47
M  V30 52 1 15 48
M  V30 53 1 16 49
M  V30 54 1 18 50
M  V30 55 1 19 51
M  V30 56 1 23 52
M  V30 57 1 23 53
M  V30 58 1 27 54
M  V30 59 1 27 55
M  V30 60 1 27 56
M  V30 61 1 28 57
M  V30 62 1 28 58
M  V30 63 1 32 59
M  V30 64 1 32 60
M  V30 65 1 32 61
M  V30 66 1 33 62
M  V30 67 1 34 63
M  V30 68 1 35 64
M  V30 69 1 36 65
M  V30 70 1 39 66
M  V30 END BOND
M  V30 END CTAB
M  END
>  <Dataset>  (120) 
ChEMBL_Kinases

>  <Ligand_Instance>  (120) 
nan

>  <PDB_ID>  (120) 
nan

>  <Standardized_SMILES>  (120) 
CC1=C(C(=O)Nc2ccc3[nH]ncc3c2)C(c2ccc(F)c(CC(=O)N(C)Cc3nc(C)c[nH]3)c2)NC(=O)N1

>  <Name>  (120) 
nan

>  <Pocket>  (120) 
nan

>  <ATP_Site>  (120) 
nan

>  <Peripheral>  (120) 
nan

>  <Num_H_Atoms_ProtBoundConf>  (120) 
nan

>  <Num_Resolved_Atoms>  (120) 
nan

>  <Num_Not_Resolved_Atoms>  (120) 
nan

$$$$
CHEMBL4226837
     RDKit          3D

  0  0  0  0  0  0  0  0  0  0999 V3000
M  V30 BEGIN CTAB
M  V30 COUNTS 153 158 0 0 0
M  V30 BEGIN ATOM
M  V30 1 C 6.274610 -0.380579 0.530798 0
M  V30 2 C 6.801062 -0.076173 -0.851819 0
M  V30 3 C 5.649327 -0.056647 -1.787634 0
M  V30 4 C 5.401275 -1.089395 -2.660568 0
M  V30 5 N 4.346106 -0.998170 -3.474503 0
M  V30 6 C 3.494753 0.029201 -3.514093 0
M  V30 7 N 2.359724 0.156002 -4.359378 0
M  V30 8 C 1.899050 -0.737429 -5.360853 0
M  V30 9 C 2.641293 -1.808153 -5.799763 0
M  V30 10 C 2.206409 -2.690813 -6.756842 0
M  V30 11 C 0.976804 -2.553610 -7.344159 0
M  V30 12 O 0.251416 -3.214500 -8.287039 0
M  V30 13 C 0.553560 -4.337110 -9.020815 0
M  V30 14 C 0.799196 -5.592605 -8.245507 0
M  V30 15 C -0.359486 -6.031290 -7.409358 0
M  V30 16 O -0.651074 -5.049737 -6.464913 0
M  V30 17 C -1.709897 -5.522055 -5.713204 0
M  V30 18 C -2.187900 -4.672401 -4.605455 0
M  V30 19 C -2.691630 -3.311979 -4.971915 0
M  V30 20 C -3.167096 -2.545651 -3.759074 0
M  V30 21 O -3.647675 -1.276308 -4.056539 0
M  V30 22 C -4.094154 -0.678903 -2.874680 0
M  V30 23 C -4.663160 0.696701 -3.068681 0
M  V30 24 C -5.120783 1.166630 -1.700133 0
M  V30 25 O -4.103052 1.251436 -0.768355 0
M  V30 26 C -4.703142 1.630615 0.433010 0
M  V30 27 C -3.771390 1.808970 1.539272 0
M  V30 28 O -2.506989 1.688516 1.605443 0
M  V30 29 N -4.431787 2.187534 2.759159 0
M  V30 30 C -3.707467 2.429270 4.002369 0 CFG=2
M  V30 31 C -3.623716 1.179330 4.842175 0
M  V30 32 O -3.018331 1.484577 5.912377 0
M  V30 33 N -4.131599 -0.101931 4.485185 0
M  V30 34 C -4.869691 -0.659366 3.345926 0
M  V30 35 C -5.651153 -1.828191 3.939459 0 CFG=2
M  V30 36 O -6.697459 -1.394010 4.734812 0
M  V30 37 C -4.606115 -2.406304 4.860529 0
M  V30 38 C -3.892852 -1.214207 5.382592 0 CFG=1
M  V30 39 C -2.409293 -1.461276 5.507101 0
M  V30 40 O -1.671313 -0.561755 5.042763 0
M  V30 41 N -1.865281 -2.621954 6.100145 0
M  V30 42 C -0.450844 -2.962339 6.271013 0
M  V30 43 C 0.059703 -3.331649 4.899964 0
M  V30 44 C 0.695628 -2.303569 4.234476 0
M  V30 45 C 1.140470 -2.616598 2.968104 0
M  V30 46 C 1.035040 -3.805140 2.286967 0
M  V30 47 C 1.502714 -4.135643 0.966256 0
M  V30 48 S 1.192280 -5.744934 0.247896 0
M  V30 49 C 2.090992 -5.327207 -1.365768 0
M  V30 50 N 2.405029 -4.247696 -1.116779 0
M  V30 51 C 2.191324 -3.533936 -0.024631 0
M  V30 52 C 2.689589 -2.136957 0.112902 0
M  V30 53 C 0.378363 -4.775151 3.047730 0
M  V30 54 C -0.102538 -4.566438 4.318188 0
M  V30 55 C -4.125772 3.635983 4.741587 0
M  V30 56 C -3.388935 3.908643 6.012627 0
M  V30 57 C -3.875806 4.842684 3.829964 0
M  V30 58 C -5.605287 3.671889 5.061125 0
M  V30 59 C 0.212291 -1.468986 -6.906386 0
M  V30 60 C 0.669187 -0.577832 -5.930820 0
M  V30 61 N 3.772845 1.007201 -2.652607 0
M  V30 62 C 4.787296 1.014888 -1.808459 0
M  V30 63 N 4.952309 2.149486 -0.922485 0
M  V30 64 C 4.006517 3.234074 -1.017413 0
M  V30 65 C 4.295878 4.287165 0.027140 0
M  V30 66 C 4.184685 3.677104 1.403412 0
M  V30 67 N 4.420579 4.655275 2.472799 0
M  V30 68 C 3.104508 5.262050 2.716942 0
M  V30 69 C 5.485501 5.169739 3.286361 0
M  V30 70 O 5.185587 6.095122 4.128521 0
M  V30 71 C 6.921736 4.812882 3.333007 0
M  V30 72 C 7.697806 4.988428 2.052699 0
M  V30 73 C 7.946981 3.498373 1.999720 0
M  V30 74 C 7.234170 3.332845 3.321636 0
M  V30 75 H 6.363598 -1.482258 0.698456 0
M  V30 76 H 6.842728 0.189957 1.293340 0
M  V30 77 H 5.195968 -0.127195 0.547759 0
M  V30 78 H 7.292599 0.918297 -0.903290 0
M  V30 79 H 7.536498 -0.869336 -1.126472 0
M  V30 80 H 6.033330 -1.962057 -2.697695 0
M  V30 81 H 1.779415 1.036882 -4.228912 0
M  V30 82 H 3.616076 -2.033671 -5.430999 0
M  V30 83 H 2.746925 -3.538882 -7.141737 0
M  V30 84 H 1.409825 -4.137528 -9.736137 0
M  V30 85 H -0.332351 -4.535014 -9.692570 0
M  V30 86 H 1.038495 -6.394259 -9.027317 0
M  V30 87 H 1.740603 -5.570203 -7.645206 0
M  V30 88 H -0.109364 -7.011268 -6.962759 0
M  V30 89 H -1.222727 -6.169313 -8.108435 0
M  V30 90 H -2.579778 -5.818847 -6.361794 0
M  V30 91 H -1.358317 -6.500420 -5.286026 0
M  V30 92 H -1.354377 -4.610982 -3.842649 0
M  V30 93 H -2.984156 -5.246401 -4.059198 0
M  V30 94 H -3.577235 -3.475040 -5.651025 0
M  V30 95 H -1.955728 -2.773974 -5.561489 0
M  V30 96 H -2.300100 -2.505087 -3.048372 0
M  V30 97 H -3.930082 -3.156735 -3.234040 0
M  V30 98 H -3.204647 -0.676297 -2.194010 0
M  V30 99 H -4.814644 -1.373447 -2.403074 0
M  V30 100 H -3.984092 1.393644 -3.552177 0
M  V30 101 H -5.544645 0.593528 -3.729399 0
M  V30 102 H -5.696535 2.124785 -1.823794 0
M  V30 103 H -5.869988 0.458959 -1.279796 0
M  V30 104 H -5.429137 0.835517 0.683776 0
M  V30 105 H -5.295303 2.560136 0.317826 0
M  V30 106 H -5.432265 2.357754 2.994523 0
M  V30 107 H -2.624371 2.562016 3.682727 0
M  V30 108 H -4.219119 -1.054557 2.567235 0
M  V30 109 H -5.601067 0.013811 2.913916 0
M  V30 110 H -5.954070 -2.516494 3.134667 0
M  V30 111 H -7.434789 -2.041372 4.799093 0
M  V30 112 H -5.071074 -2.987710 5.683647 0
M  V30 113 H -3.927200 -3.057089 4.266781 0
M  V30 114 H -4.210168 -0.906616 6.390367 0
M  V30 115 H -2.629247 -3.280250 6.440262 0
M  V30 116 H -0.414959 -3.879696 6.852023 0
M  V30 117 H 0.142977 -2.165875 6.717341 0
M  V30 118 H 0.883675 -1.293101 4.615085 0
M  V30 119 H 1.634794 -1.818621 2.440132 0
M  V30 120 H 2.202738 -6.001619 -2.199782 0
M  V30 121 H 3.281245 -1.787033 -0.765717 0
M  V30 122 H 1.803867 -1.473468 0.155393 0
M  V30 123 H 3.400986 -2.018787 0.965475 0
M  V30 124 H 0.196238 -5.795371 2.675301 0
M  V30 125 H -0.604517 -5.336214 4.882097 0
M  V30 126 H -3.821041 3.417495 6.905671 0
M  V30 127 H -2.294228 3.681318 5.892956 0
M  V30 128 H -3.400683 5.009501 6.271640 0
M  V30 129 H -4.712673 4.964780 3.109805 0
M  V30 130 H -2.883723 4.849886 3.380296 0
M  V30 131 H -3.955816 5.739970 4.505415 0
M  V30 132 H -6.259137 3.768894 4.193750 0
M  V30 133 H -5.884382 2.861919 5.778404 0
M  V30 134 H -5.743797 4.632161 5.638517 0
M  V30 135 H -0.798345 -1.169000 -7.239524 0
M  V30 136 H 0.080622 0.269988 -5.583684 0
M  V30 137 H 5.758692 2.091772 -0.271779 0
M  V30 138 H 2.968543 2.866674 -0.964388 0
M  V30 139 H 4.087642 3.723054 -2.031248 0
M  V30 140 H 3.541948 5.118667 -0.037568 0
M  V30 141 H 5.264514 4.778896 -0.150156 0
M  V30 142 H 5.014563 2.899996 1.430568 0
M  V30 143 H 3.238118 3.145348 1.508316 0
M  V30 144 H 3.120366 5.989610 3.551835 0
M  V30 145 H 2.835338 5.805839 1.766917 0
M  V30 146 H 2.351366 4.480802 2.923089 0
M  V30 147 H 7.443941 5.340918 4.171491 0
M  V30 148 H 8.684002 5.516965 2.191104 0
M  V30 149 H 7.120330 5.388923 1.207580 0
M  V30 150 H 9.028779 3.213737 2.032687 0
M  V30 151 H 7.424406 2.964494 1.178951 0
M  V30 152 H 6.397894 2.636144 3.321625 0
M  V30 153 H 7.972525 3.086200 4.121961 0
M  V30 END ATOM
M  V30 BEGIN BOND
M  V30 1 1 1 2
M  V30 2 1 2 3
M  V30 3 2 3 4
M  V30 4 1 4 5
M  V30 5 2 5 6
M  V30 6 1 6 7
M  V30 7 1 7 8
M  V30 8 2 8 9
M  V30 9 1 9 10
M  V30 10 2 10 11
M  V30 11 1 11 12
M  V30 12 1 12 13
M  V30 13 1 13 14
M  V30 14 1 14 15
M  V30 15 1 15 16
M  V30 16 1 16 17
M  V30 17 1 17 18
M  V30 18 1 18 19
M  V30 19 1 19 20
M  V30 20 1 20 21
M  V30 21 1 21 22
M  V30 22 1 22 23
M  V30 23 1 23 24
M  V30 24 1 24 25
M  V30 25 1 25 26
M  V30 26 1 26 27
M  V30 27 2 27 28
M  V30 28 1 27 29
M  V30 29 1 29 30
M  V30 30 1 30 31
M  V30 31 2 31 32
M  V30 32 1 31 33
M  V30 33 1 33 34
M  V30 34 1 34 35
M  V30 35 1 35 36
M  V30 36 1 35 37
M  V30 37 1 37 38
M  V30 38 1 38 39
M  V30 39 2 39 40
M  V30 40 1 39 41
M  V30 41 1 41 42
M  V30 42 1 42 43
M  V30 43 2 43 44
M  V30 44 1 44 45
M  V30 45 2 45 46
M  V30 46 1 46 47
M  V30 47 1 47 48
M  V30 48 1 48 49
M  V30 49 2 49 50
M  V30 50 1 50 51
M  V30 51 1 51 52
M  V30 52 1 46 53
M  V30 53 2 53 54
M  V30 54 1 30 55
M  V30 55 1 55 56
M  V30 56 1 55 57
M  V30 57 1 55 58
M  V30 58 1 11 59
M  V30 59 2 59 60
M  V30 60 1 6 61
M  V30 61 2 61 62
M  V30 62 1 62 63
M  V30 63 1 63 64
M  V30 64 1 64 65
M  V30 65 1 65 66
M  V30 66 1 66 67
M  V30 67 1 67 68
M  V30 68 1 67 69
M  V30 69 2 69 70
M  V30 70 1 69 71
M  V30 71 1 71 72
M  V30 72 1 72 73
M  V30 73 1 73 74
M  V30 74 1 62 3
M  V30 75 1 74 71
M  V30 76 1 60 8
M  V30 77 1 38 33
M  V30 78 1 54 43
M  V30 79 2 51 47
M  V30 80 1 1 75
M  V30 81 1 1 76
M  V30 82 1 1 77
M  V30 83 1 2 78
M  V30 84 1 2 79
M  V30 85 1 4 80
M  V30 86 1 7 81
M  V30 87 1 9 82
M  V30 88 1 10 83
M  V30 89 1 13 84
M  V30 90 1 13 85
M  V30 91 1 14 86
M  V30 92 1 14 87
M  V30 93 1 15 88
M  V30 94 1 15 89
M  V30 95 1 17 90
M  V30 96 1 17 91
M  V30 97 1 18 92
M  V30 98 1 18 93
M  V30 99 1 19 94
M  V30 100 1 19 95
M  V30 101 1 20 96
M  V30 102 1 20 97
M  V30 103 1 22 98
M  V30 104 1 22 99
M  V30 105 1 23 100
M  V30 106 1 23 101
M  V30 107 1 24 102
M  V30 108 1 24 103
M  V30 109 1 26 104
M  V30 110 1 26 105
M  V30 111 1 29 106
M  V30 112 1 30 107 CFG=3
M  V30 113 1 34 108
M  V30 114 1 34 109
M  V30 115 1 35 110 CFG=3
M  V30 116 1 36 111
M  V30 117 1 37 112
M  V30 118 1 37 113
M  V30 119 1 38 114 CFG=1
M  V30 120 1 41 115
M  V30 121 1 42 116
M  V30 122 1 42 117
M  V30 123 1 44 118
M  V30 124 1 45 119
M  V30 125 1 49 120
M  V30 126 1 52 121
M  V30 127 1 52 122
M  V30 128 1 52 123
M  V30 129 1 53 124
M  V30 130 1 54 125
M  V30 131 1 56 126
M  V30 132 1 56 127
M  V30 133 1 56 128
M  V30 134 1 57 129
M  V30 135 1 57 130
M  V30 136 1 57 131
M  V30 137 1 58 132
M  V30 138 1 58 133
M  V30 139 1 58 134
M  V30 140 1 59 135
M  V30 141 1 60 136
M  V30 142 1 63 137
M  V30 143 1 64 138
M  V30 144 1 64 139
M  V30 145 1 65 140
M  V30 146 1 65 141
M  V30 147 1 66 142
M  V30 148 1 66 143
M  V30 149 1 68 144
M  V30 150 1 68 145
M  V30 151 1 68 146
M  V30 152 1 71 147
M  V30 153 1 72 148
M  V30 154 1 72 149
M  V30 155 1 73 150
M  V30 156 1 73 151
M  V30 157 1 74 152
M  V30 158 1 74 153
M  V30 END BOND
M  V30 END CTAB
M  END
>  <Dataset>  (121) 
ChEMBL_Kinases

>  <Ligand_Instance>  (121) 
nan

>  <PDB_ID>  (121) 
nan

>  <Standardized_SMILES>  (121) 
CCc1cnc(Nc2ccc(OCCCOCCCCOCCCOCC(=O)N[C@H](C(=O)N3C[C@H](O)C[C@H]3C(=O)NCc3ccc(-c4scnc4C)cc3)C(C)(C)C)cc2)nc1NCCCN(C)C(=O)C1CCC1

>  <Name>  (121) 
nan

>  <Pocket>  (121) 
nan

>  <ATP_Site>  (121) 
nan

>  <Peripheral>  (121) 
nan

>  <Num_H_Atoms_ProtBoundConf>  (121) 
nan

>  <Num_Resolved_Atoms>  (121) 
nan

>  <Num_Not_Resolved_Atoms>  (121) 
nan

$$$$
CHEMBL4226820
     RDKit          3D

  0  0  0  0  0  0  0  0  0  0999 V3000
M  V30 BEGIN CTAB
M  V30 COUNTS 66 69 0 0 0
M  V30 BEGIN ATOM
M  V30 1 C 5.094938 -2.478532 4.850535 0
M  V30 2 C 3.854336 -2.770106 4.010021 0
M  V30 3 C 2.874563 -1.655676 4.306397 0
M  V30 4 C 2.602192 -1.722921 5.799121 0
M  V30 5 N 1.675755 -1.716528 3.529862 0
M  V30 6 C 0.700151 -2.780027 3.444873 0
M  V30 7 O 1.025271 -3.660311 2.425194 0
M  V30 8 C 1.377938 -0.585660 2.732863 0
M  V30 9 O 0.368362 -0.464557 1.988132 0
M  V30 10 C 1.703850 0.749962 2.249209 0
M  V30 11 C 0.644309 1.213612 1.316952 0
M  V30 12 C 0.729482 1.272914 -0.056620 0
M  V30 13 C -0.336137 1.726941 -0.791275 0
M  V30 14 C -0.277243 1.819288 -2.272382 0
M  V30 15 N 0.897587 2.557926 -2.635066 0
M  V30 16 C 2.051937 2.296519 -3.387848 0
M  V30 17 O 2.960298 3.141756 -3.565412 0
M  V30 18 N 2.022715 0.972687 -3.893856 0
M  V30 19 C 0.916320 0.132889 -3.603286 0
M  V30 20 C 0.978480 -1.214142 -4.181418 0
M  V30 21 C -0.142133 0.450689 -2.883938 0
M  V30 22 C -1.277846 -0.382492 -2.551928 0
M  V30 23 O -2.247553 0.072532 -1.835478 0
M  V30 24 N -1.837221 -1.649942 -2.705851 0
M  V30 25 C -3.093628 -1.641323 -1.994109 0
M  V30 26 C -3.007087 -2.021190 -0.649516 0
M  V30 27 C -4.147333 -2.051583 0.137950 0
M  V30 28 C -5.317629 -1.687778 -0.506392 0
M  V30 29 N -6.568755 -1.628328 0.017144 0
M  V30 30 N -7.450521 -1.234053 -0.908745 0
M  V30 31 C -6.781927 -1.024352 -2.075069 0
M  V30 32 C -5.455270 -1.306770 -1.825119 0
M  V30 33 C -4.293818 -1.290277 -2.572704 0
M  V30 34 C -1.483150 2.117281 -0.101040 0
M  V30 35 C -1.596900 2.068810 1.273010 0
M  V30 36 C -0.510306 1.606509 2.008378 0
M  V30 37 F -0.658803 1.572615 3.350415 0
M  V30 38 H 5.948818 -2.939833 4.327363 0
M  V30 39 H 4.924559 -2.913052 5.858022 0
M  V30 40 H 5.228015 -1.384658 4.923127 0
M  V30 41 H 3.455728 -3.769104 4.297994 0
M  V30 42 H 4.186431 -2.768027 2.945908 0
M  V30 43 H 3.380440 -0.694586 4.138489 0
M  V30 44 H 3.110874 -0.913418 6.362894 0
M  V30 45 H 1.522427 -1.643636 6.038122 0
M  V30 46 H 2.936987 -2.684544 6.254308 0
M  V30 47 H -0.321777 -2.389030 3.230836 0
M  V30 48 H 0.661099 -3.357906 4.392009 0
M  V30 49 H 1.516978 -3.252277 1.673706 0
M  V30 50 H 2.669907 0.700572 1.682633 0
M  V30 51 H 1.872299 1.496106 3.050197 0
M  V30 52 H 1.642135 0.955180 -0.494849 0
M  V30 53 H -1.213056 2.294472 -2.646835 0
M  V30 54 H 0.748137 3.488742 -2.180144 0
M  V30 55 H 2.829577 0.647445 -4.476164 0
M  V30 56 H 0.164320 -1.422698 -4.873843 0
M  V30 57 H 1.060698 -1.958368 -3.366070 0
M  V30 58 H 1.908664 -1.344845 -4.823748 0
M  V30 59 H -1.206186 -2.241918 -3.278427 0
M  V30 60 H -2.071330 -2.298440 -0.182293 0
M  V30 61 H -4.128998 -2.336171 1.171296 0
M  V30 62 H -6.948986 -1.829224 0.980024 0
M  V30 63 H -7.120367 -0.698506 -3.070929 0
M  V30 64 H -4.311999 -1.004240 -3.612458 0
M  V30 65 H -2.361033 2.493233 -0.621434 0
M  V30 66 H -2.522801 2.388048 1.774498 0
M  V30 END ATOM
M  V30 BEGIN BOND
M  V30 1 1 1 2
M  V30 2 1 2 3
M  V30 3 1 3 4
M  V30 4 1 3 5
M  V30 5 1 5 6
M  V30 6 1 6 7
M  V30 7 1 5 8
M  V30 8 2 8 9
M  V30 9 1 8 10
M  V30 10 1 10 11
M  V30 11 2 11 12
M  V30 12 1 12 13
M  V30 13 1 13 14
M  V30 14 1 14 15
M  V30 15 1 15 16
M  V30 16 2 16 17
M  V30 17 1 16 18
M  V30 18 1 18 19
M  V30 19 1 19 20
M  V30 20 2 19 21
M  V30 21 1 21 22
M  V30 22 2 22 23
M  V30 23 1 22 24
M  V30 24 1 24 25
M  V30 25 2 25 26
M  V30 26 1 26 27
M  V30 27 2 27 28
M  V30 28 1 28 29
M  V30 29 1 29 30
M  V30 30 2 30 31
M  V30 31 1 31 32
M  V30 32 2 32 33
M  V30 33 2 13 34
M  V30 34 1 34 35
M  V30 35 2 35 36
M  V30 36 1 36 37
M  V30 37 1 36 11
M  V30 38 1 21 14
M  V30 39 1 33 25
M  V30 40 1 32 28
M  V30 41 1 1 38
M  V30 42 1 1 39
M  V30 43 1 1 40
M  V30 44 1 2 41
M  V30 45 1 2 42
M  V30 46 1 3 43
M  V30 47 1 4 44
M  V30 48 1 4 45
M  V30 49 1 4 46
M  V30 50 1 6 47
M  V30 51 1 6 48
M  V30 52 1 7 49
M  V30 53 1 10 50
M  V30 54 1 10 51
M  V30 55 1 12 52
M  V30 56 1 14 53
M  V30 57 1 15 54
M  V30 58 1 18 55
M  V30 59 1 20 56
M  V30 60 1 20 57
M  V30 61 1 20 58
M  V30 62 1 24 59
M  V30 63 1 26 60
M  V30 64 1 27 61
M  V30 65 1 29 62
M  V30 66 1 31 63
M  V30 67 1 33 64
M  V30 68 1 34 65
M  V30 69 1 35 66
M  V30 END BOND
M  V30 END CTAB
M  END
>  <Dataset>  (122) 
ChEMBL_Kinases

>  <Ligand_Instance>  (122) 
nan

>  <PDB_ID>  (122) 
nan

>  <Standardized_SMILES>  (122) 
CCC(C)N(CO)C(=O)Cc1cc(C2NC(=O)NC(C)=C2C(=O)Nc2ccc3[nH]ncc3c2)ccc1F

>  <Name>  (122) 
nan

>  <Pocket>  (122) 
nan

>  <ATP_Site>  (122) 
nan

>  <Peripheral>  (122) 
nan

>  <Num_H_Atoms_ProtBoundConf>  (122) 
nan

>  <Num_Resolved_Atoms>  (122) 
nan

>  <Num_Not_Resolved_Atoms>  (122) 
nan

$$$$
CHEMBL4226784
     RDKit          3D

  0  0  0  0  0  0  0  0  0  0999 V3000
M  V30 BEGIN CTAB
M  V30 COUNTS 49 53 0 0 0
M  V30 BEGIN ATOM
M  V30 1 C -0.704079 -2.050898 -3.961549 0
M  V30 2 C 0.371147 -2.149394 -2.931720 0
M  V30 3 C 0.788346 -0.987188 -2.314437 0
M  V30 4 C 1.784878 -1.018050 -1.348620 0
M  V30 5 C 2.198959 0.233950 -0.717205 0
M  V30 6 N 2.709582 1.192704 -1.545191 0
M  V30 7 C 3.024219 2.249839 -0.781420 0
M  V30 8 C 3.573428 3.491395 -1.098160 0
M  V30 9 C 3.751876 4.334674 -0.001264 0
M  V30 10 C 3.430275 4.012443 1.288043 0
M  V30 11 N 2.898696 2.779746 1.510311 0
M  V30 12 N 2.725991 1.979040 0.491837 0
M  V30 13 C 2.213992 0.737194 0.555812 0
M  V30 14 C 1.703782 -0.141658 1.600794 0
M  V30 15 C 2.581832 -0.536509 2.618222 0
M  V30 16 C 2.130384 -1.378045 3.635136 0
M  V30 17 N 0.853329 -1.801574 3.626520 0
M  V30 18 C -0.030044 -1.451420 2.672447 0
M  V30 19 N -1.380970 -1.888399 2.643611 0
M  V30 20 C -2.367722 -1.131563 3.298897 0
M  V30 21 O -2.036570 -0.060246 3.913398 0
M  V30 22 C -3.794287 -1.520836 3.312521 0
M  V30 23 C -4.719407 -0.745178 3.977100 0
M  V30 24 C -6.032155 -1.213257 3.920045 0
M  V30 25 C -6.379123 -2.383779 3.237603 0
M  V30 26 C -5.375997 -3.095461 2.599400 0
M  V30 27 N -4.108333 -2.651038 2.649720 0
M  V30 28 C 0.406419 -0.611946 1.651080 0
M  V30 29 C 2.360608 -2.236560 -1.008123 0
M  V30 30 C 1.895334 -3.357327 -1.664703 0
M  V30 31 C 0.908713 -3.374012 -2.629608 0
M  V30 32 F 0.515051 -4.533663 -3.223056 0
M  V30 33 H -1.678910 -2.004476 -3.459909 0
M  V30 34 H -0.532733 -1.089902 -4.515132 0
M  V30 35 H -0.631191 -2.869420 -4.702808 0
M  V30 36 H 0.363196 -0.024027 -2.554823 0
M  V30 37 H 3.839865 3.780463 -2.108360 0
M  V30 38 H 4.174378 5.310313 -0.187191 0
M  V30 39 H 3.609682 4.744681 2.077195 0
M  V30 40 H 3.620185 -0.180865 2.609345 0
M  V30 41 H 2.776094 -1.693390 4.420092 0
M  V30 42 H -1.716654 -2.761090 2.156293 0
M  V30 43 H -4.420312 0.139179 4.486365 0
M  V30 44 H -6.794847 -0.639698 4.426204 0
M  V30 45 H -7.432416 -2.662143 3.253828 0
M  V30 46 H -5.770959 -3.976348 2.110276 0
M  V30 47 H -0.239596 -0.296653 0.865937 0
M  V30 48 H 3.138583 -2.286760 -0.258715 0
M  V30 49 H 2.390382 -4.290299 -1.350437 0
M  V30 END ATOM
M  V30 BEGIN BOND
M  V30 1 1 1 2
M  V30 2 2 2 3
M  V30 3 1 3 4
M  V30 4 1 4 5
M  V30 5 1 5 6
M  V30 6 2 6 7
M  V30 7 1 7 8
M  V30 8 2 8 9
M  V30 9 1 9 10
M  V30 10 2 10 11
M  V30 11 1 11 12
M  V30 12 1 12 13
M  V30 13 1 13 14
M  V30 14 2 14 15
M  V30 15 1 15 16
M  V30 16 2 16 17
M  V30 17 1 17 18
M  V30 18 1 18 19
M  V30 19 1 19 20
M  V30 20 2 20 21
M  V30 21 1 20 22
M  V30 22 2 22 23
M  V30 23 1 23 24
M  V30 24 2 24 25
M  V30 25 1 25 26
M  V30 26 2 26 27
M  V30 27 2 18 28
M  V30 28 2 4 29
M  V30 29 1 29 30
M  V30 30 2 30 31
M  V30 31 1 31 32
M  V30 32 1 31 2
M  V30 33 2 13 5
M  V30 34 1 28 14
M  V30 35 1 12 7
M  V30 36 1 27 22
M  V30 37 1 1 33
M  V30 38 1 1 34
M  V30 39 1 1 35
M  V30 40 1 3 36
M  V30 41 1 8 37
M  V30 42 1 9 38
M  V30 43 1 10 39
M  V30 44 1 15 40
M  V30 45 1 16 41
M  V30 46 1 19 42
M  V30 47 1 23 43
M  V30 48 1 24 44
M  V30 49 1 25 45
M  V30 50 1 26 46
M  V30 51 1 28 47
M  V30 52 1 29 48
M  V30 53 1 30 49
M  V30 END BOND
M  V30 END CTAB
M  END
>  <Dataset>  (123) 
ChEMBL_Kinases

>  <Ligand_Instance>  (123) 
nan

>  <PDB_ID>  (123) 
nan

>  <Standardized_SMILES>  (123) 
Cc1cc(-c2nc3cccnn3c2-c2ccnc(NC(=O)c3ccccn3)c2)ccc1F

>  <Name>  (123) 
nan

>  <Pocket>  (123) 
nan

>  <ATP_Site>  (123) 
nan

>  <Peripheral>  (123) 
nan

>  <Num_H_Atoms_ProtBoundConf>  (123) 
nan

>  <Num_Resolved_Atoms>  (123) 
nan

>  <Num_Not_Resolved_Atoms>  (123) 
nan

$$$$
CHEMBL4776291
     RDKit          3D

  0  0  0  0  0  0  0  0  0  0999 V3000
M  V30 BEGIN CTAB
M  V30 COUNTS 71 75 0 0 0
M  V30 BEGIN ATOM
M  V30 1 C 4.644955 4.953487 5.337976 0
M  V30 2 O 3.755699 4.478525 4.346323 0
M  V30 3 C 4.002880 4.529484 3.005849 0
M  V30 4 O 5.116647 5.050919 2.793836 0
M  V30 5 C 3.218386 4.099796 1.897992 0
M  V30 6 S 3.779137 4.284614 0.262991 0
M  V30 7 C 2.234356 3.510386 -0.509315 0
M  V30 8 C 1.429006 3.185599 0.655077 0
M  V30 9 C 1.972742 3.504577 1.861588 0
M  V30 10 N 1.219194 3.184782 3.020259 0
M  V30 11 C -0.015399 2.511628 3.130193 0
M  V30 12 N -0.665070 1.826993 2.175991 0
M  V30 13 C -1.853304 1.235729 2.336222 0
M  V30 14 N -2.560947 0.478670 1.376655 0
M  V30 15 C -2.214485 -0.032518 0.100698 0
M  V30 16 C -0.933393 0.065831 -0.375897 0
M  V30 17 C -0.485469 -0.410968 -1.589468 0
M  V30 18 C -1.374981 -1.048172 -2.421039 0
M  V30 19 N -1.001045 -1.571880 -3.689206 0
M  V30 20 C -1.849507 -2.249955 -4.670704 0
M  V30 21 C -1.574282 -3.731576 -4.471162 0
M  V30 22 C -0.073432 -4.002403 -4.475341 0
M  V30 23 N 0.311345 -4.397149 -3.176694 0
M  V30 24 C 1.679785 -4.635274 -2.938208 0
M  V30 25 C 1.888729 -6.066055 -2.532175 0
M  V30 26 C 0.588899 -6.739911 -2.918697 0
M  V30 27 C -0.380073 -5.609043 -2.816031 0
M  V30 28 C 0.582445 -2.778621 -5.022294 0
M  V30 29 C 0.330993 -1.522615 -4.240904 0
M  V30 30 C -2.659831 -1.166183 -1.981243 0
M  V30 31 C -3.093301 -0.685901 -0.769142 0
M  V30 32 O -4.420249 -0.818861 -0.337057 0
M  V30 33 C -5.356191 -1.471022 -1.177986 0
M  V30 34 N -2.438614 1.336400 3.543460 0
M  V30 35 C -1.897485 1.986926 4.572107 0
M  V30 36 C -0.679494 2.567168 4.335088 0
M  V30 37 C -0.067448 3.297096 5.478009 0
M  V30 38 H 4.542052 6.049550 5.516984 0
M  V30 39 H 5.691182 4.742029 5.025748 0
M  V30 40 H 4.502577 4.444148 6.312784 0
M  V30 41 H 1.970728 3.329024 -1.612272 0
M  V30 42 H 0.499075 2.742697 0.365963 0
M  V30 43 H 1.666534 3.502228 3.923931 0
M  V30 44 H -3.565587 0.205389 1.594515 0
M  V30 45 H -0.198628 0.542594 0.246234 0
M  V30 46 H 0.540082 -0.281047 -1.870587 0
M  V30 47 H -2.924719 -2.114794 -4.437549 0
M  V30 48 H -1.713875 -1.899492 -5.692733 0
M  V30 49 H -2.107940 -4.359044 -5.211375 0
M  V30 50 H -2.029167 -3.962291 -3.478132 0
M  V30 51 H 0.100539 -4.815848 -5.223421 0
M  V30 52 H 2.375456 -4.303764 -3.734173 0
M  V30 53 H 1.975035 -4.004262 -2.047301 0
M  V30 54 H 2.763107 -6.449563 -3.100497 0
M  V30 55 H 2.096457 -6.173911 -1.431792 0
M  V30 56 H 0.725140 -7.168826 -3.914131 0
M  V30 57 H 0.329804 -7.569686 -2.218995 0
M  V30 58 H -0.800792 -5.568989 -1.788797 0
M  V30 59 H -1.209919 -5.800836 -3.555921 0
M  V30 60 H 0.157267 -2.629655 -6.037298 0
M  V30 61 H 1.676070 -2.909258 -5.211218 0
M  V30 62 H 0.314299 -0.660688 -4.969290 0
M  V30 63 H 1.125885 -1.309902 -3.501751 0
M  V30 64 H -3.449130 -1.649316 -2.547653 0
M  V30 65 H -5.133329 -2.547074 -1.213525 0
M  V30 66 H -6.388748 -1.354417 -0.783347 0
M  V30 67 H -5.341487 -1.007832 -2.192044 0
M  V30 68 H -2.392678 2.051084 5.533686 0
M  V30 69 H 0.878963 2.824389 5.813726 0
M  V30 70 H 0.078177 4.368174 5.224722 0
M  V30 71 H -0.729048 3.299134 6.363804 0
M  V30 END ATOM
M  V30 BEGIN BOND
M  V30 1 1 1 2
M  V30 2 1 2 3
M  V30 3 2 3 4
M  V30 4 1 3 5
M  V30 5 1 5 6
M  V30 6 1 6 7
M  V30 7 2 7 8
M  V30 8 1 8 9
M  V30 9 1 9 10
M  V30 10 1 10 11
M  V30 11 2 11 12
M  V30 12 1 12 13
M  V30 13 1 13 14
M  V30 14 1 14 15
M  V30 15 2 15 16
M  V30 16 1 16 17
M  V30 17 2 17 18
M  V30 18 1 18 19
M  V30 19 1 19 20
M  V30 20 1 20 21
M  V30 21 1 21 22
M  V30 22 1 22 23
M  V30 23 1 23 24
M  V30 24 1 24 25
M  V30 25 1 25 26
M  V30 26 1 26 27
M  V30 27 1 22 28
M  V30 28 1 28 29
M  V30 29 1 18 30
M  V30 30 2 30 31
M  V30 31 1 31 32
M  V30 32 1 32 33
M  V30 33 2 13 34
M  V30 34 1 34 35
M  V30 35 2 35 36
M  V30 36 1 36 37
M  V30 37 2 9 5
M  V30 38 1 36 11
M  V30 39 1 31 15
M  V30 40 1 29 19
M  V30 41 1 27 23
M  V30 42 1 1 38
M  V30 43 1 1 39
M  V30 44 1 1 40
M  V30 45 1 7 41
M  V30 46 1 8 42
M  V30 47 1 10 43
M  V30 48 1 14 44
M  V30 49 1 16 45
M  V30 50 1 17 46
M  V30 51 1 20 47
M  V30 52 1 20 48
M  V30 53 1 21 49
M  V30 54 1 21 50
M  V30 55 1 22 51
M  V30 56 1 24 52
M  V30 57 1 24 53
M  V30 58 1 25 54
M  V30 59 1 25 55
M  V30 60 1 26 56
M  V30 61 1 26 57
M  V30 62 1 27 58
M  V30 63 1 27 59
M  V30 64 1 28 60
M  V30 65 1 28 61
M  V30 66 1 29 62
M  V30 67 1 29 63
M  V30 68 1 30 64
M  V30 69 1 33 65
M  V30 70 1 33 66
M  V30 71 1 33 67
M  V30 72 1 35 68
M  V30 73 1 37 69
M  V30 74 1 37 70
M  V30 75 1 37 71
M  V30 END BOND
M  V30 END CTAB
M  END
>  <Dataset>  (124) 
ChEMBL_Kinases

>  <Ligand_Instance>  (124) 
nan

>  <PDB_ID>  (124) 
nan

>  <Standardized_SMILES>  (124) 
COC(=O)c1sccc1Nc1nc(Nc2ccc(N3CCC(N4CCCC4)CC3)cc2OC)ncc1C

>  <Name>  (124) 
nan

>  <Pocket>  (124) 
nan

>  <ATP_Site>  (124) 
nan

>  <Peripheral>  (124) 
nan

>  <Num_H_Atoms_ProtBoundConf>  (124) 
nan

>  <Num_Resolved_Atoms>  (124) 
nan

>  <Num_Not_Resolved_Atoms>  (124) 
nan

$$$$
CHEMBL4226704
     RDKit          3D

  0  0  0  0  0  0  0  0  0  0999 V3000
M  V30 BEGIN CTAB
M  V30 COUNTS 61 66 0 0 0
M  V30 BEGIN ATOM
M  V30 1 C 1.311466 0.704310 6.379861 0
M  V30 2 C 0.862482 1.094122 5.008533 0
M  V30 3 C 1.734134 1.015001 3.947604 0
M  V30 4 N 1.407522 1.341532 2.692973 0
M  V30 5 C 2.125652 1.320078 1.567736 0
M  V30 6 C 3.487790 0.955120 1.261804 0
M  V30 7 C 3.982083 1.032010 -0.043453 0
M  V30 8 N 5.280102 0.648008 -0.091327 0
M  V30 9 N 5.668317 0.319756 1.124790 0
M  V30 10 C 4.598125 0.506552 1.910690 0
M  V30 11 C 1.243413 1.763108 0.606413 0
M  V30 12 N 0.061077 2.024186 1.192208 0
M  V30 13 C 0.144530 1.763621 2.512891 0
M  V30 14 C -0.795312 1.874973 3.509965 0
M  V30 15 N -2.139387 2.334209 3.262936 0
M  V30 16 C -2.362818 2.618264 1.829025 0
M  V30 17 C -2.844714 1.770836 0.881306 0
M  V30 18 C -2.904746 2.334232 -0.343453 0
M  V30 19 C -3.423192 1.460542 -1.470849 0
M  V30 20 C -2.316920 0.506622 -1.867521 0
M  V30 21 C -1.350025 0.718155 -2.816014 0
M  V30 22 C -0.378436 -0.233397 -3.075653 0
M  V30 23 C -0.429068 -1.406762 -2.333848 0
M  V30 24 C -1.391816 -1.617050 -1.390532 0
M  V30 25 C -1.594481 -2.781844 -0.528954 0
M  V30 26 O -1.718551 -2.654786 0.720292 0
M  V30 27 N -1.657585 -4.085333 -1.087006 0
M  V30 28 C -1.531092 -4.492856 -2.472911 0
M  V30 29 C -0.253556 -5.235810 -2.641093 0
M  V30 30 C 0.229151 -5.911521 -1.410360 0
M  V30 31 C -0.858678 -6.308838 -0.445887 0
M  V30 32 C -1.896636 -5.251574 -0.265970 0
M  V30 33 N -2.313535 -0.664318 -1.173704 0
M  V30 34 N -2.526431 3.617633 -0.616865 0
M  V30 35 S -2.003889 4.113725 1.110755 0
M  V30 36 N -0.388364 1.524242 4.766912 0
M  V30 37 H 0.572978 0.123997 6.941288 0
M  V30 38 H 2.230680 0.067535 6.260507 0
M  V30 39 H 1.635715 1.641546 6.890367 0
M  V30 40 H 2.729349 0.669175 4.149492 0
M  V30 41 H 3.554443 1.326261 -0.988444 0
M  V30 42 H 6.610100 -0.014516 1.415781 0
M  V30 43 H 4.637796 0.310930 2.964403 0
M  V30 44 H 1.305045 1.933723 -0.466575 0
M  V30 45 H -2.759236 2.404502 4.098318 0
M  V30 46 H -3.118009 0.779405 1.197212 0
M  V30 47 H -3.667986 2.036108 -2.358486 0
M  V30 48 H -4.306711 0.883727 -1.169694 0
M  V30 49 H -1.399288 1.667396 -3.341137 0
M  V30 50 H 0.371837 -0.073722 -3.808163 0
M  V30 51 H 0.266525 -2.196914 -2.454432 0
M  V30 52 H -2.374307 -5.155233 -2.781370 0
M  V30 53 H -1.560736 -3.613390 -3.151823 0
M  V30 54 H -0.422022 -6.060444 -3.399879 0
M  V30 55 H 0.549386 -4.621901 -3.122905 0
M  V30 56 H 0.835936 -6.788460 -1.667637 0
M  V30 57 H 0.871406 -5.173409 -0.843214 0
M  V30 58 H -0.397985 -6.648005 0.503081 0
M  V30 59 H -1.337848 -7.208015 -0.881668 0
M  V30 60 H -2.007361 -5.008230 0.810794 0
M  V30 61 H -2.904134 -5.659429 -0.571677 0
M  V30 END ATOM
M  V30 BEGIN BOND
M  V30 1 1 1 2
M  V30 2 2 2 3
M  V30 3 1 3 4
M  V30 4 1 4 5
M  V30 5 1 5 6
M  V30 6 1 6 7
M  V30 7 2 7 8
M  V30 8 1 8 9
M  V30 9 1 9 10
M  V30 10 2 5 11
M  V30 11 1 11 12
M  V30 12 2 12 13
M  V30 13 1 13 14
M  V30 14 1 14 15
M  V30 15 1 15 16
M  V30 16 2 16 17
M  V30 17 1 17 18
M  V30 18 1 18 19
M  V30 19 1 19 20
M  V30 20 2 20 21
M  V30 21 1 21 22
M  V30 22 2 22 23
M  V30 23 1 23 24
M  V30 24 1 24 25
M  V30 25 2 25 26
M  V30 26 1 25 27
M  V30 27 1 27 28
M  V30 28 1 28 29
M  V30 29 1 29 30
M  V30 30 1 30 31
M  V30 31 1 31 32
M  V30 32 2 24 33
M  V30 33 2 18 34
M  V30 34 1 34 35
M  V30 35 2 14 36
M  V30 36 1 36 2
M  V30 37 1 13 4
M  V30 38 1 35 16
M  V30 39 2 10 6
M  V30 40 1 33 20
M  V30 41 1 32 27
M  V30 42 1 1 37
M  V30 43 1 1 38
M  V30 44 1 1 39
M  V30 45 1 3 40
M  V30 46 1 7 41
M  V30 47 1 9 42
M  V30 48 1 10 43
M  V30 49 1 11 44
M  V30 50 1 15 45
M  V30 51 1 17 46
M  V30 52 1 19 47
M  V30 53 1 19 48
M  V30 54 1 21 49
M  V30 55 1 22 50
M  V30 56 1 23 51
M  V30 57 1 28 52
M  V30 58 1 28 53
M  V30 59 1 29 54
M  V30 60 1 29 55
M  V30 61 1 30 56
M  V30 62 1 30 57
M  V30 63 1 31 58
M  V30 64 1 31 59
M  V30 65 1 32 60
M  V30 66 1 32 61
M  V30 END BOND
M  V30 END CTAB
M  END
>  <Dataset>  (125) 
ChEMBL_Kinases

>  <Ligand_Instance>  (125) 
nan

>  <PDB_ID>  (125) 
nan

>  <Standardized_SMILES>  (125) 
Cc1cn2c(-c3cn[nH]c3)cnc2c(Nc2cc(Cc3cccc(C(=O)N4CCCCC4)n3)ns2)n1

>  <Name>  (125) 
nan

>  <Pocket>  (125) 
nan

>  <ATP_Site>  (125) 
nan

>  <Peripheral>  (125) 
nan

>  <Num_H_Atoms_ProtBoundConf>  (125) 
nan

>  <Num_Resolved_Atoms>  (125) 
nan

>  <Num_Not_Resolved_Atoms>  (125) 
nan

$$$$
CHEMBL4227097
     RDKit          3D

  0  0  0  0  0  0  0  0  0  0999 V3000
M  V30 BEGIN CTAB
M  V30 COUNTS 151 156 0 0 0
M  V30 BEGIN ATOM
M  V30 1 C -9.871772 3.443465 2.536713 0
M  V30 2 C -9.450258 2.274027 2.204258 0
M  V30 3 C -8.485230 1.258981 1.886428 0
M  V30 4 C -8.886492 0.009376 1.541984 0
M  V30 5 N -7.918362 -0.872269 1.224172 0
M  V30 6 C -6.617836 -0.531855 1.246625 0
M  V30 7 N -5.619412 -1.514741 0.900306 0
M  V30 8 C -4.425988 -1.443647 1.707334 0
M  V30 9 C -4.520284 -0.828013 2.956538 0
M  V30 10 C -3.337156 -0.710119 3.727463 0
M  V30 11 C -2.089585 -1.196984 3.267442 0
M  V30 12 O -1.256615 -0.872384 4.290284 0
M  V30 13 C 0.113097 -1.157627 4.314654 0
M  V30 14 C 0.758274 -0.540188 5.542255 0
M  V30 15 C 2.260535 -0.773626 5.616104 0
M  V30 16 O 2.850520 -0.326869 4.466291 0
M  V30 17 C 4.222246 -0.304381 4.473614 0
M  V30 18 C 4.777419 -0.010454 3.116006 0
M  V30 19 C 6.253366 0.163424 2.998905 0
M  V30 20 C 6.578694 0.309241 1.500753 0
M  V30 21 O 5.798944 1.360510 1.000993 0
M  V30 22 C 5.989262 1.401420 -0.400800 0
M  V30 23 C 5.070439 2.343786 -1.098732 0
M  V30 24 C 5.288392 2.262223 -2.632532 0
M  V30 25 O 5.179401 0.925500 -2.923488 0
M  V30 26 C 4.036890 0.281039 -2.524644 0
M  V30 27 C 4.293716 -1.156353 -2.744331 0
M  V30 28 O 5.430716 -1.121074 -3.231770 0
M  V30 29 N 3.775451 -2.418398 -2.600984 0
M  V30 30 C 3.983470 -3.826858 -2.785609 0 CFG=2
M  V30 31 C 2.848437 -4.604972 -2.316428 0
M  V30 32 O 3.033259 -5.732220 -1.873719 0
M  V30 33 N 1.472545 -4.762364 -2.070994 0
M  V30 34 C 1.071536 -5.900246 -1.215832 0
M  V30 35 C 0.193035 -5.176861 -0.144971 0 CFG=2
M  V30 36 O -0.882364 -5.949585 0.179192 0
M  V30 37 C -0.289751 -3.918682 -0.915094 0
M  V30 38 C 0.118043 -4.349191 -2.289022 0 CFG=1
M  V30 39 C -0.177627 -3.494288 -3.416559 0
M  V30 40 O -1.418365 -3.336275 -3.450328 0
M  V30 41 N 0.643406 -2.877938 -4.400702 0
M  V30 42 C 0.197790 -2.093184 -5.489347 0
M  V30 43 C -0.248762 -0.743871 -5.213254 0
M  V30 44 C 0.654692 0.286409 -5.244392 0
M  V30 45 C 0.199319 1.567147 -5.043962 0
M  V30 46 C -1.096894 1.888168 -4.814015 0
M  V30 47 C -1.741928 3.187826 -4.656825 0
M  V30 48 S -3.439070 3.446325 -4.156735 0
M  V30 49 C -3.329280 5.325776 -4.298861 0
M  V30 50 N -2.219168 5.463953 -4.644421 0
M  V30 51 C -1.312981 4.533183 -4.865323 0
M  V30 52 C 0.067500 4.851312 -5.318162 0
M  V30 53 C -1.957766 0.814381 -4.789879 0
M  V30 54 C -1.594029 -0.492530 -4.979342 0
M  V30 55 C 5.286022 -4.336181 -2.141966 0
M  V30 56 C 5.402181 -5.852594 -2.351266 0
M  V30 57 C 5.371793 -4.034242 -0.683282 0
M  V30 58 C 6.458298 -3.782460 -2.950611 0
M  V30 59 C -2.054728 -1.798023 2.032961 0
M  V30 60 C -3.208315 -1.907232 1.287558 0
M  V30 61 N -6.240034 0.737803 1.598370 0
M  V30 62 C -7.169026 1.652410 1.924896 0
M  V30 63 N -6.651252 2.862335 2.353317 0
M  V30 64 C -5.439978 3.678783 2.515694 0
M  V30 65 C -4.643691 3.036027 3.626479 0
M  V30 66 C -3.375418 3.751574 3.935533 0
M  V30 67 N -2.416966 3.807369 2.881454 0
M  V30 68 C -1.495807 2.652991 2.857459 0
M  V30 69 C -2.241547 4.814934 1.862760 0
M  V30 70 O -3.015749 5.795855 1.817405 0
M  V30 71 C -1.140402 4.650886 0.902820 0
M  V30 72 C -1.152169 3.435570 0.036606 0
M  V30 73 C -0.589446 4.310718 -1.077318 0
M  V30 74 C -1.250051 5.489374 -0.359068 0
M  V30 75 H -9.584755 4.441197 2.788535 0
M  V30 76 H -9.584146 4.449225 2.790599 0
M  V30 77 H -10.525507 2.020945 2.205333 0
M  V30 78 H -9.942360 -0.168408 1.549032 0
M  V30 79 H -5.810722 -2.183528 0.126552 0
M  V30 80 H -5.493171 -0.474286 3.321453 0
M  V30 81 H -3.606489 -0.200819 4.669266 0
M  V30 82 H 0.314248 -2.255301 4.374019 0
M  V30 83 H 0.586081 -0.777456 3.399204 0
M  V30 84 H 0.305300 -0.913266 6.469033 0
M  V30 85 H 0.582312 0.566276 5.519265 0
M  V30 86 H 2.406989 -1.829770 5.869572 0
M  V30 87 H 2.598092 -0.143519 6.480581 0
M  V30 88 H 4.584455 -1.305811 4.836850 0
M  V30 89 H 4.612615 0.444028 5.209188 0
M  V30 90 H 4.316345 0.969213 2.791005 0
M  V30 91 H 4.486534 -0.791835 2.368846 0
M  V30 92 H 6.750637 -0.748338 3.349084 0
M  V30 93 H 6.643444 1.004829 3.591875 0
M  V30 94 H 7.645477 0.507331 1.344650 0
M  V30 95 H 6.327064 -0.650950 1.010809 0
M  V30 96 H 7.056529 1.752481 -0.530981 0
M  V30 97 H 5.986552 0.376707 -0.845494 0
M  V30 98 H 5.380500 3.391627 -0.805678 0
M  V30 99 H 4.054126 2.230538 -0.784579 0
M  V30 100 H 6.290488 2.658494 -2.812044 0
M  V30 101 H 4.468605 2.847787 -3.090359 0
M  V30 102 H 3.681104 0.451865 -1.514662 0
M  V30 103 H 3.216922 0.576822 -3.236827 0
M  V30 104 H 2.809353 -2.179419 -2.169440 0
M  V30 105 H 4.184644 -4.010101 -3.863506 0
M  V30 106 H 0.423175 -6.542719 -1.816383 0
M  V30 107 H 1.892859 -6.403177 -0.708419 0
M  V30 108 H 0.882411 -4.907816 0.657906 0
M  V30 109 H -1.140136 -5.808241 1.127514 0
M  V30 110 H -1.356808 -3.732675 -0.767293 0
M  V30 111 H 0.270107 -3.082880 -0.488430 0
M  V30 112 H -0.483423 -5.335072 -2.442653 0
M  V30 113 H 1.634806 -3.055395 -4.254988 0
M  V30 114 H 1.017103 -2.043606 -6.282938 0
M  V30 115 H -0.657581 -2.617144 -6.024455 0
M  V30 116 H 1.710482 0.139042 -5.417149 0
M  V30 117 H 0.887768 2.374085 -5.057245 0
M  V30 118 H -4.109202 6.094578 -4.106365 0
M  V30 119 H 0.816398 4.632727 -4.537215 0
M  V30 120 H 0.335942 4.275087 -6.252975 0
M  V30 121 H 0.193186 5.940768 -5.527438 0
M  V30 122 H -3.038556 0.928339 -4.613768 0
M  V30 123 H -2.328418 -1.294440 -4.954605 0
M  V30 124 H 6.486599 -6.120621 -2.501336 0
M  V30 125 H 5.112690 -6.423234 -1.453471 0
M  V30 126 H 4.789182 -6.174882 -3.200150 0
M  V30 127 H 4.789681 -3.116151 -0.392619 0
M  V30 128 H 6.430057 -3.942065 -0.323207 0
M  V30 129 H 4.916110 -4.842575 -0.047156 0
M  V30 130 H 6.128780 -3.509126 -3.967263 0
M  V30 131 H 7.220953 -4.616496 -3.170024 0
M  V30 132 H 7.062063 -3.046059 -2.414621 0
M  V30 133 H -1.054411 -2.108551 1.842193 0
M  V30 134 H -3.099059 -2.387928 0.337901 0
M  V30 135 H -7.432575 3.448563 2.727083 0
M  V30 136 H -5.644011 4.720972 2.745661 0
M  V30 137 H -4.856803 3.621401 1.553751 0
M  V30 138 H -4.366459 1.975600 3.331575 0
M  V30 139 H -5.277577 2.897362 4.534727 0
M  V30 140 H -3.667435 4.809539 4.269294 0
M  V30 141 H -2.894974 3.260572 4.829218 0
M  V30 142 H -0.469173 3.027227 2.648390 0
M  V30 143 H -1.446521 2.157704 3.860840 0
M  V30 144 H -1.890178 1.981241 2.069280 0
M  V30 145 H -0.117162 4.815200 1.347760 0
M  V30 146 H -0.381873 2.687020 0.302772 0
M  V30 147 H -2.122086 2.958886 -0.182934 0
M  V30 148 H -1.059063 4.089986 -2.027822 0
M  V30 149 H 0.512216 4.365103 -1.078405 0
M  V30 150 H -0.586633 6.377014 -0.345341 0
M  V30 151 H -2.280132 5.714088 -0.683246 0
M  V30 END ATOM
M  V30 BEGIN BOND
M  V30 1 2 1 2
M  V30 2 1 2 3
M  V30 3 2 3 4
M  V30 4 1 4 5
M  V30 5 2 5 6
M  V30 6 1 6 7
M  V30 7 1 7 8
M  V30 8 2 8 9
M  V30 9 1 9 10
M  V30 10 2 10 11
M  V30 11 1 11 12
M  V30 12 1 12 13
M  V30 13 1 13 14
M  V30 14 1 14 15
M  V30 15 1 15 16
M  V30 16 1 16 17
M  V30 17 1 17 18
M  V30 18 1 18 19
M  V30 19 1 19 20
M  V30 20 1 20 21
M  V30 21 1 21 22
M  V30 22 1 22 23
M  V30 23 1 23 24
M  V30 24 1 24 25
M  V30 25 1 25 26
M  V30 26 1 26 27
M  V30 27 2 27 28
M  V30 28 1 27 29
M  V30 29 1 29 30
M  V30 30 1 30 31
M  V30 31 2 31 32
M  V30 32 1 31 33
M  V30 33 1 33 34
M  V30 34 1 34 35
M  V30 35 1 35 36
M  V30 36 1 35 37
M  V30 37 1 37 38
M  V30 38 1 38 39
M  V30 39 2 39 40
M  V30 40 1 39 41
M  V30 41 1 41 42
M  V30 42 1 42 43
M  V30 43 2 43 44
M  V30 44 1 44 45
M  V30 45 2 45 46
M  V30 46 1 46 47
M  V30 47 1 47 48
M  V30 48 1 48 49
M  V30 49 2 49 50
M  V30 50 1 50 51
M  V30 51 1 51 52
M  V30 52 1 46 53
M  V30 53 2 53 54
M  V30 54 1 30 55
M  V30 55 1 55 56
M  V30 56 1 55 57
M  V30 57 1 55 58
M  V30 58 1 11 59
M  V30 59 2 59 60
M  V30 60 1 6 61
M  V30 61 2 61 62
M  V30 62 1 62 63
M  V30 63 1 63 64
M  V30 64 1 64 65
M  V30 65 1 65 66
M  V30 66 1 66 67
M  V30 67 1 67 68
M  V30 68 1 67 69
M  V30 69 2 69 70
M  V30 70 1 69 71
M  V30 71 1 71 72
M  V30 72 1 72 73
M  V30 73 1 73 74
M  V30 74 1 62 3
M  V30 75 1 74 71
M  V30 76 1 60 8
M  V30 77 1 38 33
M  V30 78 1 54 43
M  V30 79 2 51 47
M  V30 80 1 1 75
M  V30 81 1 1 76
M  V30 82 1 2 77
M  V30 83 1 4 78
M  V30 84 1 7 79
M  V30 85 1 9 80
M  V30 86 1 10 81
M  V30 87 1 13 82
M  V30 88 1 13 83
M  V30 89 1 14 84
M  V30 90 1 14 85
M  V30 91 1 15 86
M  V30 92 1 15 87
M  V30 93 1 17 88
M  V30 94 1 17 89
M  V30 95 1 18 90
M  V30 96 1 18 91
M  V30 97 1 19 92
M  V30 98 1 19 93
M  V30 99 1 20 94
M  V30 100 1 20 95
M  V30 101 1 22 96
M  V30 102 1 22 97
M  V30 103 1 23 98
M  V30 104 1 23 99
M  V30 105 1 24 100
M  V30 106 1 24 101
M  V30 107 1 26 102
M  V30 108 1 26 103
M  V30 109 1 29 104
M  V30 110 1 30 105 CFG=3
M  V30 111 1 34 106
M  V30 112 1 34 107
M  V30 113 1 35 108 CFG=1
M  V30 114 1 36 109
M  V30 115 1 37 110
M  V30 116 1 37 111
M  V30 117 1 38 112 CFG=3
M  V30 118 1 41 113
M  V30 119 1 42 114
M  V30 120 1 42 115
M  V30 121 1 44 116
M  V30 122 1 45 117
M  V30 123 1 49 118
M  V30 124 1 52 119
M  V30 125 1 52 120
M  V30 126 1 52 121
M  V30 127 1 53 122
M  V30 128 1 54 123
M  V30 129 1 56 124
M  V30 130 1 56 125
M  V30 131 1 56 126
M  V30 132 1 57 127
M  V30 133 1 57 128
M  V30 134 1 57 129
M  V30 135 1 58 130
M  V30 136 1 58 131
M  V30 137 1 58 132
M  V30 138 1 59 133
M  V30 139 1 60 134
M  V30 140 1 63 135
M  V30 141 1 64 136
M  V30 142 1 64 137
M  V30 143 1 65 138
M  V30 144 1 65 139
M  V30 145 1 66 140
M  V30 146 1 66 141
M  V30 147 1 68 142
M  V30 148 1 68 143
M  V30 149 1 68 144
M  V30 150 1 71 145
M  V30 151 1 72 146
M  V30 152 1 72 147
M  V30 153 1 73 148
M  V30 154 1 73 149
M  V30 155 1 74 150
M  V30 156 1 74 151
M  V30 END BOND
M  V30 END CTAB
M  END
>  <Dataset>  (126) 
ChEMBL_Kinases

>  <Ligand_Instance>  (126) 
nan

>  <PDB_ID>  (126) 
nan

>  <Standardized_SMILES>  (126) 
C=Cc1cnc(Nc2ccc(OCCCOCCCCOCCCOCC(=O)N[C@H](C(=O)N3C[C@H](O)C[C@H]3C(=O)NCc3ccc(-c4scnc4C)cc3)C(C)(C)C)cc2)nc1NCCCN(C)C(=O)C1CCC1

>  <Name>  (126) 
nan

>  <Pocket>  (126) 
nan

>  <ATP_Site>  (126) 
nan

>  <Peripheral>  (126) 
nan

>  <Num_H_Atoms_ProtBoundConf>  (126) 
nan

>  <Num_Resolved_Atoms>  (126) 
nan

>  <Num_Not_Resolved_Atoms>  (126) 
nan

$$$$
CHEMBL4789572
     RDKit          3D

  0  0  0  0  0  0  0  0  0  0999 V3000
M  V30 BEGIN CTAB
M  V30 COUNTS 54 57 0 0 0
M  V30 BEGIN ATOM
M  V30 1 C 0.688359 0.590414 5.202297 0
M  V30 2 O 1.650203 -0.377565 4.878479 0
M  V30 3 C 2.563170 -0.316002 3.851920 0
M  V30 4 C 3.409534 -1.397453 3.731537 0
M  V30 5 C 4.361331 -1.453484 2.743364 0
M  V30 6 C 4.400077 -0.349831 1.890430 0
M  V30 7 C 3.552336 0.751522 1.999270 0
M  V30 8 C 3.716721 1.886028 0.975445 0
M  V30 9 N 2.868086 1.654287 -0.129138 0
M  V30 10 C 2.036299 1.428364 -1.213246 0
M  V30 11 N 1.719223 1.991670 -2.376212 0
M  V30 12 C 0.803383 1.468973 -3.205721 0
M  V30 13 C 0.194420 0.306585 -2.796567 0
M  V30 14 N 0.414440 -0.371629 -1.649547 0
M  V30 15 C -0.292519 -1.571854 -1.351488 0
M  V30 16 C -1.560166 -1.449551 -0.758032 0
M  V30 17 C -2.227581 -2.636896 -0.442484 0
M  V30 18 C -3.576697 -2.538543 0.165781 0
M  V30 19 O -3.916700 -3.631080 0.686075 0
M  V30 20 N -4.350354 -1.355723 0.144643 0
M  V30 21 C -5.652907 -1.404010 0.779612 0
M  V30 22 C -6.878281 -1.028405 0.011999 0
M  V30 23 C -6.409281 -0.222776 1.179760 0
M  V30 24 C -1.605274 -3.828323 -0.732138 0
M  V30 25 C -0.361339 -3.941497 -1.314150 0
M  V30 26 C 0.300206 -2.774180 -1.626984 0
M  V30 27 C 1.637348 -2.864689 -2.276271 0
M  V30 28 C 1.365275 0.240643 -0.871806 0
M  V30 29 O 1.497194 -0.473991 0.177244 0
M  V30 30 C 2.614113 0.766137 3.002705 0
M  V30 31 H 0.447533 1.267849 4.379119 0
M  V30 32 H 0.990904 1.094658 6.127916 0
M  V30 33 H -0.267885 0.041309 5.448684 0
M  V30 34 H 3.383222 -2.254390 4.386013 0
M  V30 35 H 5.091735 -2.223071 2.531755 0
M  V30 36 H 5.131815 -0.323625 1.082919 0
M  V30 37 H 3.424458 2.771504 1.578959 0
M  V30 38 H 4.808688 1.958796 0.779366 0
M  V30 39 H 3.264458 2.550751 -0.577926 0
M  V30 40 H 0.672455 2.045489 -4.090355 0
M  V30 41 H -0.525007 -0.039468 -3.522699 0
M  V30 42 H -1.967856 -0.452281 -0.564370 0
M  V30 43 H -3.983946 -0.490165 -0.316856 0
M  V30 44 H -5.808873 -2.347433 1.381540 0
M  V30 45 H -7.832237 -1.562651 0.228755 0
M  V30 46 H -6.784580 -0.643150 -1.004396 0
M  V30 47 H -7.004272 -0.160847 2.109810 0
M  V30 48 H -5.936663 0.781105 0.956824 0
M  V30 49 H -2.155677 -4.733514 -0.475201 0
M  V30 50 H 0.074302 -4.926219 -1.518385 0
M  V30 51 H 1.571222 -2.362467 -3.284150 0
M  V30 52 H 1.986498 -3.908620 -2.348983 0
M  V30 53 H 2.392174 -2.323115 -1.640097 0
M  V30 54 H 1.957873 1.618962 3.083682 0
M  V30 END ATOM
M  V30 BEGIN BOND
M  V30 1 1 1 2
M  V30 2 1 2 3
M  V30 3 2 3 4
M  V30 4 1 4 5
M  V30 5 2 5 6
M  V30 6 1 6 7
M  V30 7 1 7 8
M  V30 8 1 8 9
M  V30 9 1 9 10
M  V30 10 2 10 11
M  V30 11 1 11 12
M  V30 12 2 12 13
M  V30 13 1 13 14
M  V30 14 1 14 15
M  V30 15 2 15 16
M  V30 16 1 16 17
M  V30 17 1 17 18
M  V30 18 2 18 19
M  V30 19 1 18 20
M  V30 20 1 20 21
M  V30 21 1 21 22
M  V30 22 1 22 23
M  V30 23 2 17 24
M  V30 24 1 24 25
M  V30 25 2 25 26
M  V30 26 1 26 27
M  V30 27 1 14 28
M  V30 28 2 28 29
M  V30 29 2 7 30
M  V30 30 1 30 3
M  V30 31 1 28 10
M  V30 32 1 26 15
M  V30 33 1 23 21
M  V30 34 1 1 31
M  V30 35 1 1 32
M  V30 36 1 1 33
M  V30 37 1 4 34
M  V30 38 1 5 35
M  V30 39 1 6 36
M  V30 40 1 8 37
M  V30 41 1 8 38
M  V30 42 1 9 39
M  V30 43 1 12 40
M  V30 44 1 13 41
M  V30 45 1 16 42
M  V30 46 1 20 43
M  V30 47 1 21 44
M  V30 48 1 22 45
M  V30 49 1 22 46
M  V30 50 1 23 47
M  V30 51 1 23 48
M  V30 52 1 24 49
M  V30 53 1 25 50
M  V30 54 1 27 51
M  V30 55 1 27 52
M  V30 56 1 27 53
M  V30 57 1 30 54
M  V30 END BOND
M  V30 END CTAB
M  END
>  <Dataset>  (127) 
ChEMBL_Kinases

>  <Ligand_Instance>  (127) 
nan

>  <PDB_ID>  (127) 
nan

>  <Standardized_SMILES>  (127) 
COc1cccc(CNc2nccn(-c3cc(C(=O)NC4CC4)ccc3C)c2=O)c1

>  <Name>  (127) 
nan

>  <Pocket>  (127) 
nan

>  <ATP_Site>  (127) 
nan

>  <Peripheral>  (127) 
nan

>  <Num_H_Atoms_ProtBoundConf>  (127) 
nan

>  <Num_Resolved_Atoms>  (127) 
nan

>  <Num_Not_Resolved_Atoms>  (127) 
nan

$$$$
CHEMBL4789576
     RDKit          3D

  0  0  0  0  0  0  0  0  0  0999 V3000
M  V30 BEGIN CTAB
M  V30 COUNTS 51 55 0 0 0
M  V30 BEGIN ATOM
M  V30 1 C 6.744325 -4.006241 5.725755 0
M  V30 2 C 5.917391 -2.768752 5.773282 0
M  V30 3 C 6.057303 -1.844446 6.787183 0
M  V30 4 C 5.260407 -0.718400 6.773107 0
M  V30 5 C 4.360108 -0.588523 5.727511 0
M  V30 6 C 4.217647 -1.509916 4.712937 0
M  V30 7 C 3.260263 -1.348656 3.621888 0
M  V30 8 C 2.402935 -0.277509 3.480224 0
M  V30 9 C 1.518864 -0.192235 2.415355 0
M  V30 10 C 1.465001 -1.184067 1.451763 0
M  V30 11 C 0.497879 -1.002988 0.365987 0
M  V30 12 C -0.778203 -0.584558 0.772151 0
M  V30 13 C -1.743434 -0.393468 -0.205491 0
M  V30 14 C -1.524485 -0.590132 -1.554493 0
M  V30 15 C -2.304458 -0.469447 -2.690191 0
M  V30 16 C -3.711876 -0.055030 -2.725140 0
M  V30 17 O -4.234894 0.209198 -1.611431 0
M  V30 18 N -4.351818 0.009794 -4.004479 0
M  V30 19 C -5.752165 0.432078 -3.937657 0
M  V30 20 C -5.909662 1.790863 -3.336752 0
M  V30 21 C -7.255249 2.422992 -3.170330 0
M  V30 22 C -6.372879 2.882771 -4.259978 0
M  V30 23 N -1.488630 -0.810316 -3.701347 0
M  V30 24 N -0.281171 -1.124530 -3.248387 0
M  V30 25 C -0.252097 -1.001908 -1.903638 0
M  V30 26 C 0.755681 -1.210205 -0.972905 0
M  V30 27 C 2.320494 -2.260748 1.586077 0
M  V30 28 Cl 2.243625 -3.509347 0.361358 0
M  V30 29 C 3.198673 -2.332485 2.655530 0
M  V30 30 N 5.024736 -2.587376 4.783971 0
M  V30 31 H 7.674420 -3.906496 6.320265 0
M  V30 32 H 7.100044 -4.182105 4.673283 0
M  V30 33 H 6.146848 -4.879115 5.996637 0
M  V30 34 H 6.779458 -2.002969 7.576889 0
M  V30 35 H 5.332501 0.037118 7.547240 0
M  V30 36 H 3.759292 0.297211 5.750074 0
M  V30 37 H 2.432705 0.505833 4.224722 0
M  V30 38 H 0.870978 0.693727 2.377246 0
M  V30 39 H -1.021799 -0.409045 1.829350 0
M  V30 40 H -2.713299 -0.071775 0.140898 0
M  V30 41 H -3.815378 -0.233875 -4.867461 0
M  V30 42 H -6.125854 0.456876 -4.979726 0
M  V30 43 H -6.362817 -0.317954 -3.387910 0
M  V30 44 H -5.102032 2.125353 -2.652684 0
M  V30 45 H -7.354652 3.143734 -2.308422 0
M  V30 46 H -8.173129 1.848691 -3.360541 0
M  V30 47 H -5.924923 3.905700 -4.197296 0
M  V30 48 H -6.682399 2.638984 -5.306257 0
M  V30 49 H 0.552263 -1.426679 -3.809332 0
M  V30 50 H 1.733824 -1.526507 -1.238542 0
M  V30 51 H 3.857341 -3.199828 2.724368 0
M  V30 END ATOM
M  V30 BEGIN BOND
M  V30 1 1 1 2
M  V30 2 2 2 3
M  V30 3 1 3 4
M  V30 4 2 4 5
M  V30 5 1 5 6
M  V30 6 1 6 7
M  V30 7 2 7 8
M  V30 8 1 8 9
M  V30 9 2 9 10
M  V30 10 1 10 11
M  V30 11 2 11 12
M  V30 12 1 12 13
M  V30 13 2 13 14
M  V30 14 1 14 15
M  V30 15 1 15 16
M  V30 16 2 16 17
M  V30 17 1 16 18
M  V30 18 1 18 19
M  V30 19 1 19 20
M  V30 20 1 20 21
M  V30 21 1 21 22
M  V30 22 2 15 23
M  V30 23 1 23 24
M  V30 24 1 24 25
M  V30 25 2 25 26
M  V30 26 1 10 27
M  V30 27 1 27 28
M  V30 28 2 27 29
M  V30 29 2 6 30
M  V30 30 1 30 2
M  V30 31 1 29 7
M  V30 32 1 26 11
M  V30 33 1 25 14
M  V30 34 1 22 20
M  V30 35 1 1 31
M  V30 36 1 1 32
M  V30 37 1 1 33
M  V30 38 1 3 34
M  V30 39 1 4 35
M  V30 40 1 5 36
M  V30 41 1 8 37
M  V30 42 1 9 38
M  V30 43 1 12 39
M  V30 44 1 13 40
M  V30 45 1 18 41
M  V30 46 1 19 42
M  V30 47 1 19 43
M  V30 48 1 20 44
M  V30 49 1 21 45
M  V30 50 1 21 46
M  V30 51 1 22 47
M  V30 52 1 22 48
M  V30 53 1 24 49
M  V30 54 1 26 50
M  V30 55 1 29 51
M  V30 END BOND
M  V30 END CTAB
M  END
>  <Dataset>  (128) 
ChEMBL_Kinases

>  <Ligand_Instance>  (128) 
nan

>  <PDB_ID>  (128) 
nan

>  <Standardized_SMILES>  (128) 
Cc1cccc(-c2ccc(-c3ccc4c(C(=O)NCC5CC5)n[nH]c4c3)c(Cl)c2)n1

>  <Name>  (128) 
nan

>  <Pocket>  (128) 
nan

>  <ATP_Site>  (128) 
nan

>  <Peripheral>  (128) 
nan

>  <Num_H_Atoms_ProtBoundConf>  (128) 
nan

>  <Num_Resolved_Atoms>  (128) 
nan

>  <Num_Not_Resolved_Atoms>  (128) 
nan

$$$$
CHEMBL4789586
     RDKit          3D

  0  0  0  0  0  0  0  0  0  0999 V3000
M  V30 BEGIN CTAB
M  V30 COUNTS 41 44 0 0 0
M  V30 BEGIN ATOM
M  V30 1 C 1.962896 -3.520188 2.459144 0
M  V30 2 O 3.231604 -3.570089 1.829069 0
M  V30 3 C 3.437110 -2.884587 0.617603 0
M  V30 4 C 4.713815 -2.984473 0.062974 0
M  V30 5 C 4.903549 -2.305333 -1.129491 0
M  V30 6 C 3.859905 -1.592361 -1.685911 0
M  V30 7 C 2.605976 -1.511728 -1.113231 0
M  V30 8 N 1.584411 -0.755133 -1.751811 0
M  V30 9 N 1.590544 -0.398534 -3.023169 0
M  V30 10 C 0.507022 0.301753 -3.339713 0
M  V30 11 C -0.257986 0.408144 -2.193026 0
M  V30 12 C -1.468419 1.019915 -1.944460 0
M  V30 13 N -1.982666 0.952394 -0.682718 0
M  V30 14 C -1.303126 0.291169 0.299812 0
M  V30 15 C -1.920616 0.261419 1.633634 0
M  V30 16 C -2.761885 -0.817754 1.849160 0
M  V30 17 F -3.004673 -1.775699 0.914428 0
M  V30 18 C -3.426438 -1.007008 3.042151 0
M  V30 19 C -3.233910 -0.067949 4.060055 0
M  V30 20 C -2.398488 1.005368 3.848555 0
M  V30 21 C -1.742436 1.189661 2.666914 0
M  V30 22 O -0.876202 2.219179 2.319034 0
M  V30 23 C -0.641856 3.203244 3.312886 0
M  V30 24 C -0.087292 -0.324244 0.053378 0
M  V30 25 C 0.449607 -0.267036 -1.217049 0
M  V30 26 N 2.454488 -2.172475 0.028410 0
M  V30 27 H 2.145477 -3.311215 3.526856 0
M  V30 28 H 1.523172 -4.540789 2.395619 0
M  V30 29 H 1.319672 -2.773092 1.983774 0
M  V30 30 H 5.487383 -3.546158 0.528541 0
M  V30 31 H 5.889975 -2.368948 -1.579724 0
M  V30 32 H 4.089033 -1.094084 -2.611120 0
M  V30 33 H 0.239008 0.729995 -4.318518 0
M  V30 34 H -2.015016 1.547257 -2.718796 0
M  V30 35 H -4.081452 -1.813550 3.261929 0
M  V30 36 H -3.734367 -0.167902 5.024108 0
M  V30 37 H -2.216926 1.747078 4.586653 0
M  V30 38 H -1.583744 3.528486 3.819684 0
M  V30 39 H 0.029812 2.844353 4.118687 0
M  V30 40 H -0.168920 4.061879 2.795679 0
M  V30 41 H 0.434795 -0.837018 0.825077 0
M  V30 END ATOM
M  V30 BEGIN BOND
M  V30 1 1 1 2
M  V30 2 1 2 3
M  V30 3 2 3 4
M  V30 4 1 4 5
M  V30 5 2 5 6
M  V30 6 1 6 7
M  V30 7 1 7 8
M  V30 8 1 8 9
M  V30 9 2 9 10
M  V30 10 1 10 11
M  V30 11 2 11 12
M  V30 12 1 12 13
M  V30 13 2 13 14
M  V30 14 1 14 15
M  V30 15 2 15 16
M  V30 16 1 16 17
M  V30 17 1 16 18
M  V30 18 2 18 19
M  V30 19 1 19 20
M  V30 20 2 20 21
M  V30 21 1 21 22
M  V30 22 1 22 23
M  V30 23 1 14 24
M  V30 24 2 24 25
M  V30 25 2 7 26
M  V30 26 1 26 3
M  V30 27 1 25 8
M  V30 28 1 25 11
M  V30 29 1 21 15
M  V30 30 1 1 27
M  V30 31 1 1 28
M  V30 32 1 1 29
M  V30 33 1 4 30
M  V30 34 1 5 31
M  V30 35 1 6 32
M  V30 36 1 10 33
M  V30 37 1 12 34
M  V30 38 1 18 35
M  V30 39 1 19 36
M  V30 40 1 20 37
M  V30 41 1 23 38
M  V30 42 1 23 39
M  V30 43 1 23 40
M  V30 44 1 24 41
M  V30 END BOND
M  V30 END CTAB
M  END
>  <Dataset>  (129) 
ChEMBL_Kinases

>  <Ligand_Instance>  (129) 
nan

>  <PDB_ID>  (129) 
nan

>  <Standardized_SMILES>  (129) 
COc1cccc(-n2ncc3cnc(-c4c(F)cccc4OC)cc32)n1

>  <Name>  (129) 
nan

>  <Pocket>  (129) 
nan

>  <ATP_Site>  (129) 
nan

>  <Peripheral>  (129) 
nan

>  <Num_H_Atoms_ProtBoundConf>  (129) 
nan

>  <Num_Resolved_Atoms>  (129) 
nan

>  <Num_Not_Resolved_Atoms>  (129) 
nan

$$$$
CHEMBL4789588
     RDKit          3D

  0  0  0  0  0  0  0  0  0  0999 V3000
M  V30 BEGIN CTAB
M  V30 COUNTS 46 49 0 0 0
M  V30 BEGIN ATOM
M  V30 1 O 3.289615 -0.522849 4.827208 0
M  V30 2 C 2.694527 -0.664146 3.711985 0
M  V30 3 N 3.163332 -1.300833 2.575307 0
M  V30 4 C 2.416069 -1.333201 1.560739 0
M  V30 5 N 2.706798 -1.932259 0.310654 0
M  V30 6 C 4.042978 -1.993838 -0.206558 0
M  V30 7 C 4.530605 -0.609339 -0.569424 0
M  V30 8 C 3.749208 0.160564 -1.611904 0
M  V30 9 O 3.729039 -0.539251 -2.838739 0
M  V30 10 C 5.376761 0.094815 0.428993 0
M  V30 11 C 6.034624 -0.501416 -0.779380 0
M  V30 12 S 0.863411 -0.465061 1.909263 0
M  V30 13 C 1.361872 -0.088539 3.616687 0
M  V30 14 C 0.518559 0.559657 4.398786 0
M  V30 15 C -0.800297 1.016475 3.966627 0
M  V30 16 C -1.451208 2.222014 4.411514 0
M  V30 17 S -3.073127 2.142815 3.432748 0
M  V30 18 C -2.544407 0.569871 2.668160 0
M  V30 19 C -3.502215 -0.097405 1.664533 0
M  V30 20 C -4.714715 0.488542 1.391092 0
M  V30 21 C -5.519577 -0.163251 0.467610 0
M  V30 22 C -5.066821 -1.340381 -0.113153 0
M  V30 23 O -5.769895 -2.089105 -1.047489 0
M  V30 24 C -5.621917 -1.834259 -2.445702 0
M  V30 25 F -4.314052 -2.002501 -2.849341 0
M  V30 26 F -6.366155 -2.763826 -3.151088 0
M  V30 27 F -6.136021 -0.607727 -2.766383 0
M  V30 28 C -3.826783 -1.873644 0.213845 0
M  V30 29 C -2.987806 -1.244857 1.140316 0
M  V30 30 N -1.511501 0.334586 3.098485 0
M  V30 31 H 1.897427 -2.337485 -0.238902 0
M  V30 32 H 4.030221 -2.587823 -1.161912 0
M  V30 33 H 4.765835 -2.476241 0.470474 0
M  V30 34 H 2.710492 0.353041 -1.341087 0
M  V30 35 H 4.228964 1.130921 -1.847278 0
M  V30 36 H 2.881081 -1.047257 -2.942856 0
M  V30 37 H 5.281068 1.197877 0.498883 0
M  V30 38 H 5.589748 -0.450699 1.384163 0
M  V30 39 H 6.634189 -1.423428 -0.711653 0
M  V30 40 H 6.431771 0.241811 -1.487539 0
M  V30 41 H 0.938721 0.705917 5.407015 0
M  V30 42 H -0.788306 2.875530 5.232046 0
M  V30 43 H -5.032076 1.399031 1.860819 0
M  V30 44 H -6.479302 0.202100 0.180454 0
M  V30 45 H -3.446120 -2.802847 -0.231931 0
M  V30 46 H -2.026318 -1.648567 1.401816 0
M  V30 END ATOM
M  V30 BEGIN BOND
M  V30 1 2 1 2
M  V30 2 1 2 3
M  V30 3 2 3 4
M  V30 4 1 4 5
M  V30 5 1 5 6
M  V30 6 1 6 7
M  V30 7 1 7 8
M  V30 8 1 8 9
M  V30 9 1 7 10
M  V30 10 1 10 11
M  V30 11 1 4 12
M  V30 12 1 12 13
M  V30 13 2 13 14
M  V30 14 1 14 15
M  V30 15 2 15 16
M  V30 16 1 16 17
M  V30 17 1 17 18
M  V30 18 1 18 19
M  V30 19 2 19 20
M  V30 20 1 20 21
M  V30 21 2 21 22
M  V30 22 1 22 23
M  V30 23 1 23 24
M  V30 24 1 24 25
M  V30 25 1 24 26
M  V30 26 1 24 27
M  V30 27 1 22 28
M  V30 28 2 28 29
M  V30 29 2 18 30
M  V30 30 1 13 2
M  V30 31 1 30 15
M  V30 32 1 11 7
M  V30 33 1 29 19
M  V30 34 1 5 31
M  V30 35 1 6 32
M  V30 36 1 6 33
M  V30 37 1 8 34
M  V30 38 1 8 35
M  V30 39 1 9 36
M  V30 40 1 10 37
M  V30 41 1 10 38
M  V30 42 1 11 39
M  V30 43 1 11 40
M  V30 44 1 14 41
M  V30 45 1 16 42
M  V30 46 1 20 43
M  V30 47 1 21 44
M  V30 48 1 28 45
M  V30 49 1 29 46
M  V30 END BOND
M  V30 END CTAB
M  END
>  <Dataset>  (130) 
ChEMBL_Kinases

>  <Ligand_Instance>  (130) 
nan

>  <PDB_ID>  (130) 
nan

>  <Standardized_SMILES>  (130) 
O=C1N=C(NCC2(CO)CC2)S/C1=C\c1csc(-c2ccc(OC(F)(F)F)cc2)n1

>  <Name>  (130) 
nan

>  <Pocket>  (130) 
nan

>  <ATP_Site>  (130) 
nan

>  <Peripheral>  (130) 
nan

>  <Num_H_Atoms_ProtBoundConf>  (130) 
nan

>  <Num_Resolved_Atoms>  (130) 
nan

>  <Num_Not_Resolved_Atoms>  (130) 
nan

$$$$
CHEMBL4789600
     RDKit          3D

  0  0  0  0  0  0  0  0  0  0999 V3000
M  V30 BEGIN CTAB
M  V30 COUNTS 40 43 0 0 0
M  V30 BEGIN ATOM
M  V30 1 C 2.328902 -4.610189 2.295411 0
M  V30 2 C 1.019094 -3.895368 2.364557 0
M  V30 3 O 0.676687 -3.593363 3.677037 0
M  V30 4 C 1.138205 -2.690506 1.540826 0
M  V30 5 C 1.225721 -1.692107 0.863350 0
M  V30 6 C 1.318343 -0.493308 0.066283 0
M  V30 7 C 2.116934 -0.482485 -1.064500 0
M  V30 8 C 2.248468 0.647650 -1.878056 0
M  V30 9 C 1.553606 1.810969 -1.546299 0
M  V30 10 N 1.653252 2.921706 -2.298022 0
M  V30 11 C 0.983191 4.038892 -1.969385 0
M  V30 12 O 1.055090 5.208095 -2.713768 0
M  V30 13 C 0.200389 3.981347 -0.835833 0
M  V30 14 C 0.050035 2.861096 -0.007885 0
M  V30 15 C -0.840327 3.009771 1.136905 0
M  V30 16 C -0.692223 4.121267 1.973884 0
M  V30 17 N -1.624948 4.044540 2.947975 0
M  V30 18 N -2.354688 2.952031 2.778534 0
M  V30 19 C -1.895462 2.312927 1.688066 0
M  V30 20 C 0.770629 1.754224 -0.412373 0
M  V30 21 C 0.629646 0.650842 0.400076 0
M  V30 22 C -0.032300 -4.822624 1.732633 0
M  V30 23 N -0.531800 -5.090025 0.721184 0
M  V30 24 C -1.465097 -5.998437 0.522082 0
M  V30 25 C -1.896646 -6.702412 1.604367 0
M  V30 26 S -0.874428 -5.976496 2.935217 0
M  V30 27 H 2.916187 -4.319215 1.426414 0
M  V30 28 H 2.153882 -5.693889 2.393438 0
M  V30 29 H 2.897862 -4.316809 3.221302 0
M  V30 30 H -0.292955 -3.339824 3.641103 0
M  V30 31 H 2.677745 -1.367526 -1.362336 0
M  V30 32 H 2.878408 0.619963 -2.749764 0
M  V30 33 H 0.495172 5.421871 -3.520316 0
M  V30 34 H -0.341426 4.906336 -0.582029 0
M  V30 35 H -0.036084 4.975773 2.010780 0
M  V30 36 H -3.159851 2.548476 3.315155 0
M  V30 37 H -2.227413 1.401759 1.229507 0
M  V30 38 H 0.013392 0.645587 1.278711 0
M  V30 39 H -1.800532 -6.088518 -0.527266 0
M  V30 40 H -2.731179 -7.510465 1.408863 0
M  V30 END ATOM
M  V30 BEGIN BOND
M  V30 1 1 1 2
M  V30 2 1 2 3
M  V30 3 1 2 4
M  V30 4 3 4 5
M  V30 5 1 5 6
M  V30 6 2 6 7
M  V30 7 1 7 8
M  V30 8 2 8 9
M  V30 9 1 9 10
M  V30 10 2 10 11
M  V30 11 1 11 12
M  V30 12 1 11 13
M  V30 13 2 13 14
M  V30 14 1 14 15
M  V30 15 1 15 16
M  V30 16 2 16 17
M  V30 17 1 17 18
M  V30 18 1 18 19
M  V30 19 1 14 20
M  V30 20 2 20 21
M  V30 21 1 2 22
M  V30 22 2 22 23
M  V30 23 1 23 24
M  V30 24 2 24 25
M  V30 25 1 25 26
M  V30 26 1 21 6
M  V30 27 1 26 22
M  V30 28 1 20 9
M  V30 29 2 19 15
M  V30 30 1 1 27
M  V30 31 1 1 28
M  V30 32 1 1 29
M  V30 33 1 3 30
M  V30 34 1 7 31
M  V30 35 1 8 32
M  V30 36 1 12 33
M  V30 37 1 13 34
M  V30 38 1 16 35
M  V30 39 1 18 36
M  V30 40 1 19 37
M  V30 41 1 21 38
M  V30 42 1 24 39
M  V30 43 1 25 40
M  V30 END BOND
M  V30 END CTAB
M  END
>  <Dataset>  (131) 
ChEMBL_Kinases

>  <Ligand_Instance>  (131) 
nan

>  <PDB_ID>  (131) 
nan

>  <Standardized_SMILES>  (131) 
CC(O)(C#Cc1ccc2nc(O)cc(-c3cn[nH]c3)c2c1)c1nccs1

>  <Name>  (131) 
nan

>  <Pocket>  (131) 
nan

>  <ATP_Site>  (131) 
nan

>  <Peripheral>  (131) 
nan

>  <Num_H_Atoms_ProtBoundConf>  (131) 
nan

>  <Num_Resolved_Atoms>  (131) 
nan

>  <Num_Not_Resolved_Atoms>  (131) 
nan

$$$$
CHEMBL4789605
     RDKit          3D

  0  0  0  0  0  0  0  0  0  0999 V3000
M  V30 BEGIN CTAB
M  V30 COUNTS 40 43 0 0 0
M  V30 BEGIN ATOM
M  V30 1 C 0.977547 -0.075390 6.890305 0
M  V30 2 C 1.553118 -1.349824 6.261295 0
M  V30 3 O 1.304646 -1.265407 4.897144 0
M  V30 4 C 1.630314 -2.165386 3.912838 0
M  V30 5 O 2.233787 -3.212671 4.267772 0
M  V30 6 C 1.255711 -1.844513 2.536261 0
M  V30 7 N 0.603993 -0.694193 2.220921 0
M  V30 8 N 0.275231 -0.425433 0.967762 0
M  V30 9 C 0.563193 -1.265922 -0.059694 0
M  V30 10 C 0.293088 -1.135525 -1.406755 0
M  V30 11 C -0.322550 -0.190826 -2.203037 0
M  V30 12 C -0.825413 0.976590 -1.463734 0
M  V30 13 C 0.085214 2.018629 -1.338706 0
M  V30 14 C -0.284650 3.168963 -0.659667 0
M  V30 15 C -1.546226 3.325710 -0.090626 0
M  V30 16 C -2.379762 2.264903 -0.254689 0
M  V30 17 C -2.089056 1.095720 -0.911327 0
M  V30 18 Cl -3.173727 -0.253460 -1.110328 0
M  V30 19 C -0.429503 -0.375451 -3.566081 0
M  V30 20 C -1.080196 0.648249 -4.319173 0
M  V30 21 N -1.602565 1.466151 -4.924113 0
M  V30 22 C 0.102358 -1.536188 -4.088305 0
M  V30 23 O -0.008025 -1.680328 -5.332112 0
M  V30 24 N 0.698416 -2.445361 -3.298107 0
M  V30 25 C 0.825919 -2.305330 -1.954331 0
M  V30 26 N 1.360716 -3.040499 -0.962358 0
M  V30 27 N 1.208491 -2.420217 0.198775 0
M  V30 28 C 1.541904 -2.689791 1.480165 0
M  V30 29 O 2.203901 -3.880729 1.721524 0
M  V30 30 H 1.420548 0.135278 7.867106 0
M  V30 31 H 1.064791 0.757649 6.166747 0
M  V30 32 H -0.124738 -0.288217 6.961113 0
M  V30 33 H 1.060505 -2.233224 6.695659 0
M  V30 34 H 2.618321 -1.349389 6.561861 0
M  V30 35 H 1.079187 2.003593 -1.736740 0
M  V30 36 H 0.427860 3.992938 -0.557824 0
M  V30 37 H -1.867558 4.199300 0.440962 0
M  V30 38 H -3.375487 2.319543 0.162402 0
M  V30 39 H 1.083336 -3.306472 -3.749989 0
M  V30 40 H 1.840841 -4.791917 1.482913 0
M  V30 END ATOM
M  V30 BEGIN BOND
M  V30 1 1 1 2
M  V30 2 1 2 3
M  V30 3 1 3 4
M  V30 4 2 4 5
M  V30 5 1 4 6
M  V30 6 1 6 7
M  V30 7 2 7 8
M  V30 8 1 8 9
M  V30 9 2 9 10
M  V30 10 1 10 11
M  V30 11 1 11 12
M  V30 12 2 12 13
M  V30 13 1 13 14
M  V30 14 2 14 15
M  V30 15 1 15 16
M  V30 16 2 16 17
M  V30 17 1 17 18
M  V30 18 2 11 19
M  V30 19 1 19 20
M  V30 20 3 20 21
M  V30 21 1 19 22
M  V30 22 2 22 23
M  V30 23 1 22 24
M  V30 24 1 24 25
M  V30 25 2 25 26
M  V30 26 1 26 27
M  V30 27 1 27 28
M  V30 28 1 28 29
M  V30 29 2 28 6
M  V30 30 1 27 9
M  V30 31 1 25 10
M  V30 32 1 17 12
M  V30 33 1 1 30
M  V30 34 1 1 31
M  V30 35 1 1 32
M  V30 36 1 2 33
M  V30 37 1 2 34
M  V30 38 1 13 35
M  V30 39 1 14 36
M  V30 40 1 15 37
M  V30 41 1 16 38
M  V30 42 1 24 39
M  V30 43 1 29 40
M  V30 END BOND
M  V30 END CTAB
M  END
>  <Dataset>  (132) 
ChEMBL_Kinases

>  <Ligand_Instance>  (132) 
nan

>  <PDB_ID>  (132) 
nan

>  <Standardized_SMILES>  (132) 
CCOC(=O)c1nnc2c3c(-c4ccccc4Cl)c(C#N)c(=O)[nH]c3nn2c1O

>  <Name>  (132) 
nan

>  <Pocket>  (132) 
nan

>  <ATP_Site>  (132) 
nan

>  <Peripheral>  (132) 
nan

>  <Num_H_Atoms_ProtBoundConf>  (132) 
nan

>  <Num_Resolved_Atoms>  (132) 
nan

>  <Num_Not_Resolved_Atoms>  (132) 
nan

$$$$
CHEMBL4789651
     RDKit          3D

  0  0  0  0  0  0  0  0  0  0999 V3000
M  V30 BEGIN CTAB
M  V30 COUNTS 36 39 0 0 0
M  V30 BEGIN ATOM
M  V30 1 O 4.997953 0.387305 0.403792 0
M  V30 2 C 3.881367 -0.210317 0.311395 0
M  V30 3 N 3.905933 -1.589524 0.511316 0
M  V30 4 C 2.774459 -2.184943 0.416142 0
M  V30 5 N 2.562996 -3.586590 0.581617 0
M  V30 6 C 3.374311 -4.339337 1.513352 0
M  V30 7 C 3.099871 -5.847981 1.645194 0
M  V30 8 C 2.666861 -4.922154 2.736847 0
M  V30 9 S 1.463301 -0.988591 0.038775 0
M  V30 10 C 2.598074 0.414886 0.018717 0
M  V30 11 C 2.358203 1.672032 -0.198786 0
M  V30 12 C 0.943749 2.020576 -0.472607 0
M  V30 13 C 0.456152 2.975173 -1.357809 0
M  V30 14 C -0.923442 2.946916 -1.275889 0
M  V30 15 C -1.226942 1.977098 -0.344728 0
M  V30 16 C -2.590402 1.592108 0.074487 0
M  V30 17 C -3.686697 2.222856 -0.481860 0
M  V30 18 C -4.980097 1.885022 -0.109468 0
M  V30 19 C -5.086123 0.889014 0.841680 0
M  V30 20 C -4.025858 0.241824 1.414984 0
M  V30 21 Cl -4.240872 -1.015319 2.618585 0
M  V30 22 C -2.729183 0.596094 1.026871 0
M  V30 23 O -0.095411 1.458692 0.101406 0
M  V30 24 H 1.811796 -4.071770 0.021141 0
M  V30 25 H 4.433297 -4.059707 1.689602 0
M  V30 26 H 3.970579 -6.508679 1.872338 0
M  V30 27 H 2.358845 -6.234323 0.924640 0
M  V30 28 H 3.207244 -4.945626 3.706351 0
M  V30 29 H 1.596707 -4.668305 2.804890 0
M  V30 30 H 3.143472 2.423128 -0.181528 0
M  V30 31 H 1.055922 3.614052 -1.987094 0
M  V30 32 H -1.610441 3.581095 -1.849312 0
M  V30 33 H -3.493911 2.990593 -1.219519 0
M  V30 34 H -5.807872 2.398146 -0.564569 0
M  V30 35 H -6.106076 0.630786 1.127719 0
M  V30 36 H -1.844099 0.128896 1.436310 0
M  V30 END ATOM
M  V30 BEGIN BOND
M  V30 1 2 1 2
M  V30 2 1 2 3
M  V30 3 2 3 4
M  V30 4 1 4 5
M  V30 5 1 5 6
M  V30 6 1 6 7
M  V30 7 1 7 8
M  V30 8 1 4 9
M  V30 9 1 9 10
M  V30 10 2 10 11
M  V30 11 1 11 12
M  V30 12 2 12 13
M  V30 13 1 13 14
M  V30 14 2 14 15
M  V30 15 1 15 16
M  V30 16 2 16 17
M  V30 17 1 17 18
M  V30 18 2 18 19
M  V30 19 1 19 20
M  V30 20 1 20 21
M  V30 21 2 20 22
M  V30 22 1 15 23
M  V30 23 1 10 2
M  V30 24 1 23 12
M  V30 25 1 8 6
M  V30 26 1 22 16
M  V30 27 1 5 24
M  V30 28 1 6 25
M  V30 29 1 7 26
M  V30 30 1 7 27
M  V30 31 1 8 28
M  V30 32 1 8 29
M  V30 33 1 11 30
M  V30 34 1 13 31
M  V30 35 1 14 32
M  V30 36 1 17 33
M  V30 37 1 18 34
M  V30 38 1 19 35
M  V30 39 1 22 36
M  V30 END BOND
M  V30 END CTAB
M  END
>  <Dataset>  (133) 
ChEMBL_Kinases

>  <Ligand_Instance>  (133) 
nan

>  <PDB_ID>  (133) 
nan

>  <Standardized_SMILES>  (133) 
O=C1N=C(NC2CC2)S/C1=C\c1ccc(-c2cccc(Cl)c2)o1

>  <Name>  (133) 
nan

>  <Pocket>  (133) 
nan

>  <ATP_Site>  (133) 
nan

>  <Peripheral>  (133) 
nan

>  <Num_H_Atoms_ProtBoundConf>  (133) 
nan

>  <Num_Resolved_Atoms>  (133) 
nan

>  <Num_Not_Resolved_Atoms>  (133) 
nan

$$$$
CHEMBL4789685
     RDKit          3D

  0  0  0  0  0  0  0  0  0  0999 V3000
M  V30 BEGIN CTAB
M  V30 COUNTS 34 36 0 0 0
M  V30 BEGIN ATOM
M  V30 1 C -0.414989 -5.360300 3.329090 0
M  V30 2 S 0.497807 -4.097782 4.262868 0
M  V30 3 C 1.582398 -3.277662 3.074125 0
M  V30 4 C 2.876563 -3.739829 2.835982 0
M  V30 5 C 3.654628 -3.071443 1.916049 0
M  V30 6 C 3.167211 -1.970482 1.244786 0
M  V30 7 C 1.891044 -1.493101 1.461356 0
M  V30 8 C 1.316784 -0.352578 0.797048 0
M  V30 9 C 1.867103 0.466264 -0.138381 0
M  V30 10 C 1.131712 1.502200 -0.641771 0
M  V30 11 N 1.426841 2.440237 -1.554995 0
M  V30 12 C 0.564729 3.372991 -1.913786 0
M  V30 13 N -0.682613 3.534258 -1.453899 0
M  V30 14 C -1.083447 2.645857 -0.531521 0
M  V30 15 S -2.654892 2.589530 0.259420 0
M  V30 16 C -3.887023 1.598873 -0.588059 0
M  V30 17 C -4.293094 2.144984 -1.896389 0
M  V30 18 O -5.168886 1.356249 -2.392725 0
M  V30 19 O -4.109610 3.170837 -2.809983 0
M  V30 20 C -0.161134 1.639210 -0.140496 0
M  V30 21 S -0.312872 0.271736 1.057350 0
M  V30 22 C 1.140920 -2.174087 2.378608 0
M  V30 23 H 0.178682 -5.676683 2.425746 0
M  V30 24 H -1.335315 -4.883875 2.932410 0
M  V30 25 H -0.592096 -6.272804 3.900536 0
M  V30 26 H 3.188673 -4.602752 3.395358 0
M  V30 27 H 4.666354 -3.430927 1.728362 0
M  V30 28 H 3.764594 -1.427692 0.514058 0
M  V30 29 H 2.890371 0.275961 -0.467544 0
M  V30 30 H 0.924769 4.087595 -2.673124 0
M  V30 31 H -4.756335 1.491714 0.078247 0
M  V30 32 H -3.495845 0.558920 -0.743238 0
M  V30 33 H -3.917764 2.978735 -3.770744 0
M  V30 34 H 0.133126 -1.837639 2.583497 0
M  V30 END ATOM
M  V30 BEGIN BOND
M  V30 1 1 1 2
M  V30 2 1 2 3
M  V30 3 2 3 4
M  V30 4 1 4 5
M  V30 5 2 5 6
M  V30 6 1 6 7
M  V30 7 1 7 8
M  V30 8 2 8 9
M  V30 9 1 9 10
M  V30 10 2 10 11
M  V30 11 1 11 12
M  V30 12 2 12 13
M  V30 13 1 13 14
M  V30 14 1 14 15
M  V30 15 1 15 16
M  V30 16 1 16 17
M  V30 17 2 17 18
M  V30 18 1 17 19
M  V30 19 2 14 20
M  V30 20 1 20 21
M  V30 21 2 7 22
M  V30 22 1 22 3
M  V30 23 1 21 8
M  V30 24 1 20 10
M  V30 25 1 1 23
M  V30 26 1 1 24
M  V30 27 1 1 25
M  V30 28 1 4 26
M  V30 29 1 5 27
M  V30 30 1 6 28
M  V30 31 1 9 29
M  V30 32 1 12 30
M  V30 33 1 16 31
M  V30 34 1 16 32
M  V30 35 1 19 33
M  V30 36 1 22 34
M  V30 END BOND
M  V30 END CTAB
M  END
>  <Dataset>  (134) 
ChEMBL_Kinases

>  <Ligand_Instance>  (134) 
nan

>  <PDB_ID>  (134) 
nan

>  <Standardized_SMILES>  (134) 
CSc1cccc(-c2cc3ncnc(SCC(=O)O)c3s2)c1

>  <Name>  (134) 
nan

>  <Pocket>  (134) 
nan

>  <ATP_Site>  (134) 
nan

>  <Peripheral>  (134) 
nan

>  <Num_H_Atoms_ProtBoundConf>  (134) 
nan

>  <Num_Resolved_Atoms>  (134) 
nan

>  <Num_Not_Resolved_Atoms>  (134) 
nan

$$$$
CHEMBL4789709
     RDKit          3D

  0  0  0  0  0  0  0  0  0  0999 V3000
M  V30 BEGIN CTAB
M  V30 COUNTS 42 45 0 0 0
M  V30 BEGIN ATOM
M  V30 1 O 0.370864 -3.332240 -0.454497 0
M  V30 2 C 1.420001 -2.666206 -0.252448 0
M  V30 3 C 2.572432 -2.948572 0.590949 0
M  V30 4 C 3.836343 -3.094786 0.072612 0
M  V30 5 C 4.869090 -3.361306 0.943023 0
M  V30 6 C 4.586230 -3.468522 2.290305 0
M  V30 7 Cl 5.952800 -3.808763 3.332094 0
M  V30 8 C 3.307455 -3.322070 2.827521 0
M  V30 9 C 2.276725 -3.055426 1.953873 0
M  V30 10 N 1.289783 -1.490811 -1.048263 0
M  V30 11 C 0.103228 -1.311635 -1.846633 0
M  V30 12 C -0.821130 -0.258912 -1.216913 0
M  V30 13 C 0.067589 0.511359 -0.259607 0
M  V30 14 N -0.604880 1.515434 0.501406 0
M  V30 15 C -1.619578 1.067529 1.417820 0
M  V30 16 N -1.884996 -0.264651 1.533594 0
M  V30 17 C -2.814195 -0.767975 2.362454 0
M  V30 18 N -3.510910 0.092123 3.109448 0
M  V30 19 C -3.287853 1.415791 3.032621 0
M  V30 20 N -3.845747 2.463919 3.666730 0
M  V30 21 N -3.286938 3.609066 3.253387 0
M  V30 22 C -2.338342 3.295447 2.323900 0
M  V30 23 C -2.337097 1.940062 2.185985 0
M  V30 24 C 1.236839 0.956363 -1.064811 0
M  V30 25 C 2.095129 -0.296588 -1.306378 0
M  V30 26 H 3.993035 -2.998255 -0.996681 0
M  V30 27 H 5.844067 -3.472229 0.521427 0
M  V30 28 H 3.133459 -3.414608 3.887430 0
M  V30 29 H 1.293407 -2.943995 2.372608 0
M  V30 30 H 0.310860 -1.107173 -2.912557 0
M  V30 31 H -0.499261 -2.258338 -1.841991 0
M  V30 32 H -1.063600 0.449196 -2.064958 0
M  V30 33 H -1.711411 -0.691932 -0.773651 0
M  V30 34 H 0.466285 -0.268858 0.462362 0
M  V30 35 H -0.427621 2.534391 0.450991 0
M  V30 36 H -2.958213 -1.848984 2.388961 0
M  V30 37 H -4.608586 2.355887 4.378725 0
M  V30 38 H -1.675820 3.955960 1.763886 0
M  V30 39 H 1.818084 1.783772 -0.647551 0
M  V30 40 H 0.895614 1.265435 -2.093236 0
M  V30 41 H 2.545790 -0.315818 -2.296424 0
M  V30 42 H 2.875961 -0.235629 -0.515800 0
M  V30 END ATOM
M  V30 BEGIN BOND
M  V30 1 2 1 2
M  V30 2 1 2 3
M  V30 3 2 3 4
M  V30 4 1 4 5
M  V30 5 2 5 6
M  V30 6 1 6 7
M  V30 7 1 6 8
M  V30 8 2 8 9
M  V30 9 1 2 10
M  V30 10 1 10 11
M  V30 11 1 11 12
M  V30 12 1 12 13
M  V30 13 1 13 14
M  V30 14 1 14 15
M  V30 15 2 15 16
M  V30 16 1 16 17
M  V30 17 2 17 18
M  V30 18 1 18 19
M  V30 19 1 19 20
M  V30 20 1 20 21
M  V30 21 2 21 22
M  V30 22 1 22 23
M  V30 23 1 13 24
M  V30 24 1 24 25
M  V30 25 1 9 3
M  V30 26 1 25 10
M  V30 27 1 23 15
M  V30 28 2 23 19
M  V30 29 1 4 26
M  V30 30 1 5 27
M  V30 31 1 8 28
M  V30 32 1 9 29
M  V30 33 1 11 30
M  V30 34 1 11 31
M  V30 35 1 12 32
M  V30 36 1 12 33
M  V30 37 1 13 34
M  V30 38 1 14 35
M  V30 39 1 17 36
M  V30 40 1 20 37
M  V30 41 1 22 38
M  V30 42 1 24 39
M  V30 43 1 24 40
M  V30 44 1 25 41
M  V30 45 1 25 42
M  V30 END BOND
M  V30 END CTAB
M  END
>  <Dataset>  (135) 
ChEMBL_Kinases

>  <Ligand_Instance>  (135) 
nan

>  <PDB_ID>  (135) 
nan

>  <Standardized_SMILES>  (135) 
O=C(c1ccc(Cl)cc1)N1CCC(Nc2ncnc3[nH]ncc23)CC1

>  <Name>  (135) 
nan

>  <Pocket>  (135) 
nan

>  <ATP_Site>  (135) 
nan

>  <Peripheral>  (135) 
nan

>  <Num_H_Atoms_ProtBoundConf>  (135) 
nan

>  <Num_Resolved_Atoms>  (135) 
nan

>  <Num_Not_Resolved_Atoms>  (135) 
nan

$$$$
CHEMBL4160425
     RDKit          3D

  0  0  0  0  0  0  0  0  0  0999 V3000
M  V30 BEGIN CTAB
M  V30 COUNTS 48 51 0 0 0
M  V30 BEGIN ATOM
M  V30 1 C 0.003423 -6.522317 1.571163 0
M  V30 2 O -1.355629 -6.469427 1.246851 0
M  V30 3 C -2.056855 -5.389415 0.784358 0
M  V30 4 C -1.456756 -4.153253 0.574569 0
M  V30 5 C -2.185223 -3.079835 0.107663 0
M  V30 6 C -1.634800 -1.753158 -0.137855 0
M  V30 7 C -0.599360 -1.363381 0.685403 0
M  V30 8 N -0.083641 -0.143154 0.469403 0
M  V30 9 C -0.499556 0.709570 -0.477016 0
M  V30 10 C 0.004170 1.936305 -0.709215 0
M  V30 11 N 1.064108 2.632632 -0.045290 0
M  V30 12 C 1.482276 3.942131 -0.424224 0
M  V30 13 C 2.989053 4.034572 -0.206608 0
M  V30 14 C 3.268237 4.158958 1.288777 0
M  V30 15 C 2.343335 3.186425 1.973379 0
M  V30 16 C 3.101797 2.457166 3.048422 0
M  V30 17 N 3.663771 3.275738 4.083790 0
M  V30 18 O 3.276118 1.201112 3.104237 0
M  V30 19 C 1.812632 2.112373 1.052817 0
M  V30 20 S -0.863714 2.643932 -2.030487 0
M  V30 21 N -1.988012 1.163157 -2.279192 0
M  V30 22 C -1.530253 0.328564 -1.300811 0
M  V30 23 C -2.100828 -0.914650 -1.127008 0
M  V30 24 C -3.539720 -3.283760 -0.143880 0
M  V30 25 C -4.161534 -4.506171 0.057136 0
M  V30 26 C -3.396674 -5.554168 0.525246 0
M  V30 27 N -4.041299 -6.823208 0.734315 0
M  V30 28 H 0.384690 -7.477657 1.103945 0
M  V30 29 H 0.168721 -6.630303 2.669058 0
M  V30 30 H 0.624837 -5.721471 1.169357 0
M  V30 31 H -0.404683 -4.000788 0.771565 0
M  V30 32 H -0.224338 -2.020742 1.470605 0
M  V30 33 H 0.954696 4.752304 0.153983 0
M  V30 34 H 1.325473 4.132033 -1.509439 0
M  V30 35 H 3.422426 4.901467 -0.739548 0
M  V30 36 H 3.408952 3.058582 -0.525741 0
M  V30 37 H 4.326455 3.886538 1.455735 0
M  V30 38 H 3.050847 5.208837 1.636076 0
M  V30 39 H 1.485691 3.682733 2.468673 0
M  V30 40 H 4.491137 3.927384 4.130498 0
M  V30 41 H 3.353039 3.414591 5.090768 0
M  V30 42 H 2.636863 1.493461 0.664687 0
M  V30 43 H 1.174849 1.460092 1.689857 0
M  V30 44 H -2.897006 -1.332807 -1.687739 0
M  V30 45 H -4.212876 -2.504579 -0.515852 0
M  V30 46 H -5.216189 -4.656183 -0.141028 0
M  V30 47 H -4.699249 -6.866148 1.538297 0
M  V30 48 H -3.925377 -7.701296 0.175025 0
M  V30 END ATOM
M  V30 BEGIN BOND
M  V30 1 1 1 2
M  V30 2 1 2 3
M  V30 3 2 3 4
M  V30 4 1 4 5
M  V30 5 1 5 6
M  V30 6 1 6 7
M  V30 7 2 7 8
M  V30 8 1 8 9
M  V30 9 2 9 10
M  V30 10 1 10 11
M  V30 11 1 11 12
M  V30 12 1 12 13
M  V30 13 1 13 14
M  V30 14 1 14 15
M  V30 15 1 15 16
M  V30 16 1 16 17
M  V30 17 2 16 18
M  V30 18 1 15 19
M  V30 19 1 10 20
M  V30 20 1 20 21
M  V30 21 2 21 22
M  V30 22 1 22 23
M  V30 23 2 5 24
M  V30 24 1 24 25
M  V30 25 2 25 26
M  V30 26 1 26 27
M  V30 27 1 26 3
M  V30 28 2 23 6
M  V30 29 1 22 9
M  V30 30 1 19 11
M  V30 31 1 1 28
M  V30 32 1 1 29
M  V30 33 1 1 30
M  V30 34 1 4 31
M  V30 35 1 7 32
M  V30 36 1 12 33
M  V30 37 1 12 34
M  V30 38 1 13 35
M  V30 39 1 13 36
M  V30 40 1 14 37
M  V30 41 1 14 38
M  V30 42 1 15 39
M  V30 43 1 17 40
M  V30 44 1 17 41
M  V30 45 1 19 42
M  V30 46 1 19 43
M  V30 47 1 23 44
M  V30 48 1 24 45
M  V30 49 1 25 46
M  V30 50 1 27 47
M  V30 51 1 27 48
M  V30 END BOND
M  V30 END CTAB
M  END
>  <Dataset>  (136) 
ChEMBL_Kinases

>  <Ligand_Instance>  (136) 
nan

>  <PDB_ID>  (136) 
nan

>  <Standardized_SMILES>  (136) 
COc1cc(-c2cnc3c(N4CCCC(C(N)=O)C4)snc3c2)ccc1N

>  <Name>  (136) 
nan

>  <Pocket>  (136) 
nan

>  <ATP_Site>  (136) 
nan

>  <Peripheral>  (136) 
nan

>  <Num_H_Atoms_ProtBoundConf>  (136) 
nan

>  <Num_Resolved_Atoms>  (136) 
nan

>  <Num_Not_Resolved_Atoms>  (136) 
nan

$$$$
CHEMBL4160383
     RDKit          3D

  0  0  0  0  0  0  0  0  0  0999 V3000
M  V30 BEGIN CTAB
M  V30 COUNTS 53 57 0 0 0
M  V30 BEGIN ATOM
M  V30 1 C 5.365489 -7.198907 -1.166792 0
M  V30 2 C 5.096545 -5.739279 -1.089854 0
M  V30 3 C 6.137052 -4.829192 -1.171910 0
M  V30 4 C 5.877242 -3.459583 -1.098960 0
M  V30 5 C 4.589900 -2.960317 -0.944045 0
M  V30 6 C 4.337609 -1.529168 -0.869704 0
M  V30 7 N 5.138369 -0.768470 -0.083460 0
M  V30 8 C 4.970962 0.563921 0.039722 0
M  V30 9 S 6.023540 1.577046 1.075738 0
M  V30 10 N 3.977987 1.143623 -0.641600 0
M  V30 11 C 3.137093 0.452914 -1.446405 0
M  V30 12 S 1.834241 1.325753 -2.318526 0
M  V30 13 C 0.342769 1.388921 -1.317356 0
M  V30 14 C -0.825529 1.998622 -1.729770 0
M  V30 15 C -1.952783 2.028078 -0.933798 0
M  V30 16 C -1.905453 1.421798 0.325472 0
M  V30 17 C -3.071907 1.424364 1.209192 0
M  V30 18 N -4.272288 1.988810 0.919272 0
M  V30 19 C -5.133909 1.817619 1.941895 0
M  V30 20 C -6.440138 2.142175 2.245119 0
M  V30 21 C -7.019746 1.794237 3.430261 0
M  V30 22 C -8.397443 2.154257 3.712441 0
M  V30 23 N -9.016085 1.798085 4.944894 0
M  V30 24 O -9.007402 2.796740 2.805839 0
M  V30 25 C -6.302494 1.091976 4.382874 0
M  V30 26 C -4.984078 0.732897 4.144072 0
M  V30 27 C -4.434397 1.109067 2.921484 0
M  V30 28 N -3.189745 0.882112 2.456954 0
M  V30 29 C -0.747743 0.806547 0.757802 0
M  V30 30 C 0.371110 0.788164 -0.055454 0
M  V30 31 C 3.322025 -0.913421 -1.562155 0
M  V30 32 C 2.456901 -1.670029 -2.399612 0
M  V30 33 N 1.752639 -2.260993 -3.077664 0
M  V30 34 C 3.578838 -3.895616 -0.865975 0
M  V30 35 C 3.815105 -5.252688 -0.935980 0
M  V30 36 H 4.378553 -7.728728 -1.167024 0
M  V30 37 H 5.881226 -7.478842 -0.204006 0
M  V30 38 H 5.942656 -7.508476 -2.044390 0
M  V30 39 H 7.129476 -5.238354 -1.292115 0
M  V30 40 H 6.725186 -2.774449 -1.167665 0
M  V30 41 H 7.276418 0.986390 1.288346 0
M  V30 42 H -0.844301 2.467111 -2.716319 0
M  V30 43 H -2.867723 2.512979 -1.272703 0
M  V30 44 H -6.974920 2.687743 1.487909 0
M  V30 45 H -9.450481 0.862299 4.782800 0
M  V30 46 H -9.574773 0.957522 5.280179 0
M  V30 47 H -6.792391 0.829951 5.316070 0
M  V30 48 H -4.405500 0.186660 4.869310 0
M  V30 49 H -2.406358 0.388701 2.913119 0
M  V30 50 H -0.653344 0.315699 1.734506 0
M  V30 51 H 1.277632 0.313085 0.268764 0
M  V30 52 H 2.549481 -3.587152 -0.744917 0
M  V30 53 H 2.970953 -5.956184 -0.868274 0
M  V30 END ATOM
M  V30 BEGIN BOND
M  V30 1 1 1 2
M  V30 2 2 2 3
M  V30 3 1 3 4
M  V30 4 2 4 5
M  V30 5 1 5 6
M  V30 6 2 6 7
M  V30 7 1 7 8
M  V30 8 1 8 9
M  V30 9 2 8 10
M  V30 10 1 10 11
M  V30 11 1 11 12
M  V30 12 1 12 13
M  V30 13 2 13 14
M  V30 14 1 14 15
M  V30 15 2 15 16
M  V30 16 1 16 17
M  V30 17 2 17 18
M  V30 18 1 18 19
M  V30 19 2 19 20
M  V30 20 1 20 21
M  V30 21 1 21 22
M  V30 22 1 22 23
M  V30 23 2 22 24
M  V30 24 2 21 25
M  V30 25 1 25 26
M  V30 26 2 26 27
M  V30 27 1 27 28
M  V30 28 1 16 29
M  V30 29 2 29 30
M  V30 30 2 11 31
M  V30 31 1 31 32
M  V30 32 3 32 33
M  V30 33 1 5 34
M  V30 34 2 34 35
M  V30 35 1 35 2
M  V30 36 1 31 6
M  V30 37 1 30 13
M  V30 38 1 28 17
M  V30 39 1 27 19
M  V30 40 1 1 36
M  V30 41 1 1 37
M  V30 42 1 1 38
M  V30 43 1 3 39
M  V30 44 1 4 40
M  V30 45 1 9 41
M  V30 46 1 14 42
M  V30 47 1 15 43
M  V30 48 1 20 44
M  V30 49 1 23 45
M  V30 50 1 23 46
M  V30 51 1 25 47
M  V30 52 1 26 48
M  V30 53 1 28 49
M  V30 54 1 29 50
M  V30 55 1 30 51
M  V30 56 1 34 52
M  V30 57 1 35 53
M  V30 END BOND
M  V30 END CTAB
M  END
>  <Dataset>  (137) 
ChEMBL_Kinases

>  <Ligand_Instance>  (137) 
nan

>  <PDB_ID>  (137) 
nan

>  <Standardized_SMILES>  (137) 
Cc1ccc(-c2nc(S)nc(Sc3ccc(-c4nc5cc(C(N)=O)ccc5[nH]4)cc3)c2C#N)cc1

>  <Name>  (137) 
nan

>  <Pocket>  (137) 
nan

>  <ATP_Site>  (137) 
nan

>  <Peripheral>  (137) 
nan

>  <Num_H_Atoms_ProtBoundConf>  (137) 
nan

>  <Num_Resolved_Atoms>  (137) 
nan

>  <Num_Not_Resolved_Atoms>  (137) 
nan

$$$$
CHEMBL4207004
     RDKit          3D

  0  0  0  0  0  0  0  0  0  0999 V3000
M  V30 BEGIN CTAB
M  V30 COUNTS 77 82 0 0 0
M  V30 BEGIN ATOM
M  V30 1 C -3.658721 -6.902044 2.114004 0
M  V30 2 N -2.595076 -7.095224 1.126729 0
M  V30 3 C -1.628095 -6.045066 1.024997 0
M  V30 4 N -1.756989 -4.975214 1.827987 0
M  V30 5 C -0.863080 -3.943572 1.772533 0
M  V30 6 C 0.185549 -4.017897 0.869592 0
M  V30 7 C 1.230595 -3.132289 0.594935 0
M  V30 8 C 1.481024 -1.841442 1.230317 0
M  V30 9 C 1.791638 -0.819606 0.355486 0
M  V30 10 C 2.053563 0.463917 0.824232 0
M  V30 11 C 1.981660 0.634004 2.188852 0
M  V30 12 N 2.233984 1.913422 2.750825 0
M  V30 13 C 2.566058 3.142409 2.060002 0
M  V30 14 C 1.603068 4.252406 2.321835 0
M  V30 15 N 0.687085 3.919821 3.400203 0
M  V30 16 C -0.711060 4.164659 3.356422 0
M  V30 17 O -0.788161 4.684067 2.212746 0
M  V30 18 C -2.144401 4.444305 3.246925 0
M  V30 19 C -2.561983 5.086091 1.946079 0
M  V30 20 C -3.005668 3.210356 3.418106 0
M  V30 21 C -2.478779 5.461547 4.341844 0
M  V30 22 C 1.311696 3.302986 4.551060 0
M  V30 23 C 2.182008 2.148633 4.195091 0
M  V30 24 N 1.679419 -0.359493 3.041811 0
M  V30 25 C 1.425279 -1.603176 2.592061 0
M  V30 26 N 1.936506 -3.752325 -0.384977 0
M  V30 27 N 1.375625 -4.913016 -0.684661 0
M  V30 28 C 1.936621 -5.793018 -1.717188 0
M  V30 29 C 1.295708 -5.406838 -3.024190 0
M  V30 30 C 1.774225 -4.460203 -3.906746 0
M  V30 31 N 0.935101 -4.394309 -4.955524 0
M  V30 32 C 1.031698 -3.547098 -6.120695 0
M  V30 33 C 0.343859 -2.250034 -5.934836 0
M  V30 34 C 1.073691 -1.177329 -5.410009 0
M  V30 35 C 0.496482 0.059560 -5.209984 0
M  V30 36 C -0.820745 0.275056 -5.522473 0
M  V30 37 C -1.575970 -0.768376 -6.045910 0
M  V30 38 C -0.957035 -1.989022 -6.229251 0
M  V30 39 N -0.052348 -5.275635 -4.746960 0
M  V30 40 N 0.161096 -5.891590 -3.578806 0
M  V30 41 C 0.279951 -5.136255 0.063134 0
M  V30 42 N -0.609124 -6.144421 0.129986 0
M  V30 43 H -4.050634 -5.869096 1.902390 0
M  V30 44 H -4.427248 -7.677324 2.055693 0
M  V30 45 H -3.244107 -6.853053 3.143304 0
M  V30 46 H -2.507607 -7.936458 0.509891 0
M  V30 47 H -0.990223 -3.097134 2.427938 0
M  V30 48 H 1.844714 -0.971801 -0.731405 0
M  V30 49 H 2.288761 1.224941 0.126697 0
M  V30 50 H 2.699387 3.022031 0.966925 0
M  V30 51 H 3.562623 3.447506 2.496114 0
M  V30 52 H 2.163057 5.181429 2.540536 0
M  V30 53 H 0.963491 4.497284 1.448300 0
M  V30 54 H -2.303613 4.488817 1.047369 0
M  V30 55 H -3.688438 5.146770 2.003080 0
M  V30 56 H -2.239245 6.147367 1.891863 0
M  V30 57 H -4.053295 3.583349 3.531800 0
M  V30 58 H -2.703257 2.660103 4.316154 0
M  V30 59 H -2.902480 2.634126 2.475194 0
M  V30 60 H -3.284219 6.171172 4.006202 0
M  V30 61 H -1.585043 5.997143 4.686319 0
M  V30 62 H -2.926272 4.884786 5.181851 0
M  V30 63 H 0.507761 2.970326 5.229932 0
M  V30 64 H 1.895754 4.130815 5.041872 0
M  V30 65 H 3.207273 2.340637 4.593904 0
M  V30 66 H 1.777728 1.226403 4.648385 0
M  V30 67 H 1.179377 -2.431150 3.229549 0
M  V30 68 H 3.022443 -5.742099 -1.789239 0
M  V30 69 H 1.646128 -6.847896 -1.547875 0
M  V30 70 H 2.676527 -3.875921 -3.764529 0
M  V30 71 H 0.584257 -4.037539 -7.009294 0
M  V30 72 H 2.079257 -3.311532 -6.419775 0
M  V30 73 H 2.120601 -1.282119 -5.142201 0
M  V30 74 H 1.106707 0.875204 -4.795201 0
M  V30 75 H -1.266564 1.256344 -5.360505 0
M  V30 76 H -2.600864 -0.592785 -6.286499 0
M  V30 77 H -1.536954 -2.802383 -6.634649 0
M  V30 END ATOM
M  V30 BEGIN BOND
M  V30 1 1 1 2
M  V30 2 1 2 3
M  V30 3 2 3 4
M  V30 4 1 4 5
M  V30 5 2 5 6
M  V30 6 1 6 7
M  V30 7 1 7 8
M  V30 8 2 8 9
M  V30 9 1 9 10
M  V30 10 2 10 11
M  V30 11 1 11 12
M  V30 12 1 12 13
M  V30 13 1 13 14
M  V30 14 1 14 15
M  V30 15 1 15 16
M  V30 16 2 16 17
M  V30 17 1 16 18
M  V30 18 1 18 19
M  V30 19 1 18 20
M  V30 20 1 18 21
M  V30 21 1 15 22
M  V30 22 1 22 23
M  V30 23 1 11 24
M  V30 24 2 24 25
M  V30 25 2 7 26
M  V30 26 1 26 27
M  V30 27 1 27 28
M  V30 28 1 28 29
M  V30 29 2 29 30
M  V30 30 1 30 31
M  V30 31 1 31 32
M  V30 32 1 32 33
M  V30 33 2 33 34
M  V30 34 1 34 35
M  V30 35 2 35 36
M  V30 36 1 36 37
M  V30 37 2 37 38
M  V30 38 1 31 39
M  V30 39 2 39 40
M  V30 40 1 27 41
M  V30 41 2 41 42
M  V30 42 1 42 3
M  V30 43 1 41 6
M  V30 44 1 25 8
M  V30 45 1 40 29
M  V30 46 1 23 12
M  V30 47 1 38 33
M  V30 48 1 1 43
M  V30 49 1 1 44
M  V30 50 1 1 45
M  V30 51 1 2 46
M  V30 52 1 5 47
M  V30 53 1 9 48
M  V30 54 1 10 49
M  V30 55 1 13 50
M  V30 56 1 13 51
M  V30 57 1 14 52
M  V30 58 1 14 53
M  V30 59 1 19 54
M  V30 60 1 19 55
M  V30 61 1 19 56
M  V30 62 1 20 57
M  V30 63 1 20 58
M  V30 64 1 20 59
M  V30 65 1 21 60
M  V30 66 1 21 61
M  V30 67 1 21 62
M  V30 68 1 22 63
M  V30 69 1 22 64
M  V30 70 1 23 65
M  V30 71 1 23 66
M  V30 72 1 25 67
M  V30 73 1 28 68
M  V30 74 1 28 69
M  V30 75 1 30 70
M  V30 76 1 32 71
M  V30 77 1 32 72
M  V30 78 1 34 73
M  V30 79 1 35 74
M  V30 80 1 36 75
M  V30 81 1 37 76
M  V30 82 1 38 77
M  V30 END BOND
M  V30 END CTAB
M  END
>  <Dataset>  (138) 
ChEMBL_Kinases

>  <Ligand_Instance>  (138) 
nan

>  <PDB_ID>  (138) 
nan

>  <Standardized_SMILES>  (138) 
CNc1ncc2c(-c3ccc(N4CCN(C(=O)C(C)(C)C)CC4)nc3)nn(Cc3cn(Cc4ccccc4)nn3)c2n1

>  <Name>  (138) 
nan

>  <Pocket>  (138) 
nan

>  <ATP_Site>  (138) 
nan

>  <Peripheral>  (138) 
nan

>  <Num_H_Atoms_ProtBoundConf>  (138) 
nan

>  <Num_Resolved_Atoms>  (138) 
nan

>  <Num_Not_Resolved_Atoms>  (138) 
nan

$$$$
CHEMBL4789740
     RDKit          3D

  0  0  0  0  0  0  0  0  0  0999 V3000
M  V30 BEGIN CTAB
M  V30 COUNTS 47 50 0 0 0
M  V30 BEGIN ATOM
M  V30 1 C 0.648511 -8.678678 1.228945 0
M  V30 2 C 0.535849 -7.196416 1.153278 0
M  V30 3 C -0.227716 -6.463472 0.261522 0
M  V30 4 C -0.238815 -5.092582 0.304220 0
M  V30 5 C 0.507461 -4.397368 1.233536 0
M  V30 6 N 0.365067 -2.988474 1.120150 0
M  V30 7 C 1.082363 -2.001070 0.367309 0
M  V30 8 O 2.047619 -2.323383 -0.375375 0
M  V30 9 N 0.628045 -0.660794 0.522120 0
M  V30 10 C 1.346312 0.346549 -0.234896 0
M  V30 11 C 1.924335 1.442808 0.623855 0
M  V30 12 C 1.579605 2.793574 -0.017491 0
M  V30 13 N 0.137090 2.914728 0.208647 0
M  V30 14 C -0.342091 3.985586 0.997434 0
M  V30 15 N 0.539021 4.866351 1.503229 0
M  V30 16 C 0.170559 5.912167 2.260323 0
M  V30 17 N -1.120224 6.139977 2.559035 0
M  V30 18 C -2.074778 5.313132 2.098288 0
M  V30 19 N -3.412908 5.258606 2.209259 0
M  V30 20 N -3.843114 4.204931 1.535425 0
M  V30 21 C -2.794450 3.568444 0.983364 0
M  V30 22 C -1.651342 4.254973 1.326740 0
M  V30 23 C -0.567578 1.860603 -0.452941 0
M  V30 24 C 0.391403 0.955230 -1.203447 0
M  V30 25 C 1.282215 -5.112799 2.139406 0
M  V30 26 C 1.290016 -6.491188 2.092480 0
M  V30 27 H 1.701682 -9.000282 1.095022 0
M  V30 28 H -0.044117 -9.178285 0.515583 0
M  V30 29 H 0.305067 -9.038964 2.237969 0
M  V30 30 H -0.787043 -7.075793 -0.438563 0
M  V30 31 H -0.882558 -4.672134 -0.455944 0
M  V30 32 H -0.442799 -2.773488 1.750635 0
M  V30 33 H -0.172946 -0.431708 1.146020 0
M  V30 34 H 2.170442 -0.158123 -0.815327 0
M  V30 35 H 2.999841 1.342530 0.815320 0
M  V30 36 H 1.385453 1.422487 1.595903 0
M  V30 37 H 2.138837 3.580939 0.524545 0
M  V30 38 H 1.872749 2.866972 -1.061618 0
M  V30 39 H 0.917020 6.605526 2.652719 0
M  V30 40 H -3.940110 5.991815 2.769510 0
M  V30 41 H -2.873302 2.694421 0.394075 0
M  V30 42 H -1.060034 1.170521 0.271370 0
M  V30 43 H -1.243150 2.224427 -1.258445 0
M  V30 44 H -0.263566 0.141715 -1.633486 0
M  V30 45 H 0.860535 1.422702 -2.081176 0
M  V30 46 H 1.826612 -4.490511 2.822156 0
M  V30 47 H 1.919019 -7.000473 2.830911 0
M  V30 END ATOM
M  V30 BEGIN BOND
M  V30 1 1 1 2
M  V30 2 2 2 3
M  V30 3 1 3 4
M  V30 4 2 4 5
M  V30 5 1 5 6
M  V30 6 1 6 7
M  V30 7 2 7 8
M  V30 8 1 7 9
M  V30 9 1 9 10
M  V30 10 1 10 11
M  V30 11 1 11 12
M  V30 12 1 12 13
M  V30 13 1 13 14
M  V30 14 2 14 15
M  V30 15 1 15 16
M  V30 16 2 16 17
M  V30 17 1 17 18
M  V30 18 1 18 19
M  V30 19 1 19 20
M  V30 20 2 20 21
M  V30 21 1 21 22
M  V30 22 1 13 23
M  V30 23 1 23 24
M  V30 24 1 5 25
M  V30 25 2 25 26
M  V30 26 1 26 2
M  V30 27 1 24 10
M  V30 28 1 22 14
M  V30 29 2 22 18
M  V30 30 1 1 27
M  V30 31 1 1 28
M  V30 32 1 1 29
M  V30 33 1 3 30
M  V30 34 1 4 31
M  V30 35 1 6 32
M  V30 36 1 9 33
M  V30 37 1 10 34
M  V30 38 1 11 35
M  V30 39 1 11 36
M  V30 40 1 12 37
M  V30 41 1 12 38
M  V30 42 1 16 39
M  V30 43 1 19 40
M  V30 44 1 21 41
M  V30 45 1 23 42
M  V30 46 1 23 43
M  V30 47 1 24 44
M  V30 48 1 24 45
M  V30 49 1 25 46
M  V30 50 1 26 47
M  V30 END BOND
M  V30 END CTAB
M  END
>  <Dataset>  (139) 
ChEMBL_Kinases

>  <Ligand_Instance>  (139) 
nan

>  <PDB_ID>  (139) 
nan

>  <Standardized_SMILES>  (139) 
Cc1ccc(NC(=O)NC2CCN(c3ncnc4[nH]ncc34)CC2)cc1

>  <Name>  (139) 
nan

>  <Pocket>  (139) 
nan

>  <ATP_Site>  (139) 
nan

>  <Peripheral>  (139) 
nan

>  <Num_H_Atoms_ProtBoundConf>  (139) 
nan

>  <Num_Resolved_Atoms>  (139) 
nan

>  <Num_Not_Resolved_Atoms>  (139) 
nan

$$$$
CHEMBL4789795
     RDKit          3D

  0  0  0  0  0  0  0  0  0  0999 V3000
M  V30 BEGIN CTAB
M  V30 COUNTS 60 64 0 0 0
M  V30 BEGIN ATOM
M  V30 1 C -6.582346 0.890778 2.902327 0
M  V30 2 S -5.537742 -0.147980 3.927816 0
M  V30 3 O -6.242584 -1.487301 4.028788 0
M  V30 4 O -5.435739 0.500076 5.270006 0
M  V30 5 C -3.959612 -0.337707 3.221905 0
M  V30 6 C -2.899141 0.507716 3.389745 0
M  V30 7 C -1.690223 0.269861 2.795164 0
M  V30 8 C -1.458746 -0.846596 1.981579 0
M  V30 9 C -0.139816 -1.015703 1.384279 0
M  V30 10 C 0.044497 -1.645179 0.146874 0
M  V30 11 C 1.331192 -1.749624 -0.339390 0
M  V30 12 C 2.427077 -1.262633 0.340613 0
M  V30 13 C 3.733859 -1.326262 -0.097031 0
M  V30 14 N 3.944336 -1.977741 -1.358951 0
M  V30 15 C 3.690865 -1.361468 -2.628671 0
M  V30 16 C 3.999557 -1.923106 -3.847731 0
M  V30 17 C 3.697990 -1.278349 -5.036909 0
M  V30 18 C 3.068025 -0.033831 -4.985770 0
M  V30 19 C 2.781530 0.483974 -3.741537 0
M  V30 20 N 2.112678 1.768640 -3.763039 0
M  V30 21 C 0.711139 1.513990 -3.729596 0
M  V30 22 O 0.449679 0.288086 -3.687471 0
M  V30 23 N -0.321676 2.450747 -3.738043 0
M  V30 24 C -1.723266 2.260798 -3.694631 0
M  V30 25 C -2.363355 1.046232 -3.614039 0
M  V30 26 C -3.728156 0.847674 -3.568554 0
M  V30 27 C -4.528010 1.997938 -3.609032 0
M  V30 28 F -5.889482 1.855053 -3.567350 0
M  V30 29 C -3.918271 3.220245 -3.689108 0
M  V30 30 C -2.547331 3.337643 -3.730455 0
M  V30 31 C 3.065850 -0.126081 -2.537835 0
M  V30 32 N 4.778931 -0.836312 0.579389 0
M  V30 33 C 4.574321 -0.233702 1.772815 0
M  V30 34 N 3.324526 -0.141402 2.250930 0
M  V30 35 C 2.269509 -0.629827 1.578748 0
M  V30 36 C 0.972100 -0.531107 2.057246 0
M  V30 37 C -2.538352 -1.706442 1.811888 0
M  V30 38 C -3.744665 -1.435263 2.426638 0
M  V30 39 H -6.097871 1.900872 2.862143 0
M  V30 40 H -7.566341 0.983409 3.413789 0
M  V30 41 H -6.717166 0.451961 1.891638 0
M  V30 42 H -3.059303 1.386306 4.022157 0
M  V30 43 H -0.921706 1.004823 2.994812 0
M  V30 44 H -0.799320 -2.023124 -0.383433 0
M  V30 45 H 1.514426 -2.236976 -1.305280 0
M  V30 46 H 4.307717 -2.965066 -1.271206 0
M  V30 47 H 4.493854 -2.899321 -3.861897 0
M  V30 48 H 3.951119 -1.742541 -5.978984 0
M  V30 49 H 2.817158 0.497439 -5.899033 0
M  V30 50 H 2.403436 2.789912 -3.796191 0
M  V30 51 H 0.061663 3.417499 -3.784917 0
M  V30 52 H -1.804653 0.129791 -3.580224 0
M  V30 53 H -4.201682 -0.100843 -3.505577 0
M  V30 54 H -4.539045 4.096050 -3.720046 0
M  V30 55 H -2.144279 4.340991 -3.793916 0
M  V30 56 H 2.781286 0.403465 -1.658365 0
M  V30 57 H 5.460469 0.137569 2.261060 0
M  V30 58 H 0.825436 -0.048427 3.006211 0
M  V30 59 H -2.364528 -2.569336 1.185416 0
M  V30 60 H -4.541326 -2.151956 2.246225 0
M  V30 END ATOM
M  V30 BEGIN BOND
M  V30 1 1 1 2
M  V30 2 2 2 3
M  V30 3 2 2 4
M  V30 4 1 2 5
M  V30 5 2 5 6
M  V30 6 1 6 7
M  V30 7 2 7 8
M  V30 8 1 8 9
M  V30 9 2 9 10
M  V30 10 1 10 11
M  V30 11 2 11 12
M  V30 12 1 12 13
M  V30 13 1 13 14
M  V30 14 1 14 15
M  V30 15 2 15 16
M  V30 16 1 16 17
M  V30 17 2 17 18
M  V30 18 1 18 19
M  V30 19 1 19 20
M  V30 20 1 20 21
M  V30 21 2 21 22
M  V30 22 1 21 23
M  V30 23 1 23 24
M  V30 24 2 24 25
M  V30 25 1 25 26
M  V30 26 2 26 27
M  V30 27 1 27 28
M  V30 28 1 27 29
M  V30 29 2 29 30
M  V30 30 2 19 31
M  V30 31 2 13 32
M  V30 32 1 32 33
M  V30 33 2 33 34
M  V30 34 1 34 35
M  V30 35 2 35 36
M  V30 36 1 8 37
M  V30 37 2 37 38
M  V30 38 1 38 5
M  V30 39 1 36 9
M  V30 40 1 35 12
M  V30 41 1 31 15
M  V30 42 1 30 24
M  V30 43 1 1 39
M  V30 44 1 1 40
M  V30 45 1 1 41
M  V30 46 1 6 42
M  V30 47 1 7 43
M  V30 48 1 10 44
M  V30 49 1 11 45
M  V30 50 1 14 46
M  V30 51 1 16 47
M  V30 52 1 17 48
M  V30 53 1 18 49
M  V30 54 1 20 50
M  V30 55 1 23 51
M  V30 56 1 25 52
M  V30 57 1 26 53
M  V30 58 1 29 54
M  V30 59 1 30 55
M  V30 60 1 31 56
M  V30 61 1 33 57
M  V30 62 1 36 58
M  V30 63 1 37 59
M  V30 64 1 38 60
M  V30 END BOND
M  V30 END CTAB
M  END
>  <Dataset>  (140) 
ChEMBL_Kinases

>  <Ligand_Instance>  (140) 
nan

>  <PDB_ID>  (140) 
nan

>  <Standardized_SMILES>  (140) 
CS(=O)(=O)c1ccc(-c2ccc3c(Nc4cccc(NC(=O)Nc5ccc(F)cc5)c4)ncnc3c2)cc1

>  <Name>  (140) 
nan

>  <Pocket>  (140) 
nan

>  <ATP_Site>  (140) 
nan

>  <Peripheral>  (140) 
nan

>  <Num_H_Atoms_ProtBoundConf>  (140) 
nan

>  <Num_Resolved_Atoms>  (140) 
nan

>  <Num_Not_Resolved_Atoms>  (140) 
nan

$$$$
CHEMBL4160193
     RDKit          3D

  0  0  0  0  0  0  0  0  0  0999 V3000
M  V30 BEGIN CTAB
M  V30 COUNTS 60 64 0 0 0
M  V30 BEGIN ATOM
M  V30 1 C 3.670129 -1.106608 4.877004 0
M  V30 2 C 3.456615 -1.933862 3.603367 0
M  V30 3 O 2.792869 -1.154415 2.628916 0
M  V30 4 C 3.250474 0.017845 2.087968 0
M  V30 5 O 4.376111 0.424800 2.514220 0
M  V30 6 C 2.368350 0.609385 1.108581 0
M  V30 7 C 1.392347 1.516115 1.524155 0
M  V30 8 C 1.270101 1.868270 2.969300 0
M  V30 9 N 0.581803 2.047189 0.572013 0
M  V30 10 C 0.706092 1.717213 -0.734737 0
M  V30 11 N -0.254038 2.402204 -1.526846 0
M  V30 12 N -1.400706 1.610118 -1.630783 0
M  V30 13 C -2.419781 1.756330 -0.645462 0
M  V30 14 O -2.264130 2.599267 0.302542 0
M  V30 15 C -3.705231 1.088084 -0.484257 0
M  V30 16 C -4.869847 1.840481 -0.444079 0
M  V30 17 C -6.167198 1.347389 -0.295097 0
M  V30 18 C -6.261101 -0.038284 -0.178250 0
M  V30 19 C -5.138503 -0.843469 -0.210732 0
M  V30 20 C -5.273983 -2.194257 -0.093295 0
M  V30 21 O -6.390164 -2.748705 0.045071 0
M  V30 22 C -4.140777 -3.008535 -0.125564 0
M  V30 23 C -4.208152 -4.394025 -0.011196 0
M  V30 24 C -3.042669 -5.157365 -0.050425 0
M  V30 25 C -1.832344 -4.526798 -0.202940 0
M  V30 26 C -1.778334 -3.171698 -0.313934 0
M  V30 27 C -2.904514 -2.386867 -0.279588 0
M  V30 28 N -2.787761 -1.050813 -0.394663 0
M  V30 29 C -3.893729 -0.272703 -0.361672 0
M  V30 30 N 1.663497 0.831963 -1.116831 0
M  V30 31 C 2.498383 0.270332 -0.221775 0
M  V30 32 C 3.482347 -0.669477 -0.746599 0
M  V30 33 C 4.854855 -0.706295 -0.638640 0
M  V30 34 C 5.565897 -1.718283 -1.241663 0
M  V30 35 C 4.974326 -2.733902 -1.973090 0
M  V30 36 C 3.594898 -2.686352 -2.074640 0
M  V30 37 C 2.851204 -1.679843 -1.478300 0
M  V30 38 F 1.508578 -1.802877 -1.688681 0
M  V30 39 H 2.700407 -0.585735 5.110532 0
M  V30 40 H 4.405229 -0.302763 4.733363 0
M  V30 41 H 3.879835 -1.751496 5.737101 0
M  V30 42 H 2.765212 -2.746383 3.914695 0
M  V30 43 H 4.413227 -2.348050 3.264091 0
M  V30 44 H 1.538114 0.981835 3.557600 0
M  V30 45 H 0.220037 2.202614 3.174330 0
M  V30 46 H 2.012651 2.662688 3.180988 0
M  V30 47 H -0.209216 3.336865 -1.995151 0
M  V30 48 H -1.674449 0.881712 -2.340434 0
M  V30 49 H -4.756164 2.915273 -0.538109 0
M  V30 50 H -6.990183 2.042901 -0.279938 0
M  V30 51 H -7.277377 -0.440192 -0.059650 0
M  V30 52 H -5.167194 -4.867517 0.106986 0
M  V30 53 H -3.121815 -6.243068 0.042114 0
M  V30 54 H -0.927583 -5.120573 -0.233787 0
M  V30 55 H -0.795956 -2.722149 -0.432434 0
M  V30 56 H -1.834048 -0.651035 -0.507493 0
M  V30 57 H 5.232927 0.111865 -0.061651 0
M  V30 58 H 6.652012 -1.676789 -1.109138 0
M  V30 59 H 5.610277 -3.493368 -2.415757 0
M  V30 60 H 3.154819 -3.493152 -2.652787 0
M  V30 END ATOM
M  V30 BEGIN BOND
M  V30 1 1 1 2
M  V30 2 1 2 3
M  V30 3 1 3 4
M  V30 4 2 4 5
M  V30 5 1 4 6
M  V30 6 2 6 7
M  V30 7 1 7 8
M  V30 8 1 7 9
M  V30 9 2 9 10
M  V30 10 1 10 11
M  V30 11 1 11 12
M  V30 12 1 12 13
M  V30 13 2 13 14
M  V30 14 1 13 15
M  V30 15 2 15 16
M  V30 16 1 16 17
M  V30 17 2 17 18
M  V30 18 1 18 19
M  V30 19 1 19 20
M  V30 20 2 20 21
M  V30 21 1 20 22
M  V30 22 2 22 23
M  V30 23 1 23 24
M  V30 24 2 24 25
M  V30 25 1 25 26
M  V30 26 2 26 27
M  V30 27 1 27 28
M  V30 28 1 28 29
M  V30 29 1 10 30
M  V30 30 2 30 31
M  V30 31 1 31 32
M  V30 32 2 32 33
M  V30 33 1 33 34
M  V30 34 2 34 35
M  V30 35 1 35 36
M  V30 36 2 36 37
M  V30 37 1 37 38
M  V30 38 1 31 6
M  V30 39 1 37 32
M  V30 40 1 29 15
M  V30 41 2 29 19
M  V30 42 1 27 22
M  V30 43 1 1 39
M  V30 44 1 1 40
M  V30 45 1 1 41
M  V30 46 1 2 42
M  V30 47 1 2 43
M  V30 48 1 8 44
M  V30 49 1 8 45
M  V30 50 1 8 46
M  V30 51 1 11 47
M  V30 52 1 12 48
M  V30 53 1 16 49
M  V30 54 1 17 50
M  V30 55 1 18 51
M  V30 56 1 23 52
M  V30 57 1 24 53
M  V30 58 1 25 54
M  V30 59 1 26 55
M  V30 60 1 28 56
M  V30 61 1 33 57
M  V30 62 1 34 58
M  V30 63 1 35 59
M  V30 64 1 36 60
M  V30 END BOND
M  V30 END CTAB
M  END
>  <Dataset>  (141) 
ChEMBL_Kinases

>  <Ligand_Instance>  (141) 
nan

>  <PDB_ID>  (141) 
nan

>  <Standardized_SMILES>  (141) 
CCOC(=O)c1c(C)nc(NNC(=O)c2cccc3c(=O)c4ccccc4[nH]c23)nc1-c1ccccc1F

>  <Name>  (141) 
nan

>  <Pocket>  (141) 
nan

>  <ATP_Site>  (141) 
nan

>  <Peripheral>  (141) 
nan

>  <Num_H_Atoms_ProtBoundConf>  (141) 
nan

>  <Num_Resolved_Atoms>  (141) 
nan

>  <Num_Not_Resolved_Atoms>  (141) 
nan

$$$$
CHEMBL4160165
     RDKit          3D

  0  0  0  0  0  0  0  0  0  0999 V3000
M  V30 BEGIN CTAB
M  V30 COUNTS 56 60 0 0 0
M  V30 BEGIN ATOM
M  V30 1 O 2.283216 -5.815048 -0.813051 0
M  V30 2 C 2.019976 -4.735255 -0.274769 0
M  V30 3 N 2.466493 -4.336878 1.013072 0
M  V30 4 C 1.937385 -3.036967 1.240561 0
M  V30 5 C 2.118095 -2.240043 2.351609 0
M  V30 6 C 1.531220 -0.990891 2.367472 0
M  V30 7 C 0.762272 -0.501921 1.302504 0
M  V30 8 C 0.158657 0.825386 1.361020 0
M  V30 9 O -0.524484 1.297052 0.414333 0
M  V30 10 N 0.285022 1.687587 2.469829 0
M  V30 11 C -0.327801 3.025792 2.519900 0 CFG=2
M  V30 12 C 0.710270 4.092989 2.687888 0
M  V30 13 O 0.179096 5.380372 2.731467 0
M  V30 14 C -1.352253 2.995905 3.577034 0
M  V30 15 C -1.625943 3.865213 4.585497 0
M  V30 16 C -2.648213 3.654250 5.485005 0
M  V30 17 C -3.449904 2.527208 5.393442 0
M  V30 18 C -3.191426 1.630206 4.378141 0
M  V30 19 C -2.162827 1.856194 3.484045 0
M  V30 20 C 0.619495 -1.345444 0.223774 0
M  V30 21 C 1.185730 -2.594408 0.172452 0
M  V30 22 C 1.224839 -3.664290 -0.804959 0
M  V30 23 C 0.668035 -3.593048 -1.986483 0
M  V30 24 C -0.152915 -2.530272 -2.541430 0
M  V30 25 C 0.044248 -1.606226 -3.540903 0
M  V30 26 C -0.955100 -0.766109 -3.936134 0
M  V30 27 C -2.208094 -0.788980 -3.367619 0
M  V30 28 C -2.435786 -1.713826 -2.354000 0
M  V30 29 Cl -4.042630 -1.705936 -1.662240 0
M  V30 30 C -1.423038 -2.585091 -1.933733 0
M  V30 31 C 0.834302 -4.608616 -3.026310 0
M  V30 32 N -0.087252 -5.231405 -3.788419 0
M  V30 33 C 0.475877 -6.080758 -4.664477 0
M  V30 34 C 1.837539 -5.991486 -4.445423 0
M  V30 35 N 2.014103 -5.095635 -3.452938 0
M  V30 36 H 3.067222 -4.916408 1.641911 0
M  V30 37 H 2.702084 -2.578769 3.190133 0
M  V30 38 H 1.699854 -0.404564 3.257099 0
M  V30 39 H 0.825211 1.412112 3.315109 0
M  V30 40 H -0.876019 3.240414 1.574002 0
M  V30 41 H 1.280958 3.988251 3.641154 0
M  V30 42 H 1.481171 4.055969 1.893776 0
M  V30 43 H 0.485773 5.938247 1.985770 0
M  V30 44 H -0.984795 4.714597 4.617939 0
M  V30 45 H -2.789326 4.412135 6.261593 0
M  V30 46 H -4.226554 2.436853 6.135347 0
M  V30 47 H -3.847100 0.768325 4.353335 0
M  V30 48 H -2.087988 1.065846 2.750608 0
M  V30 49 H 0.043558 -0.883050 -0.548771 0
M  V30 50 H 1.064619 -1.685240 -3.907347 0
M  V30 51 H -0.685906 -0.078172 -4.733958 0
M  V30 52 H -2.977067 -0.108407 -3.705701 0
M  V30 53 H -1.768334 -3.241806 -1.133070 0
M  V30 54 H -0.057691 -6.700726 -5.388292 0
M  V30 55 H 2.506173 -6.594143 -5.043121 0
M  V30 56 H 2.999457 -4.926950 -3.200829 0
M  V30 END ATOM
M  V30 BEGIN BOND
M  V30 1 2 1 2
M  V30 2 1 2 3
M  V30 3 1 3 4
M  V30 4 2 4 5
M  V30 5 1 5 6
M  V30 6 2 6 7
M  V30 7 1 7 8
M  V30 8 2 8 9
M  V30 9 1 8 10
M  V30 10 1 10 11
M  V30 11 1 11 12
M  V30 12 1 12 13
M  V30 13 1 11 14
M  V30 14 2 14 15
M  V30 15 1 15 16
M  V30 16 2 16 17
M  V30 17 1 17 18
M  V30 18 2 18 19
M  V30 19 1 7 20
M  V30 20 2 20 21
M  V30 21 1 21 22
M  V30 22 2 22 23
M  V30 23 1 23 24
M  V30 24 2 24 25
M  V30 25 1 25 26
M  V30 26 2 26 27
M  V30 27 1 27 28
M  V30 28 1 28 29
M  V30 29 2 28 30
M  V30 30 1 23 31
M  V30 31 2 31 32
M  V30 32 1 32 33
M  V30 33 2 33 34
M  V30 34 1 34 35
M  V30 35 1 22 2
M  V30 36 1 30 24
M  V30 37 1 35 31
M  V30 38 1 21 4
M  V30 39 1 19 14
M  V30 40 1 3 36
M  V30 41 1 5 37
M  V30 42 1 6 38
M  V30 43 1 10 39
M  V30 44 1 11 40 CFG=3
M  V30 45 1 12 41
M  V30 46 1 12 42
M  V30 47 1 13 43
M  V30 48 1 15 44
M  V30 49 1 16 45
M  V30 50 1 17 46
M  V30 51 1 18 47
M  V30 52 1 19 48
M  V30 53 1 20 49
M  V30 54 1 25 50
M  V30 55 1 26 51
M  V30 56 1 27 52
M  V30 57 1 30 53
M  V30 58 1 33 54
M  V30 59 1 34 55
M  V30 60 1 35 56
M  V30 END BOND
M  V30 END CTAB
M  END
>  <Dataset>  (142) 
ChEMBL_Kinases

>  <Ligand_Instance>  (142) 
nan

>  <PDB_ID>  (142) 
nan

>  <Standardized_SMILES>  (142) 
O=C1Nc2ccc(C(=O)N[C@H](CO)c3ccccc3)cc2/C1=C(\c1cccc(Cl)c1)c1ncc[nH]1

>  <Name>  (142) 
nan

>  <Pocket>  (142) 
nan

>  <ATP_Site>  (142) 
nan

>  <Peripheral>  (142) 
nan

>  <Num_H_Atoms_ProtBoundConf>  (142) 
nan

>  <Num_Resolved_Atoms>  (142) 
nan

>  <Num_Not_Resolved_Atoms>  (142) 
nan

$$$$
CHEMBL4789806
     RDKit          3D

  0  0  0  0  0  0  0  0  0  0999 V3000
M  V30 BEGIN CTAB
M  V30 COUNTS 39 40 0 0 0
M  V30 BEGIN ATOM
M  V30 1 C 2.381420 -6.220717 1.484737 0
M  V30 2 O 1.748299 -5.914777 2.710193 0
M  V30 3 C 1.116621 -4.683278 2.821428 0
M  V30 4 C 0.960633 -3.622100 1.937808 0
M  V30 5 C 0.266532 -2.510381 2.355252 0
M  V30 6 C 0.168161 -1.477383 1.328158 0
M  V30 7 C 0.330292 -0.202193 1.578858 0
M  V30 8 C 0.623184 0.265720 2.910853 0
M  V30 9 N 0.873524 0.650832 3.986345 0
M  V30 10 C 0.235341 0.862091 0.553188 0
M  V30 11 O 0.399645 2.100057 0.842312 0
M  V30 12 N -0.037088 0.685268 -0.827055 0
M  V30 13 C -0.020124 2.023497 -1.381788 0
M  V30 14 C -1.225533 2.740215 -1.404122 0
M  V30 15 C -1.216777 4.019233 -1.926766 0
M  V30 16 C -2.499459 4.810358 -1.956587 0
M  V30 17 F -2.466958 5.645534 -0.830666 0
M  V30 18 F -3.551111 3.925513 -1.762120 0
M  V30 19 F -2.624881 5.527552 -3.104448 0
M  V30 20 C -0.033504 4.544904 -2.405764 0
M  V30 21 C 1.161504 3.837795 -2.385337 0
M  V30 22 C 1.175359 2.561174 -1.868347 0
M  V30 23 Cl 2.640889 1.590453 -1.801210 0
M  V30 24 C -0.283896 -2.400323 3.612433 0
M  V30 25 C -0.131068 -3.461398 4.504093 0
M  V30 26 C 0.569542 -4.589015 4.091316 0
M  V30 27 O 0.608015 -5.524720 5.122842 0
M  V30 28 H 1.670625 -6.348597 0.646375 0
M  V30 29 H 3.186839 -5.465738 1.266340 0
M  V30 30 H 2.936136 -7.184722 1.685177 0
M  V30 31 H 1.439465 -3.851254 1.001957 0
M  V30 32 H -0.052350 -1.750738 0.284333 0
M  V30 33 H -0.184688 -0.302350 -1.149396 0
M  V30 34 H -2.140311 2.316207 -1.027056 0
M  V30 35 H -0.011274 5.544717 -2.817591 0
M  V30 36 H 2.087460 4.262579 -2.764829 0
M  V30 37 H -0.826556 -1.504865 3.877529 0
M  V30 38 H -0.591156 -3.288263 5.459930 0
M  V30 39 H -0.095787 -6.251692 5.097739 0
M  V30 END ATOM
M  V30 BEGIN BOND
M  V30 1 1 1 2
M  V30 2 1 2 3
M  V30 3 2 3 4
M  V30 4 1 4 5
M  V30 5 1 5 6
M  V30 6 2 6 7
M  V30 7 1 7 8
M  V30 8 3 8 9
M  V30 9 1 7 10
M  V30 10 2 10 11
M  V30 11 1 10 12
M  V30 12 1 12 13
M  V30 13 2 13 14
M  V30 14 1 14 15
M  V30 15 1 15 16
M  V30 16 1 16 17
M  V30 17 1 16 18
M  V30 18 1 16 19
M  V30 19 2 15 20
M  V30 20 1 20 21
M  V30 21 2 21 22
M  V30 22 1 22 23
M  V30 23 2 5 24
M  V30 24 1 24 25
M  V30 25 2 25 26
M  V30 26 1 26 27
M  V30 27 1 26 3
M  V30 28 1 22 13
M  V30 29 1 1 28
M  V30 30 1 1 29
M  V30 31 1 1 30
M  V30 32 1 4 31
M  V30 33 1 6 32
M  V30 34 1 12 33
M  V30 35 1 14 34
M  V30 36 1 20 35
M  V30 37 1 21 36
M  V30 38 1 24 37
M  V30 39 1 25 38
M  V30 40 1 27 39
M  V30 END BOND
M  V30 END CTAB
M  END
>  <Dataset>  (143) 
ChEMBL_Kinases

>  <Ligand_Instance>  (143) 
nan

>  <PDB_ID>  (143) 
nan

>  <Standardized_SMILES>  (143) 
COc1cc(/C=C(\C#N)C(=O)Nc2cc(C(F)(F)F)ccc2Cl)ccc1O

>  <Name>  (143) 
nan

>  <Pocket>  (143) 
nan

>  <ATP_Site>  (143) 
nan

>  <Peripheral>  (143) 
nan

>  <Num_H_Atoms_ProtBoundConf>  (143) 
nan

>  <Num_Resolved_Atoms>  (143) 
nan

>  <Num_Not_Resolved_Atoms>  (143) 
nan

$$$$
CHEMBL416
     RDKit          3D

  0  0  0  0  0  0  0  0  0  0999 V3000
M  V30 BEGIN CTAB
M  V30 COUNTS 24 26 0 0 0
M  V30 BEGIN ATOM
M  V30 1 C -1.329430 -0.381225 3.353917 0
M  V30 2 O 0.075909 -0.232683 3.127656 0
M  V30 3 C 0.514298 -0.319155 1.794488 0
M  V30 4 C 0.840531 -1.598892 1.397987 0
M  V30 5 O 0.856086 -2.777401 1.926708 0
M  V30 6 C 1.267669 -3.688217 1.081611 0
M  V30 7 C 1.555324 -3.063825 -0.126962 0
M  V30 8 C 1.281337 -1.730751 0.079476 0
M  V30 9 C 1.395917 -0.677673 -0.796100 0
M  V30 10 C 1.056861 0.583178 -0.350122 0
M  V30 11 C 1.135344 1.709251 -1.148239 0
M  V30 12 C 0.791840 2.965296 -0.685953 0
M  V30 13 C 0.367935 3.000621 0.626842 0
M  V30 14 O 0.047641 4.157142 1.065065 0
M  V30 15 O 0.269579 1.972983 1.439060 0
M  V30 16 C 0.608106 0.778785 0.962088 0
M  V30 17 H -1.860789 0.582726 3.403092 0
M  V30 18 H -1.806464 -0.954613 2.505895 0
M  V30 19 H -1.489979 -1.030911 4.249117 0
M  V30 20 H 1.310123 -4.710138 1.449188 0
M  V30 21 H 1.909080 -3.625657 -0.961639 0
M  V30 22 H 1.734894 -0.816169 -1.791849 0
M  V30 23 H 1.477933 1.586943 -2.163241 0
M  V30 24 H 0.842393 3.862132 -1.284073 0
M  V30 END ATOM
M  V30 BEGIN BOND
M  V30 1 1 1 2
M  V30 2 1 2 3
M  V30 3 2 3 4
M  V30 4 1 4 5
M  V30 5 1 5 6
M  V30 6 2 6 7
M  V30 7 1 7 8
M  V30 8 2 8 9
M  V30 9 1 9 10
M  V30 10 1 10 11
M  V30 11 2 11 12
M  V30 12 1 12 13
M  V30 13 2 13 14
M  V30 14 1 13 15
M  V30 15 1 15 16
M  V30 16 1 16 3
M  V30 17 1 8 4
M  V30 18 2 16 10
M  V30 19 1 1 17
M  V30 20 1 1 18
M  V30 21 1 1 19
M  V30 22 1 6 20
M  V30 23 1 7 21
M  V30 24 1 9 22
M  V30 25 1 11 23
M  V30 26 1 12 24
M  V30 END BOND
M  V30 END CTAB
M  END
>  <Dataset>  (144) 
ChEMBL_Kinases

>  <Ligand_Instance>  (144) 
nan

>  <PDB_ID>  (144) 
nan

>  <Standardized_SMILES>  (144) 
COc1c2occc2cc2ccc(=O)oc12

>  <Name>  (144) 
METHOXSALEN

>  <Pocket>  (144) 
nan

>  <ATP_Site>  (144) 
nan

>  <Peripheral>  (144) 
nan

>  <Num_H_Atoms_ProtBoundConf>  (144) 
nan

>  <Num_Resolved_Atoms>  (144) 
nan

>  <Num_Not_Resolved_Atoms>  (144) 
nan

$$$$
CHEMBL4159994
     RDKit          3D

  0  0  0  0  0  0  0  0  0  0999 V3000
M  V30 BEGIN CTAB
M  V30 COUNTS 45 48 0 0 0
M  V30 BEGIN ATOM
M  V30 1 C -0.924209 -6.827205 1.234686 0
M  V30 2 O -1.319350 -6.322150 2.494359 0
M  V30 3 C -1.250116 -4.974411 2.748927 0
M  V30 4 C -0.807591 -3.998354 1.848377 0
M  V30 5 C -0.796444 -2.661624 2.259787 0
M  V30 6 C -0.314334 -1.701619 1.245658 0
M  V30 7 C 0.335770 -0.568793 1.686232 0
M  V30 8 N 0.776748 0.307247 0.769558 0
M  V30 9 C 0.632426 0.163904 -0.553317 0
M  V30 10 C 1.053632 1.006353 -1.501397 0
M  V30 11 N 1.744614 2.240876 -1.379316 0
M  V30 12 C 2.142698 3.053146 -2.509515 0
M  V30 13 C 1.352234 4.356620 -2.464624 0
M  V30 14 O 1.807597 5.067179 -1.351930 0
M  V30 15 C 1.522080 4.317735 -0.213759 0
M  V30 16 C 2.038148 5.114458 0.991724 0
M  V30 17 C 2.200770 2.963617 -0.211427 0
M  V30 18 S 0.633655 0.384681 -3.039466 0
M  V30 19 N -0.191978 -1.161243 -2.376837 0
M  V30 20 C -0.012804 -0.958773 -1.008397 0
M  V30 21 C -0.484223 -1.888168 -0.107774 0
M  V30 22 C -1.201844 -2.255193 3.514915 0
M  V30 23 C -1.641631 -3.209364 4.415637 0
M  V30 24 C -1.646500 -4.527491 3.993081 0
M  V30 25 N -2.109644 -5.479593 4.961239 0
M  V30 26 H -1.813183 -6.708340 0.555853 0
M  V30 27 H -0.038553 -6.326351 0.841781 0
M  V30 28 H -0.685827 -7.903215 1.356082 0
M  V30 29 H -0.501928 -4.338960 0.889763 0
M  V30 30 H 0.496914 -0.372105 2.745353 0
M  V30 31 H 3.219423 3.260140 -2.534954 0
M  V30 32 H 1.792845 2.529525 -3.444734 0
M  V30 33 H 1.534757 4.946487 -3.378517 0
M  V30 34 H 0.270959 4.170592 -2.373013 0
M  V30 35 H 0.427127 4.201416 -0.131387 0
M  V30 36 H 3.137485 5.199823 0.920183 0
M  V30 37 H 1.682823 4.657995 1.926163 0
M  V30 38 H 1.570149 6.120685 0.912964 0
M  V30 39 H 3.302393 3.110365 -0.227582 0
M  V30 40 H 1.855592 2.422857 0.682627 0
M  V30 41 H -1.001806 -2.799538 -0.357251 0
M  V30 42 H -1.160829 -1.199658 3.750709 0
M  V30 43 H -1.965532 -2.922803 5.405242 0
M  V30 44 H -3.077393 -5.899115 4.916646 0
M  V30 45 H -1.756285 -5.964641 5.817798 0
M  V30 END ATOM
M  V30 BEGIN BOND
M  V30 1 1 1 2
M  V30 2 1 2 3
M  V30 3 2 3 4
M  V30 4 1 4 5
M  V30 5 1 5 6
M  V30 6 1 6 7
M  V30 7 2 7 8
M  V30 8 1 8 9
M  V30 9 2 9 10
M  V30 10 1 10 11
M  V30 11 1 11 12
M  V30 12 1 12 13
M  V30 13 1 13 14
M  V30 14 1 14 15
M  V30 15 1 15 16
M  V30 16 1 15 17
M  V30 17 1 10 18
M  V30 18 1 18 19
M  V30 19 2 19 20
M  V30 20 1 20 21
M  V30 21 2 5 22
M  V30 22 1 22 23
M  V30 23 2 23 24
M  V30 24 1 24 25
M  V30 25 1 24 3
M  V30 26 2 21 6
M  V30 27 1 20 9
M  V30 28 1 17 11
M  V30 29 1 1 26
M  V30 30 1 1 27
M  V30 31 1 1 28
M  V30 32 1 4 29
M  V30 33 1 7 30
M  V30 34 1 12 31
M  V30 35 1 12 32
M  V30 36 1 13 33
M  V30 37 1 13 34
M  V30 38 1 15 35
M  V30 39 1 16 36
M  V30 40 1 16 37
M  V30 41 1 16 38
M  V30 42 1 17 39
M  V30 43 1 17 40
M  V30 44 1 21 41
M  V30 45 1 22 42
M  V30 46 1 23 43
M  V30 47 1 25 44
M  V30 48 1 25 45
M  V30 END BOND
M  V30 END CTAB
M  END
>  <Dataset>  (145) 
ChEMBL_Kinases

>  <Ligand_Instance>  (145) 
nan

>  <PDB_ID>  (145) 
nan

>  <Standardized_SMILES>  (145) 
COc1cc(-c2cnc3c(N4CCOC(C)C4)snc3c2)ccc1N

>  <Name>  (145) 
nan

>  <Pocket>  (145) 
nan

>  <ATP_Site>  (145) 
nan

>  <Peripheral>  (145) 
nan

>  <Num_H_Atoms_ProtBoundConf>  (145) 
nan

>  <Num_Resolved_Atoms>  (145) 
nan

>  <Num_Not_Resolved_Atoms>  (145) 
nan

$$$$
CHEMBL4159941
     RDKit          3D

  0  0  0  0  0  0  0  0  0  0999 V3000
M  V30 BEGIN CTAB
M  V30 COUNTS 25 27 0 0 0
M  V30 BEGIN ATOM
M  V30 1 C -2.111853 -3.611071 2.367647 0
M  V30 2 O -0.940273 -3.078740 2.981590 0
M  V30 3 C -0.325359 -2.014849 2.304684 0
M  V30 4 C 0.808234 -1.530262 2.937540 0
M  V30 5 C 1.457193 -0.473032 2.306654 0
M  V30 6 C 0.976615 0.040622 1.122514 0
M  V30 7 C -0.155540 -0.446814 0.494871 0
M  V30 8 C -0.792903 -1.494544 1.126447 0
M  V30 9 N -0.349478 0.267657 -0.628960 0
M  V30 10 C 0.605426 1.209952 -0.776096 0
M  V30 11 C 0.730798 2.122356 -1.799896 0
M  V30 12 Cl -0.417154 2.167744 -3.123624 0
M  V30 13 N 1.794054 2.970880 -1.708091 0
M  V30 14 C 2.629206 2.871995 -0.661199 0
M  V30 15 C 2.506916 1.960119 0.365316 0
M  V30 16 C 1.432176 1.065885 0.319074 0
M  V30 17 H -2.871290 -2.800336 2.362063 0
M  V30 18 H -2.426245 -4.483083 2.945811 0
M  V30 19 H -1.874811 -3.861245 1.319421 0
M  V30 20 H 1.249659 -1.866768 3.852873 0
M  V30 21 H 2.343362 -0.027977 2.717007 0
M  V30 22 H -1.687356 -1.920481 0.682608 0
M  V30 23 H -1.159397 0.052258 -1.247738 0
M  V30 24 H 3.468051 3.571736 -0.627382 0
M  V30 25 H 3.195416 1.903363 1.196829 0
M  V30 END ATOM
M  V30 BEGIN BOND
M  V30 1 1 1 2
M  V30 2 1 2 3
M  V30 3 2 3 4
M  V30 4 1 4 5
M  V30 5 2 5 6
M  V30 6 1 6 7
M  V30 7 2 7 8
M  V30 8 1 7 9
M  V30 9 1 9 10
M  V30 10 2 10 11
M  V30 11 1 11 12
M  V30 12 1 11 13
M  V30 13 2 13 14
M  V30 14 1 14 15
M  V30 15 2 15 16
M  V30 16 1 8 3
M  V30 17 1 16 10
M  V30 18 1 16 6
M  V30 19 1 1 17
M  V30 20 1 1 18
M  V30 21 1 1 19
M  V30 22 1 4 20
M  V30 23 1 5 21
M  V30 24 1 8 22
M  V30 25 1 9 23
M  V30 26 1 14 24
M  V30 27 1 15 25
M  V30 END BOND
M  V30 END CTAB
M  END
>  <Dataset>  (146) 
ChEMBL_Kinases

>  <Ligand_Instance>  (146) 
nan

>  <PDB_ID>  (146) 
nan

>  <Standardized_SMILES>  (146) 
COc1ccc2c(c1)[nH]c1c(Cl)nccc12

>  <Name>  (146) 
nan

>  <Pocket>  (146) 
nan

>  <ATP_Site>  (146) 
nan

>  <Peripheral>  (146) 
nan

>  <Num_H_Atoms_ProtBoundConf>  (146) 
nan

>  <Num_Resolved_Atoms>  (146) 
nan

>  <Num_Not_Resolved_Atoms>  (146) 
nan

$$$$
CHEMBL4159827
     RDKit          3D

  0  0  0  0  0  0  0  0  0  0999 V3000
M  V30 BEGIN CTAB
M  V30 COUNTS 55 59 0 0 0
M  V30 BEGIN ATOM
M  V30 1 N 2.484572 -4.334323 3.663054 0
M  V30 2 C 3.298680 -3.248744 3.140690 0 CFG=2
M  V30 3 C 4.147842 -2.740044 4.268481 0
M  V30 4 C 4.587179 -1.311321 4.127064 0
M  V30 5 C 3.490354 -0.364742 3.716675 0
M  V30 6 C 2.200894 -1.161324 3.718822 0 CFG=1
M  V30 7 C 1.047479 -0.257645 3.492447 0
M  V30 8 O 0.027677 0.011423 4.183371 0
M  V30 9 N 1.200246 0.384564 2.241273 0
M  V30 10 C 0.305405 1.337148 1.642395 0
M  V30 11 C 0.431767 2.695065 1.857295 0
M  V30 12 C -0.431605 3.607918 1.278708 0
M  V30 13 C -1.427953 3.091962 0.474011 0
M  V30 14 N -2.380357 3.772427 -0.192529 0
M  V30 15 N -3.145720 2.891955 -0.852839 0
M  V30 16 C -2.672293 1.638750 -0.601398 0
M  V30 17 N -3.196530 0.415872 -1.107114 0
M  V30 18 C -2.720083 -0.101271 -2.334424 0
M  V30 19 C -1.745083 0.646591 -2.977169 0
M  V30 20 C -1.307897 0.092317 -4.185943 0
M  V30 21 C -1.738526 -1.074523 -4.767719 0
M  V30 22 C -2.710282 -1.755765 -4.060705 0
M  V30 23 C -3.182873 -2.950894 -4.610715 0
M  V30 24 C -4.161998 -3.690948 -3.953839 0
M  V30 25 C -4.637549 -3.189188 -2.743561 0
M  V30 26 C -4.163312 -2.013666 -2.216227 0
M  V30 27 C -3.199574 -1.279140 -2.856539 0
M  V30 28 C -1.581372 1.741257 0.239116 0
M  V30 29 C -0.705719 0.844232 0.828440 0
M  V30 30 C 2.351394 -2.184931 2.617615 0
M  V30 31 H 1.619565 -3.994210 4.135799 0
M  V30 32 H 2.123861 -4.848200 2.807318 0
M  V30 33 H 3.895684 -3.687489 2.317257 0
M  V30 34 H 3.739106 -2.948430 5.278420 0
M  V30 35 H 5.096245 -3.350346 4.227429 0
M  V30 36 H 5.494637 -1.219933 3.515953 0
M  V30 37 H 4.894463 -0.976867 5.160993 0
M  V30 38 H 3.722203 -0.061954 2.671009 0
M  V30 39 H 3.364952 0.500663 4.388026 0
M  V30 40 H 2.150495 -1.688053 4.693934 0
M  V30 41 H 1.939881 0.330009 1.503792 0
M  V30 42 H 1.231459 3.061065 2.498997 0
M  V30 43 H -0.313735 4.682013 1.462415 0
M  V30 44 H -2.618525 4.785000 -0.285573 0
M  V30 45 H -3.897892 0.069598 -0.447479 0
M  V30 46 H -1.327985 1.572133 -2.625614 0
M  V30 47 H -0.538960 0.666849 -4.709020 0
M  V30 48 H -1.326538 -1.396800 -5.699699 0
M  V30 49 H -2.789008 -3.313944 -5.558480 0
M  V30 50 H -4.512445 -4.612143 -4.398035 0
M  V30 51 H -5.385418 -3.787737 -2.275893 0
M  V30 52 H -4.554198 -1.667547 -1.290276 0
M  V30 53 H -0.852696 -0.211607 0.624361 0
M  V30 54 H 2.896536 -1.687118 1.778928 0
M  V30 55 H 1.428630 -2.668900 2.303949 0
M  V30 END ATOM
M  V30 BEGIN BOND
M  V30 1 1 1 2
M  V30 2 1 2 3
M  V30 3 1 3 4
M  V30 4 1 4 5
M  V30 5 1 5 6
M  V30 6 1 6 7
M  V30 7 2 7 8
M  V30 8 1 7 9
M  V30 9 1 9 10
M  V30 10 2 10 11
M  V30 11 1 11 12
M  V30 12 2 12 13
M  V30 13 1 13 14
M  V30 14 1 14 15
M  V30 15 2 15 16
M  V30 16 1 16 17
M  V30 17 1 17 18
M  V30 18 2 18 19
M  V30 19 1 19 20
M  V30 20 2 20 21
M  V30 21 1 21 22
M  V30 22 2 22 23
M  V30 23 1 23 24
M  V30 24 2 24 25
M  V30 25 1 25 26
M  V30 26 2 26 27
M  V30 27 1 16 28
M  V30 28 2 28 29
M  V30 29 1 6 30
M  V30 30 1 30 2
M  V30 31 1 29 10
M  V30 32 1 28 13
M  V30 33 1 27 18
M  V30 34 1 27 22
M  V30 35 1 1 31
M  V30 36 1 1 32
M  V30 37 1 2 33 CFG=3
M  V30 38 1 3 34
M  V30 39 1 3 35
M  V30 40 1 4 36
M  V30 41 1 4 37
M  V30 42 1 5 38
M  V30 43 1 5 39
M  V30 44 1 6 40 CFG=1
M  V30 45 1 9 41
M  V30 46 1 11 42
M  V30 47 1 12 43
M  V30 48 1 14 44
M  V30 49 1 17 45
M  V30 50 1 19 46
M  V30 51 1 20 47
M  V30 52 1 21 48
M  V30 53 1 23 49
M  V30 54 1 24 50
M  V30 55 1 25 51
M  V30 56 1 26 52
M  V30 57 1 29 53
M  V30 58 1 30 54
M  V30 59 1 30 55
M  V30 END BOND
M  V30 END CTAB
M  END
>  <Dataset>  (147) 
ChEMBL_Kinases

>  <Ligand_Instance>  (147) 
nan

>  <PDB_ID>  (147) 
nan

>  <Standardized_SMILES>  (147) 
N[C@@H]1CCC[C@@H](C(=O)Nc2ccc3[nH]nc(Nc4cccc5ccccc45)c3c2)C1

>  <Name>  (147) 
nan

>  <Pocket>  (147) 
nan

>  <ATP_Site>  (147) 
nan

>  <Peripheral>  (147) 
nan

>  <Num_H_Atoms_ProtBoundConf>  (147) 
nan

>  <Num_Resolved_Atoms>  (147) 
nan

>  <Num_Not_Resolved_Atoms>  (147) 
nan

$$$$
CHEMBL4159805
     RDKit          3D

  0  0  0  0  0  0  0  0  0  0999 V3000
M  V30 BEGIN CTAB
M  V30 COUNTS 61 65 0 0 0
M  V30 BEGIN ATOM
M  V30 1 C -1.565700 1.846706 6.194293 0
M  V30 2 C -1.967254 0.437239 6.509843 0
M  V30 3 O -1.642376 -0.445999 5.462231 0
M  V30 4 C -0.382507 -0.680314 4.973889 0
M  V30 5 O 0.360807 0.051779 5.660463 0
M  V30 6 C -0.395174 -1.671407 3.866352 0
M  V30 7 S 1.259360 -1.973919 3.229800 0
M  V30 8 C 1.850549 -0.479314 2.456531 0
M  V30 9 N 1.570773 -0.336116 1.151908 0
M  V30 10 C 1.972756 0.766956 0.455642 0
M  V30 11 O 1.657570 0.874157 -0.908017 0
M  V30 12 C 0.937938 -0.134525 -1.558835 0
M  V30 13 C 1.504552 -1.222408 -2.191232 0
M  V30 14 C 0.647141 -2.127675 -2.785921 0
M  V30 15 C -0.721536 -1.948602 -2.747565 0
M  V30 16 C -1.620402 -2.914554 -3.380589 0
M  V30 17 N -1.217363 -4.026261 -4.036284 0
M  V30 18 C -2.280643 -4.703629 -4.501060 0
M  V30 19 C -2.550090 -5.854340 -5.213684 0
M  V30 20 C -3.841604 -6.233113 -5.508004 0
M  V30 21 C -4.071476 -7.457172 -6.264023 0
M  V30 22 O -3.141082 -8.196230 -6.668427 0
M  V30 23 O -5.325275 -7.904413 -6.597111 0
M  V30 24 C -4.932451 -5.489146 -5.110065 0
M  V30 25 C -4.663807 -4.339611 -4.398193 0
M  V30 26 C -3.367090 -3.954555 -4.099855 0
M  V30 27 N -2.976801 -2.851702 -3.410011 0
M  V30 28 C -1.270569 -0.845319 -2.104974 0
M  V30 29 C -0.426715 0.067825 -1.506158 0
M  V30 30 C 2.678610 1.783360 1.041350 0
M  V30 31 C 3.101562 2.933025 0.332681 0
M  V30 32 N 3.427147 3.870971 -0.243703 0
M  V30 33 C 2.947150 1.606296 2.371278 0
M  V30 34 C 3.691769 2.601626 3.137352 0
M  V30 35 C 4.842252 3.187231 2.649304 0
M  V30 36 C 5.521670 4.127076 3.403686 0
M  V30 37 C 5.076877 4.504890 4.653086 0
M  V30 38 F 5.810139 5.439852 5.327396 0
M  V30 39 C 3.925213 3.931325 5.164052 0
M  V30 40 C 3.267773 2.997218 4.390629 0
M  V30 41 N 2.552557 0.509100 3.082985 0
M  V30 42 H -2.356030 2.563169 6.549293 0
M  V30 43 H -1.508915 1.983187 5.092340 0
M  V30 44 H -0.638441 2.168029 6.712047 0
M  V30 45 H -3.094612 0.423360 6.576552 0
M  V30 46 H -1.539240 0.137021 7.484827 0
M  V30 47 H -1.079557 -1.307752 3.052005 0
M  V30 48 H -0.806197 -2.637850 4.216146 0
M  V30 49 H 2.580510 -1.304403 -2.185274 0
M  V30 50 H 1.103939 -2.968334 -3.273433 0
M  V30 51 H -1.690682 -6.444997 -5.529787 0
M  V30 52 H -5.572682 -8.876113 -6.673459 0
M  V30 53 H -5.949420 -5.775720 -5.334605 0
M  V30 54 H -5.507365 -3.738412 -4.074479 0
M  V30 55 H -3.568547 -2.120815 -2.995349 0
M  V30 56 H -2.345630 -0.726309 -2.088140 0
M  V30 57 H -0.927833 0.897337 -1.027521 0
M  V30 58 H 5.231716 2.924284 1.675274 0
M  V30 59 H 6.431484 4.570955 2.984627 0
M  V30 60 H 3.585777 4.234892 6.144635 0
M  V30 61 H 2.379662 2.591544 4.848694 0
M  V30 END ATOM
M  V30 BEGIN BOND
M  V30 1 1 1 2
M  V30 2 1 2 3
M  V30 3 1 3 4
M  V30 4 2 4 5
M  V30 5 1 4 6
M  V30 6 1 6 7
M  V30 7 1 7 8
M  V30 8 2 8 9
M  V30 9 1 9 10
M  V30 10 1 10 11
M  V30 11 1 11 12
M  V30 12 2 12 13
M  V30 13 1 13 14
M  V30 14 2 14 15
M  V30 15 1 15 16
M  V30 16 2 16 17
M  V30 17 1 17 18
M  V30 18 2 18 19
M  V30 19 1 19 20
M  V30 20 1 20 21
M  V30 21 2 21 22
M  V30 22 1 21 23
M  V30 23 2 20 24
M  V30 24 1 24 25
M  V30 25 2 25 26
M  V30 26 1 26 27
M  V30 27 1 15 28
M  V30 28 2 28 29
M  V30 29 2 10 30
M  V30 30 1 30 31
M  V30 31 3 31 32
M  V30 32 1 30 33
M  V30 33 1 33 34
M  V30 34 2 34 35
M  V30 35 1 35 36
M  V30 36 2 36 37
M  V30 37 1 37 38
M  V30 38 1 37 39
M  V30 39 2 39 40
M  V30 40 2 33 41
M  V30 41 1 41 8
M  V30 42 1 29 12
M  V30 43 1 40 34
M  V30 44 1 27 16
M  V30 45 1 26 18
M  V30 46 1 1 42
M  V30 47 1 1 43
M  V30 48 1 1 44
M  V30 49 1 2 45
M  V30 50 1 2 46
M  V30 51 1 6 47
M  V30 52 1 6 48
M  V30 53 1 13 49
M  V30 54 1 14 50
M  V30 55 1 19 51
M  V30 56 1 23 52
M  V30 57 1 24 53
M  V30 58 1 25 54
M  V30 59 1 27 55
M  V30 60 1 28 56
M  V30 61 1 29 57
M  V30 62 1 35 58
M  V30 63 1 36 59
M  V30 64 1 39 60
M  V30 65 1 40 61
M  V30 END BOND
M  V30 END CTAB
M  END
>  <Dataset>  (148) 
ChEMBL_Kinases

>  <Ligand_Instance>  (148) 
nan

>  <PDB_ID>  (148) 
nan

>  <Standardized_SMILES>  (148) 
CCOC(=O)CSc1nc(Oc2ccc(-c3nc4cc(C(=O)O)ccc4[nH]3)cc2)c(C#N)c(-c2ccc(F)cc2)n1

>  <Name>  (148) 
nan

>  <Pocket>  (148) 
nan

>  <ATP_Site>  (148) 
nan

>  <Peripheral>  (148) 
nan

>  <Num_H_Atoms_ProtBoundConf>  (148) 
nan

>  <Num_Resolved_Atoms>  (148) 
nan

>  <Num_Not_Resolved_Atoms>  (148) 
nan

$$$$
CHEMBL4159742
     RDKit          3D

  0  0  0  0  0  0  0  0  0  0999 V3000
M  V30 BEGIN CTAB
M  V30 COUNTS 50 52 0 0 0
M  V30 BEGIN ATOM
M  V30 1 C -1.590057 -1.614461 4.392798 0
M  V30 2 O -0.520951 -1.346333 5.247827 0
M  V30 3 C 0.703736 -1.545807 4.624215 0
M  V30 4 C 1.806062 -1.231165 5.627330 0
M  V30 5 S 3.441900 -1.467291 4.870370 0
M  V30 6 C 3.582003 -0.123408 3.523506 0
M  V30 7 N 3.849764 0.882978 3.118107 0
M  V30 8 C 3.711107 1.429435 1.948771 0
M  V30 9 C 4.139003 2.817003 1.628675 0
M  V30 10 C 3.131044 0.650074 1.016953 0
M  V30 11 C 2.721170 0.802874 -0.445374 0
M  V30 12 C 2.955744 1.827669 -1.287669 0
M  V30 13 C 2.491665 1.857650 -2.577271 0
M  V30 14 N 1.763495 0.808078 -3.026802 0
M  V30 15 C 1.512679 -0.231177 -2.208969 0
M  V30 16 N 0.746799 -1.397855 -2.496904 0
M  V30 17 C -0.597848 -1.317915 -1.998484 0
M  V30 18 C -1.096201 -0.235784 -1.295374 0
M  V30 19 C -2.363828 -0.101132 -0.782299 0
M  V30 20 C -3.226323 -1.140392 -0.983632 0
M  V30 21 O -4.521046 -1.075576 -0.493165 0
M  V30 22 C -5.045090 0.001418 0.220749 0
M  V30 23 C -2.803442 -2.255520 -1.676763 0
M  V30 24 C -1.510427 -2.363431 -2.185713 0
M  V30 25 O -1.138971 -3.516405 -2.878256 0
M  V30 26 C -2.077749 -4.562305 -3.054839 0
M  V30 27 N 1.991509 -0.206635 -0.959769 0
M  V30 28 S 2.833035 -0.815211 1.915531 0
M  V30 29 H -2.530755 -1.432460 4.948895 0
M  V30 30 H -1.625032 -2.675468 4.053598 0
M  V30 31 H -1.613417 -0.949207 3.503053 0
M  V30 32 H 0.746605 -2.629892 4.338332 0
M  V30 33 H 0.761406 -0.898917 3.737237 0
M  V30 34 H 1.681607 -1.808247 6.536737 0
M  V30 35 H 1.729527 -0.150398 5.884412 0
M  V30 36 H 4.976215 2.869923 0.916000 0
M  V30 37 H 4.474334 3.404932 2.510793 0
M  V30 38 H 3.242912 3.401068 1.258440 0
M  V30 39 H 3.528477 2.627319 -0.912358 0
M  V30 40 H 2.721038 2.714164 -3.186809 0
M  V30 41 H 1.006567 -2.273556 -2.997203 0
M  V30 42 H -0.421832 0.600368 -1.126118 0
M  V30 43 H -2.645170 0.789380 -0.248729 0
M  V30 44 H -4.239289 0.337088 0.933404 0
M  V30 45 H -5.345529 0.821870 -0.452525 0
M  V30 46 H -5.911285 -0.272713 0.856705 0
M  V30 47 H -3.541201 -3.037124 -1.798846 0
M  V30 48 H -1.587355 -5.510874 -3.354537 0
M  V30 49 H -2.625517 -4.813853 -2.116914 0
M  V30 50 H -2.769569 -4.284218 -3.897852 0
M  V30 END ATOM
M  V30 BEGIN BOND
M  V30 1 1 1 2
M  V30 2 1 2 3
M  V30 3 1 3 4
M  V30 4 1 4 5
M  V30 5 1 5 6
M  V30 6 2 6 7
M  V30 7 1 7 8
M  V30 8 1 8 9
M  V30 9 2 8 10
M  V30 10 1 10 11
M  V30 11 2 11 12
M  V30 12 1 12 13
M  V30 13 2 13 14
M  V30 14 1 14 15
M  V30 15 1 15 16
M  V30 16 1 16 17
M  V30 17 2 17 18
M  V30 18 1 18 19
M  V30 19 2 19 20
M  V30 20 1 20 21
M  V30 21 1 21 22
M  V30 22 1 20 23
M  V30 23 2 23 24
M  V30 24 1 24 25
M  V30 25 1 25 26
M  V30 26 2 15 27
M  V30 27 1 10 28
M  V30 28 1 28 6
M  V30 29 1 27 11
M  V30 30 1 24 17
M  V30 31 1 1 29
M  V30 32 1 1 30
M  V30 33 1 1 31
M  V30 34 1 3 32
M  V30 35 1 3 33
M  V30 36 1 4 34
M  V30 37 1 4 35
M  V30 38 1 9 36
M  V30 39 1 9 37
M  V30 40 1 9 38
M  V30 41 1 12 39
M  V30 42 1 13 40
M  V30 43 1 16 41
M  V30 44 1 18 42
M  V30 45 1 19 43
M  V30 46 1 22 44
M  V30 47 1 22 45
M  V30 48 1 22 46
M  V30 49 1 23 47
M  V30 50 1 26 48
M  V30 51 1 26 49
M  V30 52 1 26 50
M  V30 END BOND
M  V30 END CTAB
M  END
>  <Dataset>  (149) 
ChEMBL_Kinases

>  <Ligand_Instance>  (149) 
nan

>  <PDB_ID>  (149) 
nan

>  <Standardized_SMILES>  (149) 
COCCSc1nc(C)c(-c2ccnc(Nc3ccc(OC)cc3OC)n2)s1

>  <Name>  (149) 
nan

>  <Pocket>  (149) 
nan

>  <ATP_Site>  (149) 
nan

>  <Peripheral>  (149) 
nan

>  <Num_H_Atoms_ProtBoundConf>  (149) 
nan

>  <Num_Resolved_Atoms>  (149) 
nan

>  <Num_Not_Resolved_Atoms>  (149) 
nan

$$$$
CHEMBL4160370
     RDKit          3D

  0  0  0  0  0  0  0  0  0  0999 V3000
M  V30 BEGIN CTAB
M  V30 COUNTS 79 85 0 0 0
M  V30 BEGIN ATOM
M  V30 1 C -0.074752 2.631165 -2.280523 0
M  V30 2 C -0.529511 1.609963 -1.270925 0 CFG=2
M  V30 3 C -1.920396 1.078822 -1.633217 0
M  V30 4 C -2.899372 2.198121 -1.501077 0
M  V30 5 C -2.958320 2.741575 -0.066713 0 CFG=2
M  V30 6 N -4.065998 3.603253 -0.001275 0
M  V30 7 C -5.280229 2.929177 -0.270451 0
M  V30 8 C -6.304778 3.135515 0.817536 0
M  V30 9 O -6.466620 4.509207 0.982976 0
M  V30 10 C -5.326057 4.941740 1.660259 0
M  V30 11 C -4.070355 4.694187 0.880105 0
M  V30 12 C -1.620684 3.282785 0.285984 0
M  V30 13 C -0.610824 2.154794 0.139348 0 CFG=2
M  V30 14 C 0.710224 2.439988 0.767138 0
M  V30 15 C 1.896538 2.116751 -0.084727 0
M  V30 16 C 1.807297 0.890263 -0.902237 0 CFG=2
M  V30 17 C 0.372575 0.438300 -1.149641 0 CFG=2
M  V30 18 C 0.431597 -0.505473 -2.285438 0
M  V30 19 C 1.128535 -1.784927 -1.811984 0
M  V30 20 C 2.422536 -1.532603 -1.123589 0 CFG=2
M  V30 21 C 3.497426 -1.324598 -2.144571 0
M  V30 22 C 2.805982 -2.443905 -0.026500 0 CFG=1
M  V30 23 C 3.065327 -3.843981 -0.261630 0
M  V30 24 C 4.014397 -4.389024 -1.104361 0
M  V30 25 C 4.237398 -5.727930 -1.311040 0
M  V30 26 C 3.446770 -6.631048 -0.618509 0
M  V30 27 C 3.652286 -7.981230 -0.809827 0
M  V30 28 C 2.852652 -8.890495 -0.109426 0
M  V30 29 N 1.904778 -8.417646 0.731902 0
M  V30 30 C 1.709244 -7.097138 0.914143 0
M  V30 31 C 2.475495 -6.165618 0.243399 0
M  V30 32 C 2.295441 -4.808831 0.412172 0
M  V30 33 C 4.029849 -1.735394 0.525798 0
M  V30 34 C 3.781501 -0.242497 0.244187 0
M  V30 35 C 2.400895 -0.290042 -0.247765 0 CFG=1
M  V30 36 H -0.811120 2.681879 -3.101812 0
M  V30 37 H 0.041113 3.620504 -1.807864 0
M  V30 38 H 0.891314 2.374986 -2.772770 0
M  V30 39 H -2.177345 0.250354 -0.961298 0
M  V30 40 H -1.875124 0.808273 -2.704237 0
M  V30 41 H -3.869207 1.893185 -1.887813 0
M  V30 42 H -2.574987 3.057566 -2.152148 0
M  V30 43 H -3.140715 1.856604 0.602419 0
M  V30 44 H -5.716197 3.147529 -1.267611 0
M  V30 45 H -5.078151 1.815569 -0.264073 0
M  V30 46 H -5.894919 2.758400 1.778009 0
M  V30 47 H -7.222191 2.605672 0.510872 0
M  V30 48 H -5.439211 6.032420 1.816856 0
M  V30 49 H -5.226552 4.431910 2.657439 0
M  V30 50 H -3.885962 5.624701 0.259433 0
M  V30 51 H -3.220195 4.692548 1.592209 0
M  V30 52 H -1.614486 3.478423 1.399820 0
M  V30 53 H -1.337827 4.175719 -0.279928 0
M  V30 54 H -1.067519 1.308975 0.734689 0
M  V30 55 H 0.751876 3.524922 1.015097 0
M  V30 56 H 0.851506 1.908650 1.753949 0
M  V30 57 H 2.130231 3.013091 -0.707701 0
M  V30 58 H 2.786723 1.998962 0.596303 0
M  V30 59 H 2.227684 1.101023 -1.909369 0
M  V30 60 H -0.021488 -0.154550 -0.270919 0
M  V30 61 H -0.591372 -0.795452 -2.602626 0
M  V30 62 H 0.953441 -0.087082 -3.172415 0
M  V30 63 H 1.356831 -2.298213 -2.770682 0
M  V30 64 H 0.394960 -2.298710 -1.174475 0
M  V30 65 H 3.429990 -2.122961 -2.940415 0
M  V30 66 H 3.388648 -0.370241 -2.702114 0
M  V30 67 H 4.522408 -1.338806 -1.773035 0
M  V30 68 H 2.021103 -2.314253 0.780636 0
M  V30 69 H 4.636091 -3.725240 -1.646287 0
M  V30 70 H 4.997666 -6.095728 -1.985904 0
M  V30 71 H 4.417625 -8.369998 -1.489109 0
M  V30 72 H 3.020569 -9.965614 -0.265577 0
M  V30 73 H 0.939513 -6.774394 1.596814 0
M  V30 74 H 1.503449 -4.552494 1.113893 0
M  V30 75 H 4.118670 -1.903808 1.621163 0
M  V30 76 H 4.976053 -2.058843 0.078521 0
M  V30 77 H 4.530230 0.190424 -0.424568 0
M  V30 78 H 3.891142 0.300320 1.218157 0
M  V30 79 H 1.739169 -0.530647 0.635971 0
M  V30 END ATOM
M  V30 BEGIN BOND
M  V30 1 1 2 1 CFG=3
M  V30 2 1 2 3
M  V30 3 1 3 4
M  V30 4 1 4 5
M  V30 5 1 5 6
M  V30 6 1 6 7
M  V30 7 1 7 8
M  V30 8 1 8 9
M  V30 9 1 9 10
M  V30 10 1 10 11
M  V30 11 1 5 12
M  V30 12 1 12 13
M  V30 13 1 13 14
M  V30 14 1 14 15
M  V30 15 1 15 16
M  V30 16 1 16 17
M  V30 17 1 17 18
M  V30 18 1 18 19
M  V30 19 1 19 20
M  V30 20 1 20 21 CFG=3
M  V30 21 1 20 22
M  V30 22 1 22 23
M  V30 23 2 23 24
M  V30 24 1 24 25
M  V30 25 2 25 26
M  V30 26 1 26 27
M  V30 27 2 27 28
M  V30 28 1 28 29
M  V30 29 2 29 30
M  V30 30 1 30 31
M  V30 31 2 31 32
M  V30 32 1 22 33
M  V30 33 1 33 34
M  V30 34 1 34 35
M  V30 35 1 13 2
M  V30 36 1 35 16
M  V30 37 1 17 2
M  V30 38 1 35 20
M  V30 39 1 11 6
M  V30 40 1 32 23
M  V30 41 1 31 26
M  V30 42 1 1 36
M  V30 43 1 1 37
M  V30 44 1 1 38
M  V30 45 1 3 39
M  V30 46 1 3 40
M  V30 47 1 4 41
M  V30 48 1 4 42
M  V30 49 1 5 43 CFG=1
M  V30 50 1 7 44
M  V30 51 1 7 45
M  V30 52 1 8 46
M  V30 53 1 8 47
M  V30 54 1 10 48
M  V30 55 1 10 49
M  V30 56 1 11 50
M  V30 57 1 11 51
M  V30 58 1 12 52
M  V30 59 1 12 53
M  V30 60 1 13 54 CFG=1
M  V30 61 1 14 55
M  V30 62 1 14 56
M  V30 63 1 15 57
M  V30 64 1 15 58
M  V30 65 1 16 59 CFG=3
M  V30 66 1 17 60 CFG=1
M  V30 67 1 18 61
M  V30 68 1 18 62
M  V30 69 1 19 63
M  V30 70 1 19 64
M  V30 71 1 21 65
M  V30 72 1 21 66
M  V30 73 1 21 67
M  V30 74 1 22 68 CFG=1
M  V30 75 1 24 69
M  V30 76 1 25 70
M  V30 77 1 27 71
M  V30 78 1 28 72
M  V30 79 1 30 73
M  V30 80 1 32 74
M  V30 81 1 33 75
M  V30 82 1 33 76
M  V30 83 1 34 77
M  V30 84 1 34 78
M  V30 85 1 35 79 CFG=1
M  V30 END BOND
M  V30 END CTAB
M  END
>  <Dataset>  (150) 
ChEMBL_Kinases

>  <Ligand_Instance>  (150) 
nan

>  <PDB_ID>  (150) 
nan

>  <Standardized_SMILES>  (150) 
C[C@]12CC[C@H](N3CCOCC3)C[C@@H]1CC[C@@H]1[C@@H]2CC[C@]2(C)[C@@H](c3ccc4ccncc4c3)CC[C@@H]12

>  <Name>  (150) 
nan

>  <Pocket>  (150) 
nan

>  <ATP_Site>  (150) 
nan

>  <Peripheral>  (150) 
nan

>  <Num_H_Atoms_ProtBoundConf>  (150) 
nan

>  <Num_Resolved_Atoms>  (150) 
nan

>  <Num_Not_Resolved_Atoms>  (150) 
nan

$$$$
CHEMBL4789009
     RDKit          3D

  0  0  0  0  0  0  0  0  0  0999 V3000
M  V30 BEGIN CTAB
M  V30 COUNTS 55 58 0 0 0
M  V30 BEGIN ATOM
M  V30 1 C 3.558839 -4.105558 2.769112 0
M  V30 2 C 4.285026 -3.007842 2.037759 0
M  V30 3 O 5.190940 -3.635975 1.390528 0
M  V30 4 N 4.042924 -1.590151 2.045104 0
M  V30 5 C 4.911961 -0.764025 1.235453 0 CFG=2
M  V30 6 C 5.577369 0.280054 2.091301 0
M  V30 7 C 4.445361 1.152869 2.622646 0
M  V30 8 C 3.798646 1.938761 1.529813 0
M  V30 9 C 3.309142 1.046964 0.449452 0 CFG=2
M  V30 10 C 1.937854 0.470750 0.712942 0
M  V30 11 O 1.388715 -0.678006 0.856946 0
M  V30 12 N 0.854446 1.388298 0.862483 0
M  V30 13 C -0.347958 0.625182 1.103266 0
M  V30 14 C -1.158674 0.184688 0.077532 0
M  V30 15 C -2.320389 -0.559468 0.325477 0
M  V30 16 C -2.995560 -0.920417 -0.907487 0
M  V30 17 C -2.414659 -1.502846 -2.022330 0
M  V30 18 N -3.363321 -1.662720 -2.954455 0
M  V30 19 C -4.514178 -1.190953 -2.437180 0
M  V30 20 N -4.289593 -0.730900 -1.172705 0
M  V30 21 C -5.508103 -0.220044 -0.642144 0
M  V30 22 C -6.619581 -1.263774 -0.649186 0
M  V30 23 C -6.913305 -1.702662 -2.072126 0
M  V30 24 C -5.893254 -1.126015 -3.037179 0
M  V30 25 C -2.606378 -0.826218 1.646114 0
M  V30 26 Cl -4.049620 -1.785484 1.890025 0
M  V30 27 C -1.794640 -0.384007 2.669170 0
M  V30 28 N -0.668581 0.340237 2.390435 0
M  V30 29 C 4.193220 -0.120816 0.116169 0
M  V30 30 H 2.736633 -3.651798 3.369289 0
M  V30 31 H 3.143645 -4.862487 2.074986 0
M  V30 32 H 4.242914 -4.606567 3.474470 0
M  V30 33 H 3.236554 -1.477404 2.686452 0
M  V30 34 H 5.676117 -1.461182 0.777703 0
M  V30 35 H 6.311589 0.827293 1.498498 0
M  V30 36 H 6.022561 -0.221457 2.958470 0
M  V30 37 H 4.936044 1.813955 3.388297 0
M  V30 38 H 3.732486 0.480288 3.129891 0
M  V30 39 H 3.046876 2.648586 1.899017 0
M  V30 40 H 4.601911 2.582787 1.075014 0
M  V30 41 H 3.162470 1.703125 -0.468139 0
M  V30 42 H 0.939395 2.452276 0.798704 0
M  V30 43 H -0.797438 0.475454 -0.901524 0
M  V30 44 H -1.367374 -1.790516 -2.143275 0
M  V30 45 H -5.912811 0.591879 -1.332422 0
M  V30 46 H -5.392574 0.294866 0.320555 0
M  V30 47 H -7.509755 -0.950023 -0.085029 0
M  V30 48 H -6.207688 -2.161939 -0.148026 0
M  V30 49 H -6.956073 -2.793044 -2.199189 0
M  V30 50 H -7.900088 -1.282758 -2.353068 0
M  V30 51 H -6.186716 -0.103803 -3.271884 0
M  V30 52 H -5.931963 -1.765582 -3.935623 0
M  V30 53 H -2.122441 -0.654617 3.666499 0
M  V30 54 H 3.530861 -0.889491 -0.391334 0
M  V30 55 H 4.873298 0.211299 -0.708020 0
M  V30 END ATOM
M  V30 BEGIN BOND
M  V30 1 1 1 2
M  V30 2 2 2 3
M  V30 3 1 2 4
M  V30 4 1 4 5
M  V30 5 1 5 6
M  V30 6 1 6 7
M  V30 7 1 7 8
M  V30 8 1 8 9
M  V30 9 1 9 10
M  V30 10 2 10 11
M  V30 11 1 10 12
M  V30 12 1 12 13
M  V30 13 2 13 14
M  V30 14 1 14 15
M  V30 15 1 15 16
M  V30 16 2 16 17
M  V30 17 1 17 18
M  V30 18 2 18 19
M  V30 19 1 19 20
M  V30 20 1 20 21
M  V30 21 1 21 22
M  V30 22 1 22 23
M  V30 23 1 23 24
M  V30 24 2 15 25
M  V30 25 1 25 26
M  V30 26 1 25 27
M  V30 27 2 27 28
M  V30 28 1 9 29
M  V30 29 1 29 5
M  V30 30 1 28 13
M  V30 31 1 20 16
M  V30 32 1 24 19
M  V30 33 1 1 30
M  V30 34 1 1 31
M  V30 35 1 1 32
M  V30 36 1 4 33
M  V30 37 1 5 34 CFG=3
M  V30 38 1 6 35
M  V30 39 1 6 36
M  V30 40 1 7 37
M  V30 41 1 7 38
M  V30 42 1 8 39
M  V30 43 1 8 40
M  V30 44 1 9 41 CFG=3
M  V30 45 1 12 42
M  V30 46 1 14 43
M  V30 47 1 17 44
M  V30 48 1 21 45
M  V30 49 1 21 46
M  V30 50 1 22 47
M  V30 51 1 22 48
M  V30 52 1 23 49
M  V30 53 1 23 50
M  V30 54 1 24 51
M  V30 55 1 24 52
M  V30 56 1 27 53
M  V30 57 1 29 54
M  V30 58 1 29 55
M  V30 END BOND
M  V30 END CTAB
M  END
>  <Dataset>  (151) 
ChEMBL_Kinases

>  <Ligand_Instance>  (151) 
nan

>  <PDB_ID>  (151) 
nan

>  <Standardized_SMILES>  (151) 
CC(=O)N[C@@H]1CCC[C@H](C(=O)Nc2cc(-c3cnc4n3CCCC4)c(Cl)cn2)C1

>  <Name>  (151) 
nan

>  <Pocket>  (151) 
nan

>  <ATP_Site>  (151) 
nan

>  <Peripheral>  (151) 
nan

>  <Num_H_Atoms_ProtBoundConf>  (151) 
nan

>  <Num_Resolved_Atoms>  (151) 
nan

>  <Num_Not_Resolved_Atoms>  (151) 
nan

$$$$
CHEMBL4161023
     RDKit          3D

  0  0  0  0  0  0  0  0  0  0999 V3000
M  V30 BEGIN CTAB
M  V30 COUNTS 54 57 0 0 0
M  V30 BEGIN ATOM
M  V30 1 C 6.356682 -2.529734 4.753556 0
M  V30 2 O 5.625322 -3.472897 4.076017 0
M  V30 3 C 4.625248 -2.985213 3.255895 0
M  V30 4 C 3.598158 -2.191919 3.989166 0
M  V30 5 N 2.552618 -1.715095 3.066099 0
M  V30 6 C 2.590704 -0.551216 2.407729 0
M  V30 7 C 1.421741 -0.462814 1.637292 0
M  V30 8 C 1.080373 0.660954 0.783673 0
M  V30 9 C 1.907636 1.768964 0.834346 0
M  V30 10 C 1.715657 2.920144 0.109704 0
M  V30 11 N 0.645753 2.940714 -0.691882 0
M  V30 12 C -0.196590 1.881968 -0.779510 0
M  V30 13 N -1.297487 2.038508 -1.651656 0
M  V30 14 C -2.314901 1.179332 -2.126165 0
M  V30 15 C -2.263550 -0.171145 -1.848879 0
M  V30 16 C -3.165019 -1.108456 -2.275035 0
M  V30 17 C -4.218436 -0.710795 -3.042979 0
M  V30 18 O -5.229463 -1.491785 -3.570424 0
M  V30 19 C -5.286714 -2.888368 -3.355894 0
M  V30 20 C -4.320522 0.631035 -3.352512 0
M  V30 21 C -3.397190 1.543455 -2.906429 0
M  V30 22 O -3.520559 2.907694 -3.229028 0
M  V30 23 C -4.303960 3.654220 -2.309380 0
M  V30 24 F -3.798563 3.626953 -1.029631 0
M  V30 25 F -4.419759 4.981563 -2.673159 0
M  V30 26 F -5.588939 3.143976 -2.229244 0
M  V30 27 N 0.032174 0.775917 -0.050313 0
M  V30 28 C 0.759458 -1.637929 1.918882 0
M  V30 29 C -0.442688 -2.123668 1.472152 0
M  V30 30 C -0.977316 -3.333513 1.858072 0
M  V30 31 C -0.280334 -4.122128 2.747169 0
M  V30 32 C 0.931172 -3.657480 3.212683 0
M  V30 33 C 1.455047 -2.445137 2.818843 0
M  V30 34 H 5.711909 -1.930030 5.422535 0
M  V30 35 H 7.101302 -3.070951 5.394975 0
M  V30 36 H 6.915834 -1.892556 4.019602 0
M  V30 37 H 5.032349 -2.434220 2.375609 0
M  V30 38 H 4.125183 -3.891336 2.809777 0
M  V30 39 H 4.112298 -1.283778 4.422114 0
M  V30 40 H 3.139633 -2.740767 4.819523 0
M  V30 41 H 3.414324 0.156811 2.500152 0
M  V30 42 H 2.788507 1.800005 1.471803 0
M  V30 43 H 2.377352 3.771844 0.168411 0
M  V30 44 H -1.445012 2.997010 -2.087429 0
M  V30 45 H -1.466886 -0.563332 -1.264787 0
M  V30 46 H -3.111549 -2.153509 -2.050556 0
M  V30 47 H -6.359953 -3.203494 -3.288813 0
M  V30 48 H -4.750224 -3.478379 -4.109931 0
M  V30 49 H -4.844364 -3.182646 -2.360900 0
M  V30 50 H -5.116563 1.043998 -3.953471 0
M  V30 51 H -1.026771 -1.551518 0.788138 0
M  V30 52 H -1.934519 -3.689021 1.483840 0
M  V30 53 H -0.622111 -5.087520 3.106728 0
M  V30 54 H 1.574463 -4.196167 3.922224 0
M  V30 END ATOM
M  V30 BEGIN BOND
M  V30 1 1 1 2
M  V30 2 1 2 3
M  V30 3 1 3 4
M  V30 4 1 4 5
M  V30 5 1 5 6
M  V30 6 2 6 7
M  V30 7 1 7 8
M  V30 8 2 8 9
M  V30 9 1 9 10
M  V30 10 2 10 11
M  V30 11 1 11 12
M  V30 12 1 12 13
M  V30 13 1 13 14
M  V30 14 2 14 15
M  V30 15 1 15 16
M  V30 16 2 16 17
M  V30 17 1 17 18
M  V30 18 1 18 19
M  V30 19 1 17 20
M  V30 20 2 20 21
M  V30 21 1 21 22
M  V30 22 1 22 23
M  V30 23 1 23 24
M  V30 24 1 23 25
M  V30 25 1 23 26
M  V30 26 2 12 27
M  V30 27 1 7 28
M  V30 28 2 28 29
M  V30 29 1 29 30
M  V30 30 2 30 31
M  V30 31 1 31 32
M  V30 32 2 32 33
M  V30 33 1 33 5
M  V30 34 1 27 8
M  V30 35 1 33 28
M  V30 36 1 21 14
M  V30 37 1 1 34
M  V30 38 1 1 35
M  V30 39 1 1 36
M  V30 40 1 3 37
M  V30 41 1 3 38
M  V30 42 1 4 39
M  V30 43 1 4 40
M  V30 44 1 6 41
M  V30 45 1 9 42
M  V30 46 1 10 43
M  V30 47 1 13 44
M  V30 48 1 15 45
M  V30 49 1 16 46
M  V30 50 1 19 47
M  V30 51 1 19 48
M  V30 52 1 19 49
M  V30 53 1 20 50
M  V30 54 1 29 51
M  V30 55 1 30 52
M  V30 56 1 31 53
M  V30 57 1 32 54
M  V30 END BOND
M  V30 END CTAB
M  END
>  <Dataset>  (152) 
ChEMBL_Kinases

>  <Ligand_Instance>  (152) 
nan

>  <PDB_ID>  (152) 
nan

>  <Standardized_SMILES>  (152) 
COCCn1cc(-c2ccnc(Nc3ccc(OC)cc3OC(F)(F)F)n2)c2ccccc21

>  <Name>  (152) 
nan

>  <Pocket>  (152) 
nan

>  <ATP_Site>  (152) 
nan

>  <Peripheral>  (152) 
nan

>  <Num_H_Atoms_ProtBoundConf>  (152) 
nan

>  <Num_Resolved_Atoms>  (152) 
nan

>  <Num_Not_Resolved_Atoms>  (152) 
nan

$$$$
CHEMBL4161007
     RDKit          3D

  0  0  0  0  0  0  0  0  0  0999 V3000
M  V30 BEGIN CTAB
M  V30 COUNTS 66 72 0 0 0
M  V30 BEGIN ATOM
M  V30 1 C 1.448065 1.932711 4.366267 0
M  V30 2 C 2.704159 1.788305 3.585095 0
M  V30 3 C 3.906077 1.591882 4.232935 0
M  V30 4 C 5.074034 1.458196 3.509214 0
M  V30 5 C 4.966830 1.530723 2.144426 0
M  V30 6 N 5.949692 1.436157 1.239987 0
M  V30 7 C 5.346410 1.574134 0.047162 0
M  V30 8 C 3.971497 1.757920 0.176838 0
M  V30 9 C 3.089809 1.939486 -0.963330 0
M  V30 10 C 1.906311 1.432485 -1.268719 0
M  V30 11 C 1.009832 0.496986 -0.605385 0
M  V30 12 C -0.362542 0.655087 -0.509334 0
M  V30 13 N -0.934979 -0.352462 0.139229 0
M  V30 14 C 0.019688 -1.227881 0.506165 0
M  V30 15 C -0.008589 -2.430831 1.187416 0
M  V30 16 C 1.162584 -3.120761 1.414546 0
M  V30 17 C 2.368251 -2.587978 0.948154 0
M  V30 18 C 2.381976 -1.388147 0.270872 0
M  V30 19 C 1.207424 -0.700108 0.046012 0
M  V30 20 C -1.135695 -3.197708 1.777256 0
M  V30 21 N -2.414925 -2.525895 1.521953 0
M  V30 22 C -3.372626 -2.525049 2.575392 0
M  V30 23 O -4.526978 -2.062921 2.704641 0
M  V30 24 C -2.822449 -1.861118 0.325303 0
M  V30 25 N -4.211160 -2.039061 0.006581 0
M  V30 26 C -4.580173 -1.506371 -1.269182 0
M  V30 27 C -3.810032 -2.119762 -2.412900 0
M  V30 28 C -3.856205 -3.605022 -2.268968 0
M  V30 29 C -4.815196 -4.093598 -1.220251 0
M  V30 30 C -4.650253 -3.398429 0.114493 0
M  V30 31 C -2.388710 -0.418567 0.370976 0
M  V30 32 C 1.504454 1.999466 -2.577502 0
M  V30 33 O 0.434997 1.781630 -3.245655 0
M  V30 34 N 2.494409 2.888512 -3.079705 0
M  V30 35 C 3.487426 2.847483 -2.062794 0
M  V30 36 O 4.560289 3.535959 -2.159132 0
M  V30 37 N 3.781067 1.724045 1.506182 0
M  V30 38 C 2.651661 1.853830 2.202512 0
M  V30 39 H 0.865776 1.014469 4.193207 0
M  V30 40 H 0.928874 2.849321 4.019072 0
M  V30 41 H 1.705308 1.992154 5.441942 0
M  V30 42 H 3.992645 1.533433 5.320858 0
M  V30 43 H 6.046808 1.301119 3.997325 0
M  V30 44 H 5.937342 1.534977 -0.882090 0
M  V30 45 H -0.925821 1.508354 -0.916633 0
M  V30 46 H 1.201255 -4.071642 1.944600 0
M  V30 47 H 3.280188 -3.171313 1.150175 0
M  V30 48 H 3.329099 -1.009291 -0.079123 0
M  V30 49 H -0.945180 -3.254506 2.876347 0
M  V30 50 H -1.171305 -4.237466 1.415118 0
M  V30 51 H -4.085798 -2.535860 3.388161 0
M  V30 52 H -2.259301 -2.311073 -0.543043 0
M  V30 53 H -5.649344 -1.834292 -1.439856 0
M  V30 54 H -4.612736 -0.407560 -1.323077 0
M  V30 55 H -2.774956 -1.719090 -2.518119 0
M  V30 56 H -4.330057 -1.800338 -3.357010 0
M  V30 57 H -4.194078 -4.043283 -3.232638 0
M  V30 58 H -2.840764 -4.054560 -2.089958 0
M  V30 59 H -4.632035 -5.188081 -1.095486 0
M  V30 60 H -5.859242 -3.985875 -1.605962 0
M  V30 61 H -4.022420 -4.048538 0.753701 0
M  V30 62 H -5.688437 -3.364378 0.551294 0
M  V30 63 H -2.574418 0.047457 1.348666 0
M  V30 64 H -2.890788 0.180298 -0.415191 0
M  V30 65 H 2.480968 3.424778 -3.966570 0
M  V30 66 H 1.708771 2.013158 1.704776 0
M  V30 END ATOM
M  V30 BEGIN BOND
M  V30 1 1 1 2
M  V30 2 1 2 3
M  V30 3 2 3 4
M  V30 4 1 4 5
M  V30 5 2 5 6
M  V30 6 1 6 7
M  V30 7 2 7 8
M  V30 8 1 8 9
M  V30 9 2 9 10
M  V30 10 1 10 11
M  V30 11 2 11 12
M  V30 12 1 12 13
M  V30 13 1 13 14
M  V30 14 2 14 15
M  V30 15 1 15 16
M  V30 16 2 16 17
M  V30 17 1 17 18
M  V30 18 2 18 19
M  V30 19 1 15 20
M  V30 20 1 20 21
M  V30 21 1 21 22
M  V30 22 2 22 23
M  V30 23 1 21 24
M  V30 24 1 24 25
M  V30 25 1 25 26
M  V30 26 1 26 27
M  V30 27 1 27 28
M  V30 28 1 28 29
M  V30 29 1 29 30
M  V30 30 1 24 31
M  V30 31 1 10 32
M  V30 32 2 32 33
M  V30 33 1 32 34
M  V30 34 1 34 35
M  V30 35 2 35 36
M  V30 36 1 8 37
M  V30 37 1 37 38
M  V30 38 2 38 2
M  V30 39 1 37 5
M  V30 40 1 35 9
M  V30 41 1 19 11
M  V30 42 1 30 25
M  V30 43 1 31 13
M  V30 44 1 19 14
M  V30 45 1 1 39
M  V30 46 1 1 40
M  V30 47 1 1 41
M  V30 48 1 3 42
M  V30 49 1 4 43
M  V30 50 1 7 44
M  V30 51 1 12 45
M  V30 52 1 16 46
M  V30 53 1 17 47
M  V30 54 1 18 48
M  V30 55 1 20 49
M  V30 56 1 20 50
M  V30 57 1 22 51
M  V30 58 1 24 52
M  V30 59 1 26 53
M  V30 60 1 26 54
M  V30 61 1 27 55
M  V30 62 1 27 56
M  V30 63 1 28 57
M  V30 64 1 28 58
M  V30 65 1 29 59
M  V30 66 1 29 60
M  V30 67 1 30 61
M  V30 68 1 30 62
M  V30 69 1 31 63
M  V30 70 1 31 64
M  V30 71 1 34 65
M  V30 72 1 38 66
M  V30 END BOND
M  V30 END CTAB
M  END
>  <Dataset>  (153) 
ChEMBL_Kinases

>  <Ligand_Instance>  (153) 
nan

>  <PDB_ID>  (153) 
nan

>  <Standardized_SMILES>  (153) 
Cc1ccc2ncc(C3=C(c4cn5c6c(cccc46)CN(C=O)C(N4CCCCC4)C5)C(=O)NC3=O)n2c1

>  <Name>  (153) 
nan

>  <Pocket>  (153) 
nan

>  <ATP_Site>  (153) 
nan

>  <Peripheral>  (153) 
nan

>  <Num_H_Atoms_ProtBoundConf>  (153) 
nan

>  <Num_Resolved_Atoms>  (153) 
nan

>  <Num_Not_Resolved_Atoms>  (153) 
nan

$$$$
CHEMBL4160882
     RDKit          3D

  0  0  0  0  0  0  0  0  0  0999 V3000
M  V30 BEGIN CTAB
M  V30 COUNTS 54 58 0 0 0
M  V30 BEGIN ATOM
M  V30 1 N 2.373800 -2.640031 4.746505 0
M  V30 2 C 3.084977 -1.393395 4.532866 0
M  V30 3 C 4.540797 -1.701197 4.381008 0
M  V30 4 C 4.875492 -1.963178 2.927439 0
M  V30 5 C 4.686675 -0.734269 2.074066 0
M  V30 6 C 3.513376 0.078730 2.529364 0
M  V30 7 C 2.736327 0.630595 1.361250 0
M  V30 8 O 2.980872 0.471320 0.128905 0
M  V30 9 N 1.595269 1.422777 1.669560 0
M  V30 10 C 0.898609 1.918251 0.544295 0
M  V30 11 C 1.117365 3.112704 -0.110375 0
M  V30 12 C 0.369412 3.493972 -1.205907 0
M  V30 13 C -0.630616 2.668445 -1.673665 0
M  V30 14 N -1.527369 2.702638 -2.671353 0
M  V30 15 N -2.265118 1.627128 -2.668126 0
M  V30 16 C -1.923596 0.794376 -1.676121 0
M  V30 17 N -2.508404 -0.461904 -1.372126 0
M  V30 18 C -3.563460 -1.080775 -2.054009 0
M  V30 19 C -4.236826 -0.596910 -3.145514 0
M  V30 20 C -5.276023 -1.203462 -3.819387 0
M  V30 21 N -5.682983 -2.403731 -3.364312 0
M  V30 22 C -5.064182 -2.952144 -2.283762 0
M  V30 23 C -5.555111 -4.171280 -1.905628 0
M  V30 24 C -5.024969 -4.832805 -0.836718 0
M  V30 25 C -3.986593 -4.234407 -0.157650 0
M  V30 26 C -3.525469 -3.007975 -0.573558 0
M  V30 27 C -4.014216 -2.302880 -1.630113 0
M  V30 28 C -0.891941 1.466703 -1.059701 0
M  V30 29 C -0.119283 1.102760 0.049666 0
M  V30 30 C 2.513321 -0.790747 3.267710 0
M  V30 31 H 1.462553 -2.409243 5.201184 0
M  V30 32 H 2.168564 -3.119303 3.849892 0
M  V30 33 H 2.863459 -0.648006 5.340398 0
M  V30 34 H 4.756745 -2.638327 4.934756 0
M  V30 35 H 5.203430 -0.934062 4.827243 0
M  V30 36 H 4.243445 -2.815240 2.602173 0
M  V30 37 H 5.938207 -2.281506 2.894533 0
M  V30 38 H 5.603420 -0.110302 2.183823 0
M  V30 39 H 4.624192 -1.027827 1.010310 0
M  V30 40 H 3.846137 0.903083 3.167811 0
M  V30 41 H 1.240938 1.660991 2.629654 0
M  V30 42 H 1.913639 3.726796 0.294377 0
M  V30 43 H 0.549123 4.425444 -1.706558 0
M  V30 44 H -1.632228 3.484453 -3.368760 0
M  V30 45 H -2.053452 -0.886981 -0.561372 0
M  V30 46 H -3.968267 0.353421 -3.564012 0
M  V30 47 H -5.766225 -0.779123 -4.667832 0
M  V30 48 H -6.368021 -4.664947 -2.418432 0
M  V30 49 H -5.387595 -5.792001 -0.513576 0
M  V30 50 H -3.547481 -4.752527 0.705466 0
M  V30 51 H -2.723155 -2.609824 -0.000929 0
M  V30 52 H -0.340535 0.138615 0.529688 0
M  V30 53 H 1.613736 -0.168010 3.452978 0
M  V30 54 H 2.160194 -1.598336 2.581274 0
M  V30 END ATOM
M  V30 BEGIN BOND
M  V30 1 1 1 2
M  V30 2 1 2 3
M  V30 3 1 3 4
M  V30 4 1 4 5
M  V30 5 1 5 6
M  V30 6 1 6 7
M  V30 7 2 7 8
M  V30 8 1 7 9
M  V30 9 1 9 10
M  V30 10 2 10 11
M  V30 11 1 11 12
M  V30 12 2 12 13
M  V30 13 1 13 14
M  V30 14 1 14 15
M  V30 15 2 15 16
M  V30 16 1 16 17
M  V30 17 1 17 18
M  V30 18 2 18 19
M  V30 19 1 19 20
M  V30 20 2 20 21
M  V30 21 1 21 22
M  V30 22 2 22 23
M  V30 23 1 23 24
M  V30 24 2 24 25
M  V30 25 1 25 26
M  V30 26 2 26 27
M  V30 27 1 16 28
M  V30 28 2 28 29
M  V30 29 1 6 30
M  V30 30 1 30 2
M  V30 31 1 29 10
M  V30 32 1 28 13
M  V30 33 1 27 18
M  V30 34 1 27 22
M  V30 35 1 1 31
M  V30 36 1 1 32
M  V30 37 1 2 33
M  V30 38 1 3 34
M  V30 39 1 3 35
M  V30 40 1 4 36
M  V30 41 1 4 37
M  V30 42 1 5 38
M  V30 43 1 5 39
M  V30 44 1 6 40
M  V30 45 1 9 41
M  V30 46 1 11 42
M  V30 47 1 12 43
M  V30 48 1 14 44
M  V30 49 1 17 45
M  V30 50 1 19 46
M  V30 51 1 20 47
M  V30 52 1 23 48
M  V30 53 1 24 49
M  V30 54 1 25 50
M  V30 55 1 26 51
M  V30 56 1 29 52
M  V30 57 1 30 53
M  V30 58 1 30 54
M  V30 END BOND
M  V30 END CTAB
M  END
>  <Dataset>  (154) 
ChEMBL_Kinases

>  <Ligand_Instance>  (154) 
nan

>  <PDB_ID>  (154) 
nan

>  <Standardized_SMILES>  (154) 
NC1CCCC(C(=O)Nc2ccc3[nH]nc(Nc4ccnc5ccccc45)c3c2)C1

>  <Name>  (154) 
nan

>  <Pocket>  (154) 
nan

>  <ATP_Site>  (154) 
nan

>  <Peripheral>  (154) 
nan

>  <Num_H_Atoms_ProtBoundConf>  (154) 
nan

>  <Num_Resolved_Atoms>  (154) 
nan

>  <Num_Not_Resolved_Atoms>  (154) 
nan

$$$$
CHEMBL4160826
     RDKit          3D

  0  0  0  0  0  0  0  0  0  0999 V3000
M  V30 BEGIN CTAB
M  V30 COUNTS 59 63 0 0 0
M  V30 BEGIN ATOM
M  V30 1 C 5.027637 -2.558053 2.339010 0
M  V30 2 C 4.480690 -1.188988 2.233866 0
M  V30 3 N 4.947864 0.016860 2.579151 0
M  V30 4 N 4.100287 0.984007 2.292601 0
M  V30 5 C 4.295495 2.391635 2.532380 0
M  V30 6 C 3.857821 3.109651 3.625452 0
M  V30 7 C 4.134218 4.459907 3.691441 0
M  V30 8 C 4.839969 5.017260 2.648162 0
M  V30 9 C 5.293199 4.352566 1.549320 0
M  V30 10 C 5.001521 2.989097 1.505122 0
M  V30 11 C 3.000870 0.405221 1.723480 0
M  V30 12 O 1.922943 1.178417 1.310829 0
M  V30 13 C 0.771241 0.661213 0.732060 0
M  V30 14 C -0.141940 0.355303 1.747168 0
M  V30 15 C -1.401453 -0.187115 1.455483 0
M  V30 16 C -1.702933 -0.406721 0.125945 0
M  V30 17 C -3.002260 -0.976574 -0.228593 0
M  V30 18 N -3.451262 -1.261728 -1.465129 0
M  V30 19 C -4.709908 -1.785272 -1.369068 0
M  V30 20 C -5.552021 -2.219423 -2.370372 0
M  V30 21 C -6.752784 -2.692360 -1.920493 0
M  V30 22 C -7.781611 -3.199689 -2.804588 0
M  V30 23 N -7.516076 -3.211918 -4.187249 0
M  V30 24 O -8.931104 -3.675145 -2.759484 0
M  V30 25 C -7.103229 -2.738416 -0.609690 0
M  V30 26 C -6.226807 -2.290507 0.382182 0
M  V30 27 C -4.993629 -1.800664 -0.024253 0
M  V30 28 N -3.943844 -1.303722 0.673967 0
M  V30 29 C -0.807370 -0.107135 -0.879365 0
M  V30 30 C 0.430545 0.426609 -0.584528 0
M  V30 31 C 3.236434 -0.971037 1.683588 0
M  V30 32 C 2.228861 -1.896242 1.120210 0
M  V30 33 N 2.579434 -2.019961 -0.098358 0
M  V30 34 N 2.005624 -2.758469 -1.093919 0
M  V30 35 C 1.688468 -4.115554 -1.328887 0
M  V30 36 N 2.238916 -4.437555 -0.032135 0
M  V30 37 S 1.501688 -5.725139 -1.196097 0
M  V30 38 H 5.123720 -3.081754 1.369647 0
M  V30 39 H 6.060727 -2.539942 2.785013 0
M  V30 40 H 4.367760 -3.179013 2.990208 0
M  V30 41 H 3.309742 2.532435 4.374354 0
M  V30 42 H 3.781856 5.001592 4.557475 0
M  V30 43 H 5.038969 6.071575 2.731442 0
M  V30 44 H 5.845470 4.883855 0.772946 0
M  V30 45 H 5.376514 2.470224 0.608733 0
M  V30 46 H -0.012803 0.485881 2.825303 0
M  V30 47 H -2.132564 -0.436269 2.211260 0
M  V30 48 H -5.316622 -2.201518 -3.424019 0
M  V30 49 H -7.730031 -3.539129 -5.132358 0
M  V30 50 H -6.788272 -2.716215 -4.741065 0
M  V30 51 H -8.059682 -3.113921 -0.230461 0
M  V30 52 H -6.471871 -2.312872 1.427066 0
M  V30 53 H -3.973461 -1.234876 1.724225 0
M  V30 54 H -0.992279 -0.258508 -1.930006 0
M  V30 55 H 1.234425 0.712745 -1.246819 0
M  V30 56 H 1.353798 -2.446656 1.430211 0
M  V30 57 H 1.703190 -2.203554 -1.937918 0
M  V30 58 H 2.692847 -4.359880 0.921980 0
M  V30 59 H 2.691946 -4.369495 0.923124 0
M  V30 END ATOM
M  V30 BEGIN BOND
M  V30 1 1 1 2
M  V30 2 2 2 3
M  V30 3 1 3 4
M  V30 4 1 4 5
M  V30 5 2 5 6
M  V30 6 1 6 7
M  V30 7 2 7 8
M  V30 8 1 8 9
M  V30 9 2 9 10
M  V30 10 1 4 11
M  V30 11 1 11 12
M  V30 12 1 12 13
M  V30 13 2 13 14
M  V30 14 1 14 15
M  V30 15 2 15 16
M  V30 16 1 16 17
M  V30 17 2 17 18
M  V30 18 1 18 19
M  V30 19 2 19 20
M  V30 20 1 20 21
M  V30 21 1 21 22
M  V30 22 1 22 23
M  V30 23 2 22 24
M  V30 24 2 21 25
M  V30 25 1 25 26
M  V30 26 2 26 27
M  V30 27 1 27 28
M  V30 28 1 16 29
M  V30 29 2 29 30
M  V30 30 2 11 31
M  V30 31 1 31 32
M  V30 32 2 32 33
M  V30 33 1 33 34
M  V30 34 1 34 35
M  V30 35 1 35 36
M  V30 36 2 35 37
M  V30 37 1 31 2
M  V30 38 1 10 5
M  V30 39 1 30 13
M  V30 40 1 28 17
M  V30 41 1 27 19
M  V30 42 1 1 38
M  V30 43 1 1 39
M  V30 44 1 1 40
M  V30 45 1 6 41
M  V30 46 1 7 42
M  V30 47 1 8 43
M  V30 48 1 9 44
M  V30 49 1 10 45
M  V30 50 1 14 46
M  V30 51 1 15 47
M  V30 52 1 20 48
M  V30 53 1 23 49
M  V30 54 1 23 50
M  V30 55 1 25 51
M  V30 56 1 26 52
M  V30 57 1 28 53
M  V30 58 1 29 54
M  V30 59 1 30 55
M  V30 60 1 32 56
M  V30 61 1 34 57
M  V30 62 1 36 58
M  V30 63 1 36 59
M  V30 END BOND
M  V30 END CTAB
M  END
>  <Dataset>  (155) 
ChEMBL_Kinases

>  <Ligand_Instance>  (155) 
nan

>  <PDB_ID>  (155) 
nan

>  <Standardized_SMILES>  (155) 
Cc1nn(-c2ccccc2)c(Oc2ccc(-c3nc4cc(C(N)=O)ccc4[nH]3)cc2)c1/C=N/NC(N)=S

>  <Name>  (155) 
nan

>  <Pocket>  (155) 
nan

>  <ATP_Site>  (155) 
nan

>  <Peripheral>  (155) 
nan

>  <Num_H_Atoms_ProtBoundConf>  (155) 
nan

>  <Num_Resolved_Atoms>  (155) 
nan

>  <Num_Not_Resolved_Atoms>  (155) 
nan

$$$$
CHEMBL4789011
     RDKit          3D

  0  0  0  0  0  0  0  0  0  0999 V3000
M  V30 BEGIN CTAB
M  V30 COUNTS 86 89 0 0 0
M  V30 BEGIN ATOM
M  V30 1 C -6.312976 1.770264 2.053892 0
M  V30 2 C -4.821974 2.066898 2.105429 0
M  V30 3 C -3.998453 0.883032 1.733952 0
M  V30 4 C -4.268332 -0.291781 2.688207 0
M  V30 5 C -3.942329 0.070211 4.116777 0
M  V30 6 N -4.162349 0.408932 0.414550 0
M  V30 7 C -3.194353 0.029608 -0.506373 0
M  V30 8 O -1.997628 0.122757 -0.019286 0
M  V30 9 C -2.785964 -0.449248 -1.808286 0 CFG=2
M  V30 10 C -3.717664 -1.007827 -2.767077 0
M  V30 11 C -4.779302 -0.293677 -3.480762 0
M  V30 12 C -5.799341 0.569045 -2.883675 0
M  V30 13 C -6.801457 0.928608 -4.046119 0
M  V30 14 C -6.110049 1.584228 -5.187754 0
M  V30 15 C -5.300014 2.788684 -4.847301 0
M  V30 16 C -4.480837 2.599359 -3.613617 0
M  V30 17 C -5.304493 1.977138 -2.520060 0
M  V30 18 N -1.435203 -1.037969 -1.787949 0
M  V30 19 C -0.164809 -0.552811 -2.210142 0
M  V30 20 O -0.052670 0.572118 -2.699061 0
M  V30 21 C 0.945530 -1.472684 -2.020700 0
M  V30 22 C 2.200760 -0.998748 -2.360588 0
M  V30 23 C 3.277250 -1.856410 -2.203924 0
M  V30 24 C 3.183692 -3.166777 -1.724158 0
M  V30 25 C 4.287418 -4.133695 -1.534260 0
M  V30 26 N 4.810607 -4.030642 -0.189290 0
M  V30 27 C 5.660448 -3.015264 0.309278 0
M  V30 28 O 6.042705 -2.075025 -0.425295 0
M  V30 29 C 6.111336 -3.043252 1.701220 0
M  V30 30 C 5.815693 -3.984288 2.675815 0
M  V30 31 N 6.450296 -3.594768 3.794234 0
M  V30 32 N 7.131731 -2.469185 3.598460 0
M  V30 33 C 7.937609 -1.713664 4.501757 0
M  V30 34 C 7.427126 -0.486082 4.832873 0
M  V30 35 C 8.069570 0.378067 5.695885 0
M  V30 36 C 9.275360 -0.047856 6.228365 0
M  V30 37 C 9.825414 -1.279551 5.921562 0
M  V30 38 C 9.141747 -2.115200 5.047061 0
M  V30 39 C 6.932837 -2.106674 2.296593 0
M  V30 40 N 7.467807 -0.959285 1.627183 0
M  V30 41 C 1.913514 -3.591806 -1.397768 0
M  V30 42 C 0.827260 -2.757486 -1.546114 0
M  V30 43 H -6.888740 2.559869 1.531115 0
M  V30 44 H -6.491191 0.755832 1.588744 0
M  V30 45 H -6.761457 1.675201 3.066014 0
M  V30 46 H -4.591696 2.325217 3.158112 0
M  V30 47 H -4.536095 2.920297 1.494119 0
M  V30 48 H -2.933124 1.116289 1.909094 0
M  V30 49 H -3.526130 -1.068881 2.379237 0
M  V30 50 H -5.263292 -0.714591 2.546706 0
M  V30 51 H -3.207131 0.885503 4.199245 0
M  V30 52 H -3.625285 -0.818016 4.682500 0
M  V30 53 H -4.904128 0.452832 4.562649 0
M  V30 54 H -5.034866 0.219396 -0.142357 0
M  V30 55 H -2.492416 0.586048 -2.344126 0
M  V30 56 H -3.073006 -1.477653 -3.618188 0
M  V30 57 H -4.187399 -1.991110 -2.365834 0
M  V30 58 H -4.219138 0.307720 -4.297360 0
M  V30 59 H -5.362032 -1.007871 -4.166565 0
M  V30 60 H -6.395496 0.180615 -2.091518 0
M  V30 61 H -7.236533 -0.021699 -4.423825 0
M  V30 62 H -7.578329 1.533783 -3.565672 0
M  V30 63 H -6.923439 1.898239 -5.911808 0
M  V30 64 H -5.482654 0.840053 -5.716140 0
M  V30 65 H -4.677025 3.022176 -5.743073 0
M  V30 66 H -5.959156 3.669737 -4.701734 0
M  V30 67 H -4.221882 3.631174 -3.221200 0
M  V30 68 H -3.512325 2.121280 -3.793462 0
M  V30 69 H -6.255375 2.605153 -2.490146 0
M  V30 70 H -4.868443 2.022260 -1.553518 0
M  V30 71 H -1.720507 -1.939994 -1.351949 0
M  V30 72 H 2.374220 -0.005234 -2.736601 0
M  V30 73 H 4.268653 -1.532709 -2.457437 0
M  V30 74 H 5.097315 -3.910080 -2.262291 0
M  V30 75 H 3.909885 -5.147892 -1.729286 0
M  V30 76 H 4.535422 -4.787009 0.501094 0
M  V30 77 H 5.189341 -4.867879 2.551581 0
M  V30 78 H 6.484718 -0.112049 4.444113 0
M  V30 79 H 7.760688 1.360344 6.022795 0
M  V30 80 H 9.858855 0.566312 6.921509 0
M  V30 81 H 10.762325 -1.651812 6.319708 0
M  V30 82 H 9.492310 -3.098317 4.743871 0
M  V30 83 H 8.435702 -0.891029 1.224624 0
M  V30 84 H 6.731384 -0.202124 1.611196 0
M  V30 85 H 1.748054 -4.606946 -1.010424 0
M  V30 86 H -0.138618 -3.147725 -1.279662 0
M  V30 END ATOM
M  V30 BEGIN BOND
M  V30 1 1 1 2
M  V30 2 1 2 3
M  V30 3 1 3 4
M  V30 4 1 4 5
M  V30 5 1 3 6
M  V30 6 1 6 7
M  V30 7 2 7 8
M  V30 8 1 7 9
M  V30 9 1 9 10
M  V30 10 1 10 11
M  V30 11 1 11 12
M  V30 12 1 12 13
M  V30 13 1 13 14
M  V30 14 1 14 15
M  V30 15 1 15 16
M  V30 16 1 16 17
M  V30 17 1 9 18
M  V30 18 1 18 19
M  V30 19 2 19 20
M  V30 20 1 19 21
M  V30 21 2 21 22
M  V30 22 1 22 23
M  V30 23 2 23 24
M  V30 24 1 24 25
M  V30 25 1 25 26
M  V30 26 1 26 27
M  V30 27 2 27 28
M  V30 28 1 27 29
M  V30 29 1 29 30
M  V30 30 2 30 31
M  V30 31 1 31 32
M  V30 32 1 32 33
M  V30 33 2 33 34
M  V30 34 1 34 35
M  V30 35 2 35 36
M  V30 36 1 36 37
M  V30 37 2 37 38
M  V30 38 1 32 39
M  V30 39 1 39 40
M  V30 40 1 24 41
M  V30 41 2 41 42
M  V30 42 1 17 12
M  V30 43 1 42 21
M  V30 44 2 39 29
M  V30 45 1 38 33
M  V30 46 1 1 43
M  V30 47 1 1 44
M  V30 48 1 1 45
M  V30 49 1 2 46
M  V30 50 1 2 47
M  V30 51 1 3 48
M  V30 52 1 4 49
M  V30 53 1 4 50
M  V30 54 1 5 51
M  V30 55 1 5 52
M  V30 56 1 5 53
M  V30 57 1 6 54
M  V30 58 1 9 55 CFG=3
M  V30 59 1 10 56
M  V30 60 1 10 57
M  V30 61 1 11 58
M  V30 62 1 11 59
M  V30 63 1 12 60
M  V30 64 1 13 61
M  V30 65 1 13 62
M  V30 66 1 14 63
M  V30 67 1 14 64
M  V30 68 1 15 65
M  V30 69 1 15 66
M  V30 70 1 16 67
M  V30 71 1 16 68
M  V30 72 1 17 69
M  V30 73 1 17 70
M  V30 74 1 18 71
M  V30 75 1 22 72
M  V30 76 1 23 73
M  V30 77 1 25 74
M  V30 78 1 25 75
M  V30 79 1 26 76
M  V30 80 1 30 77
M  V30 81 1 34 78
M  V30 82 1 35 79
M  V30 83 1 36 80
M  V30 84 1 37 81
M  V30 85 1 38 82
M  V30 86 1 40 83
M  V30 87 1 40 84
M  V30 88 1 41 85
M  V30 89 1 42 86
M  V30 END BOND
M  V30 END CTAB
M  END
>  <Dataset>  (156) 
ChEMBL_Kinases

>  <Ligand_Instance>  (156) 
nan

>  <PDB_ID>  (156) 
nan

>  <Standardized_SMILES>  (156) 
CCC(CC)NC(=O)[C@H](CCC1CCCCC1)NC(=O)c1ccc(CNC(=O)c2cnn(-c3ccccc3)c2N)cc1

>  <Name>  (156) 
nan

>  <Pocket>  (156) 
nan

>  <ATP_Site>  (156) 
nan

>  <Peripheral>  (156) 
nan

>  <Num_H_Atoms_ProtBoundConf>  (156) 
nan

>  <Num_Resolved_Atoms>  (156) 
nan

>  <Num_Not_Resolved_Atoms>  (156) 
nan

$$$$
CHEMBL4160772
     RDKit          3D

  0  0  0  0  0  0  0  0  0  0999 V3000
M  V30 BEGIN CTAB
M  V30 COUNTS 54 58 0 0 0
M  V30 BEGIN ATOM
M  V30 1 C 7.030818 -1.438394 5.759216 0
M  V30 2 O 6.814383 -1.707167 4.394841 0
M  V30 3 C 6.129942 -0.876553 3.521758 0
M  V30 4 C 5.537901 0.345140 3.796495 0
M  V30 5 C 4.895939 1.040615 2.806548 0
M  V30 6 C 4.796793 0.595277 1.522372 0
M  V30 7 C 4.128314 1.289302 0.431653 0
M  V30 8 N 4.722212 1.378027 -0.765163 0
M  V30 9 C 4.071548 2.033514 -1.766513 0
M  V30 10 S 4.874742 2.145436 -3.360059 0
M  V30 11 N 2.859698 2.592979 -1.599605 0
M  V30 12 C 2.201019 2.538060 -0.405833 0
M  V30 13 S 0.590600 3.268785 -0.145775 0
M  V30 14 C -0.690760 2.082392 -0.535459 0
M  V30 15 C -1.109683 1.287563 0.512249 0
M  V30 16 C -2.097796 0.325670 0.347459 0
M  V30 17 C -2.698809 0.134674 -0.890720 0
M  V30 18 C -3.739108 -0.866725 -1.096812 0
M  V30 19 N -4.198375 -1.677436 -0.122505 0
M  V30 20 C -5.153106 -2.492760 -0.611514 0
M  V30 21 C -5.870438 -3.463870 0.057040 0
M  V30 22 C -6.808800 -4.186064 -0.652623 0
M  V30 23 C -7.624311 -5.235986 -0.048637 0
M  V30 24 N -7.416977 -5.501257 1.339038 0
M  V30 25 O -8.494494 -5.932262 -0.632098 0
M  V30 26 C -6.989953 -3.909178 -1.992821 0
M  V30 27 C -6.243244 -2.917593 -2.632914 0
M  V30 28 C -5.301376 -2.182856 -1.949071 0
M  V30 29 N -4.433329 -1.200092 -2.202357 0
M  V30 30 C -2.263344 0.940523 -1.920957 0
M  V30 31 C -1.281432 1.900631 -1.769507 0
M  V30 32 C 2.881566 1.862322 0.611319 0
M  V30 33 C 2.205531 1.788263 1.891325 0
M  V30 34 N 1.655968 1.741402 2.897855 0
M  V30 35 C 5.382502 -0.628747 1.219062 0
M  V30 36 C 6.030576 -1.334496 2.210951 0
M  V30 37 H 6.953491 -2.382436 6.338107 0
M  V30 38 H 6.243781 -0.760722 6.130291 0
M  V30 39 H 8.034562 -0.989981 5.939592 0
M  V30 40 H 5.631205 0.670254 4.812342 0
M  V30 41 H 4.449259 1.978196 3.046343 0
M  V30 42 H 3.894232 2.040856 -4.378538 0
M  V30 43 H -0.745999 1.311833 1.525017 0
M  V30 44 H -2.461524 -0.321347 1.132710 0
M  V30 45 H -5.717781 -3.669937 1.107615 0
M  V30 46 H -6.646884 -5.831102 1.981173 0
M  V30 47 H -7.912920 -5.482367 2.257769 0
M  V30 48 H -7.723230 -4.474187 -2.545889 0
M  V30 49 H -6.366688 -2.680987 -3.684509 0
M  V30 50 H -4.309423 -0.752322 -3.127237 0
M  V30 51 H -2.703080 0.833360 -2.920659 0
M  V30 52 H -0.917378 2.547727 -2.553557 0
M  V30 53 H 5.326712 -1.017482 0.213815 0
M  V30 54 H 6.467909 -2.281949 1.916073 0
M  V30 END ATOM
M  V30 BEGIN BOND
M  V30 1 1 1 2
M  V30 2 1 2 3
M  V30 3 2 3 4
M  V30 4 1 4 5
M  V30 5 2 5 6
M  V30 6 1 6 7
M  V30 7 2 7 8
M  V30 8 1 8 9
M  V30 9 1 9 10
M  V30 10 2 9 11
M  V30 11 1 11 12
M  V30 12 1 12 13
M  V30 13 1 13 14
M  V30 14 2 14 15
M  V30 15 1 15 16
M  V30 16 2 16 17
M  V30 17 1 17 18
M  V30 18 2 18 19
M  V30 19 1 19 20
M  V30 20 2 20 21
M  V30 21 1 21 22
M  V30 22 1 22 23
M  V30 23 1 23 24
M  V30 24 2 23 25
M  V30 25 2 22 26
M  V30 26 1 26 27
M  V30 27 2 27 28
M  V30 28 1 28 29
M  V30 29 1 17 30
M  V30 30 2 30 31
M  V30 31 2 12 32
M  V30 32 1 32 33
M  V30 33 3 33 34
M  V30 34 1 6 35
M  V30 35 2 35 36
M  V30 36 1 36 3
M  V30 37 1 32 7
M  V30 38 1 31 14
M  V30 39 1 29 18
M  V30 40 1 28 20
M  V30 41 1 1 37
M  V30 42 1 1 38
M  V30 43 1 1 39
M  V30 44 1 4 40
M  V30 45 1 5 41
M  V30 46 1 10 42
M  V30 47 1 15 43
M  V30 48 1 16 44
M  V30 49 1 21 45
M  V30 50 1 24 46
M  V30 51 1 24 47
M  V30 52 1 26 48
M  V30 53 1 27 49
M  V30 54 1 29 50
M  V30 55 1 30 51
M  V30 56 1 31 52
M  V30 57 1 35 53
M  V30 58 1 36 54
M  V30 END BOND
M  V30 END CTAB
M  END
>  <Dataset>  (157) 
ChEMBL_Kinases

>  <Ligand_Instance>  (157) 
nan

>  <PDB_ID>  (157) 
nan

>  <Standardized_SMILES>  (157) 
COc1ccc(-c2nc(S)nc(Sc3ccc(-c4nc5cc(C(N)=O)ccc5[nH]4)cc3)c2C#N)cc1

>  <Name>  (157) 
nan

>  <Pocket>  (157) 
nan

>  <ATP_Site>  (157) 
nan

>  <Peripheral>  (157) 
nan

>  <Num_H_Atoms_ProtBoundConf>  (157) 
nan

>  <Num_Resolved_Atoms>  (157) 
nan

>  <Num_Not_Resolved_Atoms>  (157) 
nan

$$$$
CHEMBL4789071
     RDKit          3D

  0  0  0  0  0  0  0  0  0  0999 V3000
M  V30 BEGIN CTAB
M  V30 COUNTS 56 59 0 0 0
M  V30 BEGIN ATOM
M  V30 1 C 5.412256 -7.148413 0.276242 0
M  V30 2 C 5.748807 -6.421990 1.323870 0
M  V30 3 C 5.984794 -5.022227 1.026977 0
M  V30 4 O 5.828549 -4.732428 -0.185172 0
M  V30 5 N 6.355280 -4.118660 2.059204 0
M  V30 6 C 6.599358 -2.698406 1.787882 0
M  V30 7 C 5.357831 -1.927688 1.598201 0
M  V30 8 C 4.798477 -1.384419 2.760873 0
M  V30 9 C 3.625096 -0.637467 2.696630 0
M  V30 10 C 2.982935 -0.411079 1.498252 0
M  V30 11 C 1.753778 0.367482 1.411837 0
M  V30 12 C 1.115938 0.945950 2.488265 0
M  V30 13 C -0.049065 1.678180 2.373191 0
M  V30 14 C -0.569024 1.814459 1.098701 0
M  V30 15 C -1.820007 2.598678 0.979139 0
M  V30 16 C -1.565646 3.890402 0.187681 0
M  V30 17 C -2.922457 1.823486 0.328869 0
M  V30 18 O -2.696147 0.647619 -0.047822 0
M  V30 19 N -4.175541 2.425859 0.156949 0
M  V30 20 C -5.289408 1.793091 -0.442882 0
M  V30 21 C -5.398719 0.531387 -0.962244 0
M  V30 22 C -6.666438 0.280337 -1.465010 0
M  V30 23 C -7.219621 -0.934560 -2.108964 0
M  V30 24 C -6.330469 -1.798542 -2.922892 0
M  V30 25 C -6.779915 -2.268356 -1.534370 0
M  V30 26 N -7.311457 1.456147 -1.220420 0
M  V30 27 N -6.503257 2.303490 -0.636081 0
M  V30 28 C -0.005261 1.274273 -0.039132 0
M  V30 29 C 1.164043 0.555217 0.178950 0
M  V30 30 N 3.541585 -0.944063 0.397183 0
M  V30 31 C 4.674201 -1.669814 0.429001 0
M  V30 32 H 5.202288 -7.263136 -0.769502 0
M  V30 33 H 5.177775 -8.210051 0.186578 0
M  V30 34 H 5.781197 -7.033867 2.214054 0
M  V30 35 H 6.457364 -4.470337 3.036325 0
M  V30 36 H 7.224189 -2.270057 2.587951 0
M  V30 37 H 7.230224 -2.625687 0.864235 0
M  V30 38 H 5.266096 -1.534926 3.723634 0
M  V30 39 H 3.245948 -0.247285 3.623442 0
M  V30 40 H 1.534286 0.828734 3.463777 0
M  V30 41 H -0.540660 2.126896 3.221173 0
M  V30 42 H -2.204402 2.943230 1.950982 0
M  V30 43 H -0.749663 4.416986 0.697219 0
M  V30 44 H -2.498507 4.492962 0.313668 0
M  V30 45 H -1.350381 3.619882 -0.863149 0
M  V30 46 H -4.288635 3.417869 0.500282 0
M  V30 47 H -4.622760 -0.234382 -1.007387 0
M  V30 48 H -8.291723 -0.833081 -2.414900 0
M  V30 49 H -5.261449 -1.561052 -3.037668 0
M  V30 50 H -6.751876 -2.368127 -3.784731 0
M  V30 51 H -6.031642 -2.272123 -0.722417 0
M  V30 52 H -7.534453 -3.081863 -1.496328 0
M  V30 53 H -8.323022 1.665232 -1.464405 0
M  V30 54 H -0.430807 1.395055 -1.023602 0
M  V30 55 H 1.622122 0.121115 -0.713950 0
M  V30 56 H 5.121502 -2.095799 -0.455342 0
M  V30 END ATOM
M  V30 BEGIN BOND
M  V30 1 2 1 2
M  V30 2 1 2 3
M  V30 3 2 3 4
M  V30 4 1 3 5
M  V30 5 1 5 6
M  V30 6 1 6 7
M  V30 7 2 7 8
M  V30 8 1 8 9
M  V30 9 2 9 10
M  V30 10 1 10 11
M  V30 11 2 11 12
M  V30 12 1 12 13
M  V30 13 2 13 14
M  V30 14 1 14 15
M  V30 15 1 15 16
M  V30 16 1 15 17
M  V30 17 2 17 18
M  V30 18 1 17 19
M  V30 19 1 19 20
M  V30 20 1 20 21
M  V30 21 2 21 22
M  V30 22 1 22 23
M  V30 23 1 23 24
M  V30 24 1 24 25
M  V30 25 1 22 26
M  V30 26 1 26 27
M  V30 27 1 14 28
M  V30 28 2 28 29
M  V30 29 1 10 30
M  V30 30 2 30 31
M  V30 31 1 31 7
M  V30 32 1 29 11
M  V30 33 2 27 20
M  V30 34 1 25 23
M  V30 35 1 1 32
M  V30 36 1 1 33
M  V30 37 1 2 34
M  V30 38 1 5 35
M  V30 39 1 6 36
M  V30 40 1 6 37
M  V30 41 1 8 38
M  V30 42 1 9 39
M  V30 43 1 12 40
M  V30 44 1 13 41
M  V30 45 1 15 42
M  V30 46 1 16 43
M  V30 47 1 16 44
M  V30 48 1 16 45
M  V30 49 1 19 46
M  V30 50 1 21 47
M  V30 51 1 23 48
M  V30 52 1 24 49
M  V30 53 1 24 50
M  V30 54 1 25 51
M  V30 55 1 25 52
M  V30 56 1 26 53
M  V30 57 1 28 54
M  V30 58 1 29 55
M  V30 59 1 31 56
M  V30 END BOND
M  V30 END CTAB
M  END
>  <Dataset>  (158) 
ChEMBL_Kinases

>  <Ligand_Instance>  (158) 
nan

>  <PDB_ID>  (158) 
nan

>  <Standardized_SMILES>  (158) 
C=CC(=O)NCc1ccc(-c2ccc(C(C)C(=O)Nc3cc(C4CC4)[nH]n3)cc2)nc1

>  <Name>  (158) 
nan

>  <Pocket>  (158) 
nan

>  <ATP_Site>  (158) 
nan

>  <Peripheral>  (158) 
nan

>  <Num_H_Atoms_ProtBoundConf>  (158) 
nan

>  <Num_Resolved_Atoms>  (158) 
nan

>  <Num_Not_Resolved_Atoms>  (158) 
nan

$$$$
CHEMBL4789072
     RDKit          3D

  0  0  0  0  0  0  0  0  0  0999 V3000
M  V30 BEGIN CTAB
M  V30 COUNTS 59 62 0 0 0
M  V30 BEGIN ATOM
M  V30 1 C 1.732628 2.040382 3.226787 0
M  V30 2 C 2.862551 2.648614 2.481670 0
M  V30 3 C 4.049837 2.944953 3.159042 0
M  V30 4 N 4.142555 2.639918 4.555740 0
M  V30 5 C 5.164328 3.514071 2.608764 0
M  V30 6 C 5.137950 3.830813 1.275692 0
M  V30 7 C 3.986708 3.555803 0.567738 0
M  V30 8 C 2.872321 2.983630 1.131250 0
M  V30 9 C 1.628319 2.692234 0.384334 0
M  V30 10 C 1.485677 3.110245 -0.937817 0
M  V30 11 C 0.284026 2.821263 -1.572023 0
M  V30 12 N -0.708556 2.169580 -0.956079 0
M  V30 13 C -0.570412 1.758680 0.338256 0
M  V30 14 N -1.427750 1.074927 1.243007 0
M  V30 15 C -1.744848 -0.314578 1.253889 0
M  V30 16 C -2.407116 -0.870027 2.308194 0
M  V30 17 C -2.753537 -2.200170 2.365214 0
M  V30 18 C -2.389427 -2.970099 1.275709 0
M  V30 19 C -1.706950 -2.466179 0.154203 0
M  V30 20 C -1.390972 -1.100524 0.176329 0
M  V30 21 N -1.380345 -3.318046 -0.969034 0
M  V30 22 C -1.409747 -2.649519 -2.255717 0
M  V30 23 C -0.097293 -2.681107 -2.991915 0
M  V30 24 C -2.502011 -3.362709 -3.071920 0
M  V30 25 C -1.094067 -4.669521 -0.665313 0 CFG=2
M  V30 26 C -0.734525 -5.567547 -1.802498 0
M  V30 27 C -2.268536 -5.197734 0.113889 0
M  V30 28 O -2.939673 -6.240857 -0.062694 0
M  V30 29 N -2.656166 -4.367147 1.212115 0
M  V30 30 C -3.377744 -4.957046 2.344063 0
M  V30 31 N 0.588641 2.044234 0.930855 0
M  V30 32 H 0.829998 2.690292 3.167580 0
M  V30 33 H 1.515153 1.016084 2.880376 0
M  V30 34 H 1.999860 2.028548 4.320048 0
M  V30 35 H 3.940597 3.287365 5.354826 0
M  V30 36 H 4.347107 1.975036 5.319852 0
M  V30 37 H 6.067842 3.732469 3.164737 0
M  V30 38 H 5.988764 4.286471 0.773530 0
M  V30 39 H 3.989092 3.813175 -0.478567 0
M  V30 40 H 2.253056 3.639217 -1.476759 0
M  V30 41 H 0.068349 3.093816 -2.579459 0
M  V30 42 H -1.839662 1.695039 1.950677 0
M  V30 43 H -2.676142 -0.221370 3.152361 0
M  V30 44 H -3.276856 -2.632772 3.202530 0
M  V30 45 H -0.851698 -0.682111 -0.687632 0
M  V30 46 H -1.736025 -1.618507 -2.223201 0
M  V30 47 H 0.764039 -2.855449 -2.303599 0
M  V30 48 H 0.139711 -1.674669 -3.448796 0
M  V30 49 H -0.089554 -3.365261 -3.873256 0
M  V30 50 H -3.091208 -4.073756 -2.432581 0
M  V30 51 H -3.298260 -2.638980 -3.415990 0
M  V30 52 H -2.103132 -3.814461 -3.991320 0
M  V30 53 H -0.225580 -4.712542 0.028152 0
M  V30 54 H -1.547879 -5.889052 -2.453769 0
M  V30 55 H -0.352001 -6.514941 -1.310482 0
M  V30 56 H 0.144889 -5.162945 -2.315823 0
M  V30 57 H -3.563779 -6.038054 2.135623 0
M  V30 58 H -2.746533 -4.820063 3.239779 0
M  V30 59 H -4.357146 -4.454052 2.488983 0
M  V30 END ATOM
M  V30 BEGIN BOND
M  V30 1 1 1 2
M  V30 2 2 2 3
M  V30 3 1 3 4
M  V30 4 1 3 5
M  V30 5 2 5 6
M  V30 6 1 6 7
M  V30 7 2 7 8
M  V30 8 1 8 9
M  V30 9 2 9 10
M  V30 10 1 10 11
M  V30 11 2 11 12
M  V30 12 1 12 13
M  V30 13 1 13 14
M  V30 14 1 14 15
M  V30 15 2 15 16
M  V30 16 1 16 17
M  V30 17 2 17 18
M  V30 18 1 18 19
M  V30 19 2 19 20
M  V30 20 1 19 21
M  V30 21 1 21 22
M  V30 22 1 22 23
M  V30 23 1 22 24
M  V30 24 1 21 25
M  V30 25 1 25 26
M  V30 26 1 25 27
M  V30 27 2 27 28
M  V30 28 1 27 29
M  V30 29 1 29 30
M  V30 30 2 13 31
M  V30 31 1 8 2
M  V30 32 1 31 9
M  V30 33 1 20 15
M  V30 34 1 29 18
M  V30 35 1 1 32
M  V30 36 1 1 33
M  V30 37 1 1 34
M  V30 38 1 4 35
M  V30 39 1 4 36
M  V30 40 1 5 37
M  V30 41 1 6 38
M  V30 42 1 7 39
M  V30 43 1 10 40
M  V30 44 1 11 41
M  V30 45 1 14 42
M  V30 46 1 16 43
M  V30 47 1 17 44
M  V30 48 1 20 45
M  V30 49 1 22 46
M  V30 50 1 23 47
M  V30 51 1 23 48
M  V30 52 1 23 49
M  V30 53 1 24 50
M  V30 54 1 24 51
M  V30 55 1 24 52
M  V30 56 1 25 53 CFG=1
M  V30 57 1 26 54
M  V30 58 1 26 55
M  V30 59 1 26 56
M  V30 60 1 30 57
M  V30 61 1 30 58
M  V30 62 1 30 59
M  V30 END BOND
M  V30 END CTAB
M  END
>  <Dataset>  (159) 
ChEMBL_Kinases

>  <Ligand_Instance>  (159) 
nan

>  <PDB_ID>  (159) 
nan

>  <Standardized_SMILES>  (159) 
Cc1c(N)cccc1-c1ccnc(Nc2ccc3c(c2)N(C(C)C)[C@H](C)C(=O)N3C)n1

>  <Name>  (159) 
nan

>  <Pocket>  (159) 
nan

>  <ATP_Site>  (159) 
nan

>  <Peripheral>  (159) 
nan

>  <Num_H_Atoms_ProtBoundConf>  (159) 
nan

>  <Num_Resolved_Atoms>  (159) 
nan

>  <Num_Not_Resolved_Atoms>  (159) 
nan

$$$$
CHEMBL4789089
     RDKit          3D

  0  0  0  0  0  0  0  0  0  0999 V3000
M  V30 BEGIN CTAB
M  V30 COUNTS 35 37 0 0 0
M  V30 BEGIN ATOM
M  V30 1 C -0.101791 -4.099260 1.381371 0
M  V30 2 C 1.321931 -3.797263 1.200600 0
M  V30 3 C 2.207272 -4.871393 1.355037 0
M  V30 4 C 3.571054 -4.788114 1.233842 0
M  V30 5 C 4.091748 -3.560989 0.940602 0
M  V30 6 C 3.218786 -2.515089 0.790832 0
M  V30 7 C 1.839261 -2.561349 0.905315 0
M  V30 8 C 1.019028 -1.392075 0.710918 0
M  V30 9 O 1.765127 -0.426329 0.476824 0
M  V30 10 C -0.405429 -1.216148 0.748099 0
M  V30 11 C -0.956345 -0.059350 0.547209 0
M  V30 12 N -0.272360 1.151575 0.273571 0
M  V30 13 C -0.796895 2.447136 0.042511 0
M  V30 14 C -0.040789 3.551978 -0.213681 0
M  V30 15 C -0.652717 4.769628 -0.424990 0
M  V30 16 C -2.024792 4.902590 -0.383901 0
M  V30 17 C -2.840505 3.795421 -0.124319 0
M  V30 18 C -2.165631 2.612542 0.077003 0
M  V30 19 N -2.980565 1.479809 0.341625 0
M  V30 20 C -2.405600 0.194501 0.568150 0
M  V30 21 O -3.194131 -0.777650 0.799631 0
M  V30 22 H -0.715647 -4.012368 0.481425 0
M  V30 23 H -0.525282 -3.533069 2.224249 0
M  V30 24 H -0.194747 -5.189686 1.713619 0
M  V30 25 H 1.836408 -5.874664 1.590018 0
M  V30 26 H 4.208167 -5.648787 1.363056 0
M  V30 27 H 5.157881 -3.464857 0.839555 0
M  V30 28 H 3.759784 -1.578573 0.555991 0
M  V30 29 H -1.206557 -1.895496 0.918655 0
M  V30 30 H 0.757444 1.141491 0.226153 0
M  V30 31 H 1.035003 3.453697 -0.247084 0
M  V30 32 H 0.010288 5.605482 -0.623283 0
M  V30 33 H -2.470883 5.869123 -0.553581 0
M  V30 34 H -3.918919 3.860076 -0.084125 0
M  V30 35 H -4.035432 1.556006 0.378394 0
M  V30 END ATOM
M  V30 BEGIN BOND
M  V30 1 1 1 2
M  V30 2 2 2 3
M  V30 3 1 3 4
M  V30 4 2 4 5
M  V30 5 1 5 6
M  V30 6 2 6 7
M  V30 7 1 7 8
M  V30 8 2 8 9
M  V30 9 1 8 10
M  V30 10 2 10 11
M  V30 11 1 11 12
M  V30 12 1 12 13
M  V30 13 2 13 14
M  V30 14 1 14 15
M  V30 15 2 15 16
M  V30 16 1 16 17
M  V30 17 2 17 18
M  V30 18 1 18 19
M  V30 19 1 19 20
M  V30 20 2 20 21
M  V30 21 1 7 2
M  V30 22 1 20 11
M  V30 23 1 18 13
M  V30 24 1 1 22
M  V30 25 1 1 23
M  V30 26 1 1 24
M  V30 27 1 3 25
M  V30 28 1 4 26
M  V30 29 1 5 27
M  V30 30 1 6 28
M  V30 31 1 10 29
M  V30 32 1 12 30
M  V30 33 1 14 31
M  V30 34 1 15 32
M  V30 35 1 16 33
M  V30 36 1 17 34
M  V30 37 1 19 35
M  V30 END BOND
M  V30 END CTAB
M  END
>  <Dataset>  (160) 
ChEMBL_Kinases

>  <Ligand_Instance>  (160) 
nan

>  <PDB_ID>  (160) 
nan

>  <Standardized_SMILES>  (160) 
Cc1ccccc1C(=O)/C=C1\Nc2ccccc2NC1=O

>  <Name>  (160) 
nan

>  <Pocket>  (160) 
nan

>  <ATP_Site>  (160) 
nan

>  <Peripheral>  (160) 
nan

>  <Num_H_Atoms_ProtBoundConf>  (160) 
nan

>  <Num_Resolved_Atoms>  (160) 
nan

>  <Num_Not_Resolved_Atoms>  (160) 
nan

$$$$
CHEMBL4160662
     RDKit          3D

  0  0  0  0  0  0  0  0  0  0999 V3000
M  V30 BEGIN CTAB
M  V30 COUNTS 72 76 0 0 0
M  V30 BEGIN ATOM
M  V30 1 C 6.757789 -1.391476 5.061968 0
M  V30 2 N 6.106889 -2.216150 4.073943 0
M  V30 3 C 5.002619 -1.721518 3.474097 0
M  V30 4 C 4.293903 -2.433980 2.503450 0
M  V30 5 C 3.098578 -1.903491 1.851584 0
M  V30 6 C 2.842025 -2.288873 0.536023 0
M  V30 7 C 1.720522 -1.822130 -0.150540 0
M  V30 8 C 0.834603 -0.960097 0.468372 0
M  V30 9 N -0.298788 -0.496534 -0.254946 0
M  V30 10 C -0.195661 0.718716 -1.013160 0
M  V30 11 O -1.202084 1.116193 -1.652754 0
M  V30 12 N 1.009597 1.468427 -1.050777 0
M  V30 13 C 1.237002 2.703364 -1.773046 0
M  V30 14 C 0.589339 3.833718 -1.032467 0
M  V30 15 C 1.337211 4.493052 -0.049520 0
M  V30 16 C 0.864458 5.558026 0.711234 0
M  V30 17 C -0.420012 5.981601 0.474601 0
M  V30 18 C -1.179661 5.353345 -0.485138 0
M  V30 19 C -0.690519 4.314315 -1.213920 0
M  V30 20 C -1.532813 -1.235202 -0.223215 0 CFG=1
M  V30 21 C -1.337391 -2.596214 -0.909335 0
M  V30 22 C -2.710587 -3.144320 -1.268993 0
M  V30 23 C -3.699518 -2.841061 -0.170907 0 CFG=2
M  V30 24 N -4.568232 -1.742775 -0.503698 0
M  V30 25 C -5.498468 -1.761604 -1.578801 0
M  V30 26 C -5.670742 -2.852565 -2.401108 0
M  V30 27 C -6.545321 -2.942692 -3.460845 0
M  V30 28 C -7.326252 -1.810817 -3.713585 0
M  V30 29 C -8.279875 -1.744553 -4.774739 0
M  V30 30 N -9.039114 -1.692916 -5.646649 0
M  V30 31 C -7.136554 -0.730883 -2.877484 0
M  V30 32 N -6.266641 -0.694868 -1.854236 0
M  V30 33 C -3.056357 -2.585808 1.143078 0
M  V30 34 C -2.013100 -1.530633 1.170860 0
M  V30 35 C 1.086301 -0.577928 1.769224 0
M  V30 36 C 2.193175 -1.033684 2.458439 0
M  V30 37 C 4.763380 -3.688248 2.164832 0
M  V30 38 C 5.905776 -4.187454 2.792515 0
M  V30 39 C 6.570755 -3.436535 3.750150 0
M  V30 40 O 7.603302 -3.878232 4.323305 0
M  V30 41 H 7.548643 -2.010741 5.552639 0
M  V30 42 H 7.263179 -0.508416 4.597391 0
M  V30 43 H 6.055565 -1.051659 5.867199 0
M  V30 44 H 4.619481 -0.738775 3.727259 0
M  V30 45 H 3.524429 -2.960784 0.040572 0
M  V30 46 H 1.596105 -2.172490 -1.173691 0
M  V30 47 H 1.793084 1.036363 -0.473570 0
M  V30 48 H 2.327512 2.895918 -1.766521 0
M  V30 49 H 0.845811 2.642008 -2.812892 0
M  V30 50 H 2.362055 4.142901 0.127612 0
M  V30 51 H 1.532241 5.991011 1.443890 0
M  V30 52 H -0.805382 6.807491 1.056541 0
M  V30 53 H -2.201445 5.657494 -0.703367 0
M  V30 54 H -1.275881 3.830548 -1.957392 0
M  V30 55 H -2.315419 -0.727983 -0.839174 0
M  V30 56 H -0.764740 -2.450231 -1.824069 0
M  V30 57 H -0.818243 -3.319614 -0.256407 0
M  V30 58 H -2.613127 -4.238564 -1.345437 0
M  V30 59 H -2.959066 -2.739547 -2.249564 0
M  V30 60 H -4.380530 -3.732156 -0.043384 0
M  V30 61 H -4.529290 -0.858860 0.072970 0
M  V30 62 H -5.098158 -3.762618 -2.252519 0
M  V30 63 H -6.655079 -3.808239 -4.082496 0
M  V30 64 H -7.694744 0.209675 -2.983086 0
M  V30 65 H -3.823793 -2.349710 1.920691 0
M  V30 66 H -2.628306 -3.580696 1.478071 0
M  V30 67 H -2.415969 -0.622545 1.675696 0
M  V30 68 H -1.130526 -1.936902 1.729934 0
M  V30 69 H 0.395926 0.093465 2.251442 0
M  V30 70 H 2.426737 -0.757192 3.481678 0
M  V30 71 H 4.274960 -4.321421 1.415117 0
M  V30 72 H 6.276705 -5.173380 2.527689 0
M  V30 END ATOM
M  V30 BEGIN BOND
M  V30 1 1 1 2
M  V30 2 1 2 3
M  V30 3 2 3 4
M  V30 4 1 4 5
M  V30 5 2 5 6
M  V30 6 1 6 7
M  V30 7 2 7 8
M  V30 8 1 8 9
M  V30 9 1 9 10
M  V30 10 2 10 11
M  V30 11 1 10 12
M  V30 12 1 12 13
M  V30 13 1 13 14
M  V30 14 2 14 15
M  V30 15 1 15 16
M  V30 16 2 16 17
M  V30 17 1 17 18
M  V30 18 2 18 19
M  V30 19 1 9 20
M  V30 20 1 20 21
M  V30 21 1 21 22
M  V30 22 1 22 23
M  V30 23 1 23 24
M  V30 24 1 24 25
M  V30 25 2 25 26
M  V30 26 1 26 27
M  V30 27 2 27 28
M  V30 28 1 28 29
M  V30 29 3 29 30
M  V30 30 1 28 31
M  V30 31 2 31 32
M  V30 32 1 23 33
M  V30 33 1 33 34
M  V30 34 1 8 35
M  V30 35 2 35 36
M  V30 36 1 4 37
M  V30 37 2 37 38
M  V30 38 1 38 39
M  V30 39 2 39 40
M  V30 40 1 39 2
M  V30 41 1 36 5
M  V30 42 1 19 14
M  V30 43 1 34 20
M  V30 44 1 32 25
M  V30 45 1 1 41
M  V30 46 1 1 42
M  V30 47 1 1 43
M  V30 48 1 3 44
M  V30 49 1 6 45
M  V30 50 1 7 46
M  V30 51 1 12 47
M  V30 52 1 13 48
M  V30 53 1 13 49
M  V30 54 1 15 50
M  V30 55 1 16 51
M  V30 56 1 17 52
M  V30 57 1 18 53
M  V30 58 1 19 54
M  V30 59 1 20 55 CFG=3
M  V30 60 1 21 56
M  V30 61 1 21 57
M  V30 62 1 22 58
M  V30 63 1 22 59
M  V30 64 1 23 60 CFG=1
M  V30 65 1 24 61
M  V30 66 1 26 62
M  V30 67 1 27 63
M  V30 68 1 31 64
M  V30 69 1 33 65
M  V30 70 1 33 66
M  V30 71 1 34 67
M  V30 72 1 34 68
M  V30 73 1 35 69
M  V30 74 1 36 70
M  V30 75 1 37 71
M  V30 76 1 38 72
M  V30 END BOND
M  V30 END CTAB
M  END
>  <Dataset>  (161) 
ChEMBL_Kinases

>  <Ligand_Instance>  (161) 
nan

>  <PDB_ID>  (161) 
nan

>  <Standardized_SMILES>  (161) 
Cn1cc(-c2ccc(N(C(=O)NCc3ccccc3)[C@H]3CC[C@H](Nc4ccc(C#N)cn4)CC3)cc2)ccc1=O

>  <Name>  (161) 
nan

>  <Pocket>  (161) 
nan

>  <ATP_Site>  (161) 
nan

>  <Peripheral>  (161) 
nan

>  <Num_H_Atoms_ProtBoundConf>  (161) 
nan

>  <Num_Resolved_Atoms>  (161) 
nan

>  <Num_Not_Resolved_Atoms>  (161) 
nan

$$$$
CHEMBL4789558
     RDKit          3D

  0  0  0  0  0  0  0  0  0  0999 V3000
M  V30 BEGIN CTAB
M  V30 COUNTS 53 57 0 0 0
M  V30 BEGIN ATOM
M  V30 1 C -0.464171 0.112096 4.595681 0
M  V30 2 O 0.469058 0.545225 3.607310 0
M  V30 3 C 1.739145 -0.011126 3.549700 0
M  V30 4 C 2.137472 -0.989558 4.434994 0
M  V30 5 C 3.388522 -1.566630 4.410897 0
M  V30 6 C 4.297724 -1.157394 3.462299 0
M  V30 7 C 3.932730 -0.180940 2.561312 0
M  V30 8 F 4.775664 0.274884 1.596008 0
M  V30 9 C 2.675206 0.386465 2.599749 0
M  V30 10 C 2.205327 1.431900 1.677632 0
M  V30 11 C 1.588419 0.997850 0.509921 0
M  V30 12 C 1.121983 1.950347 -0.403372 0
M  V30 13 C 1.283961 3.304330 -0.126213 0
M  V30 14 C 1.906264 3.684746 1.053072 0
M  V30 15 N 2.353212 2.762844 1.928429 0
M  V30 16 C 0.726848 3.996542 -1.206467 0
M  V30 17 N 0.267353 3.069205 -2.061871 0
M  V30 18 N 0.492065 1.846680 -1.603757 0
M  V30 19 C 0.184714 0.570403 -2.160349 0
M  V30 20 C 0.951752 -0.018938 -3.167410 0
M  V30 21 C 0.618943 -1.251492 -3.675247 0
M  V30 22 N -0.462332 -1.891701 -3.189442 0
M  V30 23 C -1.213011 -1.320158 -2.207181 0
M  V30 24 N -2.362725 -1.955933 -1.662132 0
M  V30 25 C -3.184340 -1.366508 -0.609810 0
M  V30 26 C -3.943016 -2.399941 0.152083 0
M  V30 27 N -3.314787 -3.671037 0.282517 0
M  V30 28 C -2.568391 -3.861816 1.496317 0
M  V30 29 C -2.628176 -4.162597 -0.867638 0
M  V30 30 C -2.852979 -3.255803 -2.082990 0
M  V30 31 N -0.902382 -0.115705 -1.698879 0
M  V30 32 H -0.873100 -0.894145 4.299887 0
M  V30 33 H 0.015874 0.026978 5.582719 0
M  V30 34 H -1.322128 0.821063 4.608539 0
M  V30 35 H 1.468008 -1.358306 5.209231 0
M  V30 36 H 3.681697 -2.344294 5.127115 0
M  V30 37 H 5.299516 -1.598689 3.419631 0
M  V30 38 H 1.467915 -0.070244 0.305169 0
M  V30 39 H 2.017950 4.735681 1.241393 0
M  V30 40 H 0.687932 5.077615 -1.306438 0
M  V30 41 H 1.815406 0.547122 -3.520718 0
M  V30 42 H 1.207465 -1.707058 -4.450082 0
M  V30 43 H -2.594760 -0.754859 0.097386 0
M  V30 44 H -3.949543 -0.674204 -1.057570 0
M  V30 45 H -4.977359 -2.562364 -0.248182 0
M  V30 46 H -4.122106 -2.003451 1.188973 0
M  V30 47 H -2.941271 -3.269126 2.333491 0
M  V30 48 H -2.606432 -4.941971 1.746713 0
M  V30 49 H -1.493995 -3.594680 1.345208 0
M  V30 50 H -2.848964 -5.208497 -1.084798 0
M  V30 51 H -1.523463 -4.061822 -0.655638 0
M  V30 52 H -2.163453 -3.672573 -2.865184 0
M  V30 53 H -3.879172 -3.262393 -2.444407 0
M  V30 END ATOM
M  V30 BEGIN BOND
M  V30 1 1 1 2
M  V30 2 1 2 3
M  V30 3 2 3 4
M  V30 4 1 4 5
M  V30 5 2 5 6
M  V30 6 1 6 7
M  V30 7 1 7 8
M  V30 8 2 7 9
M  V30 9 1 9 10
M  V30 10 2 10 11
M  V30 11 1 11 12
M  V30 12 2 12 13
M  V30 13 1 13 14
M  V30 14 2 14 15
M  V30 15 1 13 16
M  V30 16 2 16 17
M  V30 17 1 17 18
M  V30 18 1 18 19
M  V30 19 2 19 20
M  V30 20 1 20 21
M  V30 21 2 21 22
M  V30 22 1 22 23
M  V30 23 1 23 24
M  V30 24 1 24 25
M  V30 25 1 25 26
M  V30 26 1 26 27
M  V30 27 1 27 28
M  V30 28 1 27 29
M  V30 29 1 29 30
M  V30 30 2 23 31
M  V30 31 1 9 3
M  V30 32 1 15 10
M  V30 33 1 31 19
M  V30 34 1 18 12
M  V30 35 1 30 24
M  V30 36 1 1 32
M  V30 37 1 1 33
M  V30 38 1 1 34
M  V30 39 1 4 35
M  V30 40 1 5 36
M  V30 41 1 6 37
M  V30 42 1 11 38
M  V30 43 1 14 39
M  V30 44 1 16 40
M  V30 45 1 20 41
M  V30 46 1 21 42
M  V30 47 1 25 43
M  V30 48 1 25 44
M  V30 49 1 26 45
M  V30 50 1 26 46
M  V30 51 1 28 47
M  V30 52 1 28 48
M  V30 53 1 28 49
M  V30 54 1 29 50
M  V30 55 1 29 51
M  V30 56 1 30 52
M  V30 57 1 30 53
M  V30 END BOND
M  V30 END CTAB
M  END
>  <Dataset>  (162) 
ChEMBL_Kinases

>  <Ligand_Instance>  (162) 
nan

>  <PDB_ID>  (162) 
nan

>  <Standardized_SMILES>  (162) 
COc1cccc(F)c1-c1cc2c(cn1)cnn2-c1ccnc(N2CCN(C)CC2)n1

>  <Name>  (162) 
nan

>  <Pocket>  (162) 
nan

>  <ATP_Site>  (162) 
nan

>  <Peripheral>  (162) 
nan

>  <Num_H_Atoms_ProtBoundConf>  (162) 
nan

>  <Num_Resolved_Atoms>  (162) 
nan

>  <Num_Not_Resolved_Atoms>  (162) 
nan

$$$$
CHEMBL4789095
     RDKit          3D

  0  0  0  0  0  0  0  0  0  0999 V3000
M  V30 BEGIN CTAB
M  V30 COUNTS 76 79 0 0 0
M  V30 BEGIN ATOM
M  V30 1 C 6.482660 -0.865977 4.717234 0
M  V30 2 C 6.031680 -2.179867 4.175179 0
M  V30 3 N 5.794838 -2.317580 2.813725 0
M  V30 4 C 5.374965 -3.646349 2.470495 0
M  V30 5 C 4.003759 -4.010358 2.998644 0
M  V30 6 C 6.463552 -1.606859 1.818627 0
M  V30 7 C 6.155207 -0.126652 1.716344 0
M  V30 8 N 4.729899 -0.010108 1.475543 0
M  V30 9 C 4.076723 1.237492 1.320443 0
M  V30 10 O 4.922709 2.141251 1.425805 0
M  V30 11 C 2.673847 1.507452 1.079387 0
M  V30 12 C 2.258909 2.820427 1.029993 0
M  V30 13 C 2.834711 4.184442 1.156922 0
M  V30 14 N 0.919234 2.803118 0.797536 0
M  V30 15 C 0.426308 1.558498 0.691679 0
M  V30 16 C -0.888569 1.001163 0.399344 0
M  V30 17 C -1.486226 0.264550 1.346488 0
M  V30 18 C -1.116202 -0.134014 2.690700 0
M  V30 19 O -0.068697 0.233565 3.235544 0
M  V30 20 N -2.117806 -0.972771 3.240668 0
M  V30 21 C -3.129701 -1.113184 2.255499 0
M  V30 22 C -4.306436 -1.842162 2.333569 0
M  V30 23 C -5.160100 -1.846220 1.242677 0
M  V30 24 C -4.856551 -1.137933 0.084635 0
M  V30 25 C -5.793465 -1.188960 -1.034011 0
M  V30 26 O -6.827837 -1.895171 -0.881559 0
M  V30 27 N -5.572306 -0.488661 -2.239938 0
M  V30 28 C -6.553680 -0.601286 -3.294225 0 CFG=1
M  V30 29 C -7.234811 0.701985 -3.629495 0
M  V30 30 C -5.990659 -1.153074 -4.537944 0
M  V30 31 C -4.769799 -0.656513 -4.977071 0
M  V30 32 C -4.128437 -1.087259 -6.129254 0
M  V30 33 C -4.733366 -2.071554 -6.894985 0
M  V30 34 C -5.942675 -2.578588 -6.480635 0
M  V30 35 C -6.547597 -2.125331 -5.331488 0
M  V30 36 C -3.677002 -0.430416 0.058105 0
M  V30 37 C -2.793295 -0.394310 1.117167 0
M  V30 38 C 1.552665 0.744903 0.871225 0
M  V30 39 C 1.591820 -0.753678 0.801907 0
M  V30 40 H 6.633752 -1.016915 5.839184 0
M  V30 41 H 7.487538 -0.625277 4.348397 0
M  V30 42 H 5.731271 -0.079311 4.660580 0
M  V30 43 H 6.797523 -2.931367 4.568706 0
M  V30 44 H 5.092381 -2.531148 4.719975 0
M  V30 45 H 5.414228 -3.858408 1.385064 0
M  V30 46 H 6.092063 -4.348305 2.971715 0
M  V30 47 H 3.777044 -5.037732 2.602959 0
M  V30 48 H 3.198822 -3.364130 2.614338 0
M  V30 49 H 3.986880 -4.122689 4.101219 0
M  V30 50 H 6.127458 -2.034964 0.818846 0
M  V30 51 H 7.573307 -1.778655 1.781130 0
M  V30 52 H 6.645753 0.302522 0.785489 0
M  V30 53 H 6.507931 0.492709 2.527085 0
M  V30 54 H 4.138818 -0.867460 1.413363 0
M  V30 55 H 2.891137 4.617040 0.115611 0
M  V30 56 H 2.184072 4.884670 1.724797 0
M  V30 57 H 3.852678 4.143814 1.535923 0
M  V30 58 H 0.180681 3.544577 0.682391 0
M  V30 59 H -1.401211 1.161318 -0.557417 0
M  V30 60 H -2.063642 -1.382473 4.202776 0
M  V30 61 H -4.540815 -2.398367 3.247113 0
M  V30 62 H -6.061451 -2.438811 1.376995 0
M  V30 63 H -4.724383 0.097498 -2.376619 0
M  V30 64 H -7.359731 -1.293444 -2.952981 0
M  V30 65 H -7.670054 0.572354 -4.661141 0
M  V30 66 H -6.539447 1.558862 -3.685002 0
M  V30 67 H -8.098987 0.835226 -2.973864 0
M  V30 68 H -4.279255 0.113338 -4.393842 0
M  V30 69 H -3.173234 -0.636062 -6.389847 0
M  V30 70 H -4.160520 -2.344051 -7.774823 0
M  V30 71 H -6.375983 -3.340818 -7.105730 0
M  V30 72 H -7.501288 -2.527705 -5.007696 0
M  V30 73 H -3.410253 0.130057 -0.820712 0
M  V30 74 H 1.839205 -1.166335 1.794910 0
M  V30 75 H 2.276888 -1.143939 0.054818 0
M  V30 76 H 0.565158 -1.129457 0.579266 0
M  V30 END ATOM
M  V30 BEGIN BOND
M  V30 1 1 1 2
M  V30 2 1 2 3
M  V30 3 1 3 4
M  V30 4 1 4 5
M  V30 5 1 3 6
M  V30 6 1 6 7
M  V30 7 1 7 8
M  V30 8 1 8 9
M  V30 9 2 9 10
M  V30 10 1 9 11
M  V30 11 2 11 12
M  V30 12 1 12 13
M  V30 13 1 12 14
M  V30 14 1 14 15
M  V30 15 1 15 16
M  V30 16 2 16 17
M  V30 17 1 17 18
M  V30 18 2 18 19
M  V30 19 1 18 20
M  V30 20 1 20 21
M  V30 21 2 21 22
M  V30 22 1 22 23
M  V30 23 2 23 24
M  V30 24 1 24 25
M  V30 25 2 25 26
M  V30 26 1 25 27
M  V30 27 1 27 28
M  V30 28 1 28 29
M  V30 29 1 28 30
M  V30 30 2 30 31
M  V30 31 1 31 32
M  V30 32 2 32 33
M  V30 33 1 33 34
M  V30 34 2 34 35
M  V30 35 1 24 36
M  V30 36 2 36 37
M  V30 37 2 15 38
M  V30 38 1 38 39
M  V30 39 1 38 11
M  V30 40 1 37 17
M  V30 41 1 37 21
M  V30 42 1 35 30
M  V30 43 1 1 40
M  V30 44 1 1 41
M  V30 45 1 1 42
M  V30 46 1 2 43
M  V30 47 1 2 44
M  V30 48 1 4 45
M  V30 49 1 4 46
M  V30 50 1 5 47
M  V30 51 1 5 48
M  V30 52 1 5 49
M  V30 53 1 6 50
M  V30 54 1 6 51
M  V30 55 1 7 52
M  V30 56 1 7 53
M  V30 57 1 8 54
M  V30 58 1 13 55
M  V30 59 1 13 56
M  V30 60 1 13 57
M  V30 61 1 14 58
M  V30 62 1 16 59
M  V30 63 1 20 60
M  V30 64 1 22 61
M  V30 65 1 23 62
M  V30 66 1 27 63
M  V30 67 1 28 64 CFG=1
M  V30 68 1 29 65
M  V30 69 1 29 66
M  V30 70 1 29 67
M  V30 71 1 31 68
M  V30 72 1 32 69
M  V30 73 1 33 70
M  V30 74 1 34 71
M  V30 75 1 35 72
M  V30 76 1 36 73
M  V30 77 1 39 74
M  V30 78 1 39 75
M  V30 79 1 39 76
M  V30 END BOND
M  V30 END CTAB
M  END
>  <Dataset>  (163) 
ChEMBL_Kinases

>  <Ligand_Instance>  (163) 
nan

>  <PDB_ID>  (163) 
nan

>  <Standardized_SMILES>  (163) 
CCN(CC)CCNC(=O)c1c(C)[nH]c(/C=C2\C(=O)Nc3ccc(C(=O)N[C@@H](C)c4ccccc4)cc32)c1C

>  <Name>  (163) 
nan

>  <Pocket>  (163) 
nan

>  <ATP_Site>  (163) 
nan

>  <Peripheral>  (163) 
nan

>  <Num_H_Atoms_ProtBoundConf>  (163) 
nan

>  <Num_Resolved_Atoms>  (163) 
nan

>  <Num_Not_Resolved_Atoms>  (163) 
nan

$$$$
CHEMBL4160587
     RDKit          3D

  0  0  0  0  0  0  0  0  0  0999 V3000
M  V30 BEGIN CTAB
M  V30 COUNTS 56 60 0 0 0
M  V30 BEGIN ATOM
M  V30 1 O -3.175934 -4.480626 3.671009 0
M  V30 2 C -2.360679 -3.615570 3.312189 0
M  V30 3 N -1.730082 -2.698055 4.202667 0
M  V30 4 C -0.873571 -1.878544 3.397981 0
M  V30 5 C -0.062143 -0.846830 3.822379 0
M  V30 6 C 0.695245 -0.163652 2.898428 0
M  V30 7 C 0.663519 -0.484898 1.554180 0
M  V30 8 C 1.458371 0.243319 0.573573 0
M  V30 9 O 1.568170 -0.005102 -0.648636 0
M  V30 10 N 2.226407 1.375206 0.950426 0
M  V30 11 C 3.049568 2.169740 0.057938 0 CFG=2
M  V30 12 C 4.427774 2.434265 0.604259 0
M  V30 13 O 5.105710 3.206692 -0.361050 0
M  V30 14 C 2.393368 3.500250 -0.178016 0
M  V30 15 C 2.335952 4.026784 -1.453556 0
M  V30 16 C 1.755716 5.245610 -1.817762 0
M  V30 17 C 1.203867 5.947009 -0.767514 0
M  V30 18 C 1.228141 5.477759 0.526868 0
M  V30 19 C 1.814573 4.276137 0.802426 0
M  V30 20 C -0.166024 -1.527610 1.176744 0
M  V30 21 C -0.937837 -2.235423 2.065807 0
M  V30 22 C -1.877792 -3.339004 1.984315 0
M  V30 23 C -2.193255 -3.942442 0.860123 0
M  V30 24 C -1.684781 -3.636745 -0.481749 0
M  V30 25 C -2.500159 -2.692614 -1.122531 0
M  V30 26 C -2.171495 -2.316056 -2.408613 0
M  V30 27 C -1.066674 -2.868331 -3.023616 0
M  V30 28 C -0.249100 -3.805083 -2.400611 0
M  V30 29 C -0.562396 -4.202244 -1.096356 0
M  V30 30 C -3.145052 -5.079980 0.834776 0
M  V30 31 N -3.292933 -6.116999 1.643601 0
M  V30 32 C -4.307228 -6.875155 1.199487 0
M  V30 33 C -4.862892 -6.333112 0.053091 0
M  V30 34 N -4.109190 -5.234105 -0.121835 0
M  V30 35 H -1.879667 -2.653179 5.230734 0
M  V30 36 H -0.017855 -0.572066 4.874050 0
M  V30 37 H 1.309908 0.629724 3.284343 0
M  V30 38 H 2.276223 1.752300 1.919468 0
M  V30 39 H 3.085867 1.672304 -0.946927 0
M  V30 40 H 4.992810 1.539224 0.853364 0
M  V30 41 H 4.313061 3.087020 1.511489 0
M  V30 42 H 5.185785 2.681297 -1.179075 0
M  V30 43 H 2.788144 3.427304 -2.238516 0
M  V30 44 H 1.790092 5.517887 -2.855846 0
M  V30 45 H 0.740214 6.908994 -1.030282 0
M  V30 46 H 0.772853 6.079177 1.330561 0
M  V30 47 H 1.837321 3.900763 1.824718 0
M  V30 48 H -0.149339 -1.725563 0.136856 0
M  V30 49 H -3.366679 -2.238546 -0.686630 0
M  V30 50 H -2.771479 -1.580323 -2.963594 0
M  V30 51 H -0.829187 -2.565229 -4.023124 0
M  V30 52 H 0.622733 -4.261268 -2.845606 0
M  V30 53 H -0.024213 -4.916033 -0.487702 0
M  V30 54 H -4.706917 -7.808632 1.621859 0
M  V30 55 H -5.676974 -6.637362 -0.588679 0
M  V30 56 H -4.266363 -4.568250 -0.929040 0
M  V30 END ATOM
M  V30 BEGIN BOND
M  V30 1 2 1 2
M  V30 2 1 2 3
M  V30 3 1 3 4
M  V30 4 2 4 5
M  V30 5 1 5 6
M  V30 6 2 6 7
M  V30 7 1 7 8
M  V30 8 2 8 9
M  V30 9 1 8 10
M  V30 10 1 10 11
M  V30 11 1 11 12
M  V30 12 1 12 13
M  V30 13 1 11 14
M  V30 14 2 14 15
M  V30 15 1 15 16
M  V30 16 2 16 17
M  V30 17 1 17 18
M  V30 18 2 18 19
M  V30 19 1 7 20
M  V30 20 2 20 21
M  V30 21 1 21 22
M  V30 22 2 22 23
M  V30 23 1 23 24
M  V30 24 2 24 25
M  V30 25 1 25 26
M  V30 26 2 26 27
M  V30 27 1 27 28
M  V30 28 2 28 29
M  V30 29 1 23 30
M  V30 30 2 30 31
M  V30 31 1 31 32
M  V30 32 2 32 33
M  V30 33 1 33 34
M  V30 34 1 22 2
M  V30 35 1 29 24
M  V30 36 1 34 30
M  V30 37 1 21 4
M  V30 38 1 19 14
M  V30 39 1 3 35
M  V30 40 1 5 36
M  V30 41 1 6 37
M  V30 42 1 10 38
M  V30 43 1 11 39 CFG=3
M  V30 44 1 12 40
M  V30 45 1 12 41
M  V30 46 1 13 42
M  V30 47 1 15 43
M  V30 48 1 16 44
M  V30 49 1 17 45
M  V30 50 1 18 46
M  V30 51 1 19 47
M  V30 52 1 20 48
M  V30 53 1 25 49
M  V30 54 1 26 50
M  V30 55 1 27 51
M  V30 56 1 28 52
M  V30 57 1 29 53
M  V30 58 1 32 54
M  V30 59 1 33 55
M  V30 60 1 34 56
M  V30 END BOND
M  V30 END CTAB
M  END
>  <Dataset>  (164) 
ChEMBL_Kinases

>  <Ligand_Instance>  (164) 
nan

>  <PDB_ID>  (164) 
nan

>  <Standardized_SMILES>  (164) 
O=C1Nc2ccc(C(=O)N[C@H](CO)c3ccccc3)cc2/C1=C(\c1ccccc1)c1ncc[nH]1

>  <Name>  (164) 
nan

>  <Pocket>  (164) 
nan

>  <ATP_Site>  (164) 
nan

>  <Peripheral>  (164) 
nan

>  <Num_H_Atoms_ProtBoundConf>  (164) 
nan

>  <Num_Resolved_Atoms>  (164) 
nan

>  <Num_Not_Resolved_Atoms>  (164) 
nan

$$$$
CHEMBL4160580
     RDKit          3D

  0  0  0  0  0  0  0  0  0  0999 V3000
M  V30 BEGIN CTAB
M  V30 COUNTS 65 69 0 0 0
M  V30 BEGIN ATOM
M  V30 1 C 2.592001 -2.101825 2.834391 0
M  V30 2 O 2.233629 -1.638047 1.545346 0
M  V30 3 C 2.920824 -1.787692 0.393996 0
M  V30 4 O 3.995775 -2.419266 0.521747 0
M  V30 5 C 2.045882 -1.097752 -0.561057 0
M  V30 6 C 1.134397 -1.879252 -1.268053 0
M  V30 7 C 1.107607 -3.355656 -1.193994 0
M  V30 8 N 0.288548 -1.177485 -2.054380 0
M  V30 9 C 0.320102 0.186436 -2.153477 0
M  V30 10 N -0.627012 0.792367 -2.996469 0
M  V30 11 N -1.974863 0.643456 -2.582453 0
M  V30 12 C -2.239536 0.501718 -1.181802 0
M  V30 13 O -1.210176 0.535457 -0.393196 0
M  V30 14 C -3.339522 0.324916 -0.241685 0
M  V30 15 C -3.663795 1.339483 0.664954 0
M  V30 16 C -4.661297 1.172874 1.591317 0
M  V30 17 C -5.300613 -0.049393 1.544563 0
M  V30 18 C -5.063939 -1.109633 0.695068 0
M  V30 19 C -5.780494 -2.287238 0.755645 0
M  V30 20 O -6.687513 -2.466771 1.580602 0
M  V30 21 C -5.373287 -3.232650 -0.192701 0
M  V30 22 C -6.079850 -4.421519 -0.151272 0
M  V30 23 C -5.782767 -5.443201 -1.036596 0
M  V30 24 C -4.777409 -5.291073 -1.974361 0
M  V30 25 C -4.075990 -4.078542 -1.993119 0
M  V30 26 C -4.364413 -3.048528 -1.112418 0
M  V30 27 N -3.739202 -1.864482 -1.077269 0
M  V30 28 C -4.028276 -0.870676 -0.221389 0
M  V30 29 N 1.225395 0.929529 -1.449652 0
M  V30 30 C 2.109639 0.296240 -0.635361 0
M  V30 31 C 3.091858 0.910733 0.253810 0
M  V30 32 C 4.417046 0.516613 0.141045 0
M  V30 33 C 5.189591 1.122568 1.119995 0
M  V30 34 C 4.761606 2.010432 2.108370 0
M  V30 35 O 5.450818 2.641054 3.104419 0
M  V30 36 C 6.833662 2.432789 3.282431 0
M  V30 37 C 3.415034 2.332501 2.123199 0
M  V30 38 O 2.868446 3.189172 3.025786 0
M  V30 39 C 1.567722 3.623303 3.193208 0
M  V30 40 C 2.575878 1.766023 1.175251 0
M  V30 41 H 2.597023 -1.218944 3.562656 0
M  V30 42 H 3.616296 -2.520311 2.858404 0
M  V30 43 H 1.907921 -2.856305 3.249230 0
M  V30 44 H 0.706700 -3.698980 -0.226388 0
M  V30 45 H 2.143563 -3.746782 -1.284015 0
M  V30 46 H 0.548833 -3.773151 -2.049659 0
M  V30 47 H -0.501142 1.360309 -3.862583 0
M  V30 48 H -2.968388 0.567556 -2.980852 0
M  V30 49 H -3.107230 2.289153 0.650733 0
M  V30 50 H -4.972869 1.915099 2.329178 0
M  V30 51 H -6.094370 -0.192772 2.266381 0
M  V30 52 H -6.889372 -4.632608 0.558910 0
M  V30 53 H -6.317995 -6.415234 -1.036271 0
M  V30 54 H -4.482992 -6.062367 -2.703726 0
M  V30 55 H -3.290159 -3.925387 -2.700928 0
M  V30 56 H -2.983992 -1.710523 -1.788461 0
M  V30 57 H 4.872632 -0.137511 -0.566201 0
M  V30 58 H 6.246770 0.914943 1.155676 0
M  V30 59 H 7.344309 3.416702 3.492735 0
M  V30 60 H 7.355961 2.046042 2.386185 0
M  V30 61 H 7.044168 1.670970 4.079827 0
M  V30 62 H 1.357331 3.658141 4.309384 0
M  V30 63 H 0.777391 3.085218 2.655292 0
M  V30 64 H 1.521046 4.712394 2.903379 0
M  V30 65 H 1.511994 1.999558 1.161463 0
M  V30 END ATOM
M  V30 BEGIN BOND
M  V30 1 1 1 2
M  V30 2 1 2 3
M  V30 3 2 3 4
M  V30 4 1 3 5
M  V30 5 2 5 6
M  V30 6 1 6 7
M  V30 7 1 6 8
M  V30 8 2 8 9
M  V30 9 1 9 10
M  V30 10 1 10 11
M  V30 11 1 11 12
M  V30 12 2 12 13
M  V30 13 1 12 14
M  V30 14 2 14 15
M  V30 15 1 15 16
M  V30 16 2 16 17
M  V30 17 1 17 18
M  V30 18 1 18 19
M  V30 19 2 19 20
M  V30 20 1 19 21
M  V30 21 2 21 22
M  V30 22 1 22 23
M  V30 23 2 23 24
M  V30 24 1 24 25
M  V30 25 2 25 26
M  V30 26 1 26 27
M  V30 27 1 27 28
M  V30 28 1 9 29
M  V30 29 2 29 30
M  V30 30 1 30 31
M  V30 31 2 31 32
M  V30 32 1 32 33
M  V30 33 2 33 34
M  V30 34 1 34 35
M  V30 35 1 35 36
M  V30 36 1 34 37
M  V30 37 1 37 38
M  V30 38 1 38 39
M  V30 39 2 37 40
M  V30 40 1 30 5
M  V30 41 1 40 31
M  V30 42 1 28 14
M  V30 43 2 28 18
M  V30 44 1 26 21
M  V30 45 1 1 41
M  V30 46 1 1 42
M  V30 47 1 1 43
M  V30 48 1 7 44
M  V30 49 1 7 45
M  V30 50 1 7 46
M  V30 51 1 10 47
M  V30 52 1 11 48
M  V30 53 1 15 49
M  V30 54 1 16 50
M  V30 55 1 17 51
M  V30 56 1 22 52
M  V30 57 1 23 53
M  V30 58 1 24 54
M  V30 59 1 25 55
M  V30 60 1 27 56
M  V30 61 1 32 57
M  V30 62 1 33 58
M  V30 63 1 36 59
M  V30 64 1 36 60
M  V30 65 1 36 61
M  V30 66 1 39 62
M  V30 67 1 39 63
M  V30 68 1 39 64
M  V30 69 1 40 65
M  V30 END BOND
M  V30 END CTAB
M  END
>  <Dataset>  (165) 
ChEMBL_Kinases

>  <Ligand_Instance>  (165) 
nan

>  <PDB_ID>  (165) 
nan

>  <Standardized_SMILES>  (165) 
COC(=O)c1c(C)nc(NNC(=O)c2cccc3c(=O)c4ccccc4[nH]c23)nc1-c1ccc(OC)c(OC)c1

>  <Name>  (165) 
nan

>  <Pocket>  (165) 
nan

>  <ATP_Site>  (165) 
nan

>  <Peripheral>  (165) 
nan

>  <Num_H_Atoms_ProtBoundConf>  (165) 
nan

>  <Num_Resolved_Atoms>  (165) 
nan

>  <Num_Not_Resolved_Atoms>  (165) 
nan

$$$$
CHEMBL4789122
     RDKit          3D

  0  0  0  0  0  0  0  0  0  0999 V3000
M  V30 BEGIN CTAB
M  V30 COUNTS 25 27 0 0 0
M  V30 BEGIN ATOM
M  V30 1 O -1.638637 -3.352255 2.575352 0
M  V30 2 C -0.403621 -3.142486 2.466614 0
M  V30 3 N 0.493076 -4.005223 2.972722 0
M  V30 4 C 1.810373 -3.765501 2.847533 0
M  V30 5 C 2.313605 -2.632273 2.199312 0
M  V30 6 C 1.322332 -1.796557 1.707847 0
M  V30 7 N 1.540734 -0.628920 1.036987 0
M  V30 8 C 0.361684 -0.107362 0.724744 0
M  V30 9 C 0.086969 1.141257 0.002345 0
M  V30 10 C -1.202055 1.582035 -0.264423 0
M  V30 11 C -1.393080 2.768192 -0.950001 0
M  V30 12 C -0.285516 3.486452 -1.353084 0
M  V30 13 C 1.022941 3.099993 -1.117431 0
M  V30 14 C 1.167077 1.896152 -0.422124 0
M  V30 15 C -0.586106 -0.986809 1.222305 0
M  V30 16 N -0.006885 -2.026312 1.827174 0
M  V30 17 H 0.138029 -4.860707 3.462319 0
M  V30 18 H 2.529939 -4.482135 3.267682 0
M  V30 19 H 3.356726 -2.422677 2.088780 0
M  V30 20 H -2.031844 0.973099 0.078382 0
M  V30 21 H -2.396261 3.115296 -1.159959 0
M  V30 22 H -0.480804 4.411730 -1.888333 0
M  V30 23 H 1.874955 3.679875 -1.443273 0
M  V30 24 H 2.164680 1.565433 -0.221670 0
M  V30 25 H -1.672865 -0.914932 1.170162 0
M  V30 END ATOM
M  V30 BEGIN BOND
M  V30 1 2 1 2
M  V30 2 1 2 3
M  V30 3 1 3 4
M  V30 4 2 4 5
M  V30 5 1 5 6
M  V30 6 2 6 7
M  V30 7 1 7 8
M  V30 8 1 8 9
M  V30 9 2 9 10
M  V30 10 1 10 11
M  V30 11 2 11 12
M  V30 12 1 12 13
M  V30 13 2 13 14
M  V30 14 2 8 15
M  V30 15 1 15 16
M  V30 16 1 16 2
M  V30 17 1 16 6
M  V30 18 1 14 9
M  V30 19 1 3 17
M  V30 20 1 4 18
M  V30 21 1 5 19
M  V30 22 1 10 20
M  V30 23 1 11 21
M  V30 24 1 12 22
M  V30 25 1 13 23
M  V30 26 1 14 24
M  V30 27 1 15 25
M  V30 END BOND
M  V30 END CTAB
M  END
>  <Dataset>  (166) 
ChEMBL_Kinases

>  <Ligand_Instance>  (166) 
nan

>  <PDB_ID>  (166) 
nan

>  <Standardized_SMILES>  (166) 
O=c1[nH]ccc2nc(-c3ccccc3)cn12

>  <Name>  (166) 
nan

>  <Pocket>  (166) 
nan

>  <ATP_Site>  (166) 
nan

>  <Peripheral>  (166) 
nan

>  <Num_H_Atoms_ProtBoundConf>  (166) 
nan

>  <Num_Resolved_Atoms>  (166) 
nan

>  <Num_Not_Resolved_Atoms>  (166) 
nan

$$$$
CHEMBL4789177
     RDKit          3D

  0  0  0  0  0  0  0  0  0  0999 V3000
M  V30 BEGIN CTAB
M  V30 COUNTS 54 57 0 0 0
M  V30 BEGIN ATOM
M  V30 1 C 5.196637 0.716457 3.300633 0
M  V30 2 C 4.251990 -0.204101 3.998084 0
M  V30 3 C 4.272497 -1.618391 3.531701 0
M  V30 4 S 3.852363 -1.878726 1.850979 0
M  V30 5 O 4.824174 -1.228814 0.905548 0
M  V30 6 O 3.953251 -3.370303 1.598845 0
M  V30 7 N 2.287389 -1.369364 1.423671 0
M  V30 8 C 1.678267 -0.094775 1.442206 0
M  V30 9 C 2.508196 0.984364 1.179829 0
M  V30 10 C 1.962253 2.242403 1.174751 0
M  V30 11 C 0.617164 2.467773 1.420796 0
M  V30 12 F 0.173601 3.749705 1.393538 0
M  V30 13 C -0.221481 1.415573 1.681037 0
M  V30 14 C -1.614098 1.660838 1.974126 0
M  V30 15 O -1.746837 2.845364 2.457342 0
M  V30 16 C -2.859658 0.976191 1.882052 0
M  V30 17 N -3.900781 1.285875 2.673325 0
M  V30 18 N -4.945217 0.509791 2.345201 0
M  V30 19 C -4.644302 -0.327405 1.342601 0
M  V30 20 N -5.338523 -1.262314 0.670278 0
M  V30 21 C -4.722590 -1.935153 -0.330227 0
M  V30 22 C -3.388520 -1.692069 -0.690005 0
M  V30 23 C -2.801365 -2.454256 -1.772820 0
M  V30 24 C -3.097481 -3.822530 -1.686054 0
M  V30 25 C -2.622891 -4.732441 -2.638183 0
M  V30 26 C -1.847907 -4.198502 -3.663756 0
M  V30 27 C -1.542148 -2.868498 -3.775101 0
M  V30 28 C -2.024474 -2.012913 -2.825502 0
M  V30 29 O -1.794237 -0.647888 -2.814089 0
M  V30 30 C -1.000884 -0.059285 -3.852523 0
M  V30 31 C -2.756473 -0.729033 0.041964 0
M  V30 32 C -3.328692 -0.012276 1.071020 0
M  V30 33 C 0.353535 0.167899 1.681082 0
M  V30 34 F -0.328410 -0.965762 1.965110 0
M  V30 35 H 5.742868 0.270174 2.444828 0
M  V30 36 H 4.639417 1.650687 3.029092 0
M  V30 37 H 6.013333 1.096315 3.981600 0
M  V30 38 H 3.207385 0.191503 4.033783 0
M  V30 39 H 4.555567 -0.234691 5.085641 0
M  V30 40 H 3.502350 -2.162593 4.151822 0
M  V30 41 H 5.229811 -2.093721 3.810731 0
M  V30 42 H 1.576233 -2.062080 1.069106 0
M  V30 43 H 3.551324 0.904171 0.972444 0
M  V30 44 H 2.596751 3.100851 0.971573 0
M  V30 45 H -5.848027 0.609226 2.858260 0
M  V30 46 H -5.263987 -2.701902 -0.893971 0
M  V30 47 H -3.703897 -4.277790 -0.893120 0
M  V30 48 H -2.851920 -5.787394 -2.569851 0
M  V30 49 H -1.488163 -4.926116 -4.395166 0
M  V30 50 H -0.935973 -2.478090 -4.584515 0
M  V30 51 H -1.161608 1.037409 -3.874236 0
M  V30 52 H -1.228541 -0.471350 -4.847563 0
M  V30 53 H 0.082937 -0.218510 -3.681705 0
M  V30 54 H -1.729245 -0.506986 -0.217514 0
M  V30 END ATOM
M  V30 BEGIN BOND
M  V30 1 1 1 2
M  V30 2 1 2 3
M  V30 3 1 3 4
M  V30 4 2 4 5
M  V30 5 2 4 6
M  V30 6 1 4 7
M  V30 7 1 7 8
M  V30 8 2 8 9
M  V30 9 1 9 10
M  V30 10 2 10 11
M  V30 11 1 11 12
M  V30 12 1 11 13
M  V30 13 1 13 14
M  V30 14 2 14 15
M  V30 15 1 14 16
M  V30 16 2 16 17
M  V30 17 1 17 18
M  V30 18 1 18 19
M  V30 19 2 19 20
M  V30 20 1 20 21
M  V30 21 2 21 22
M  V30 22 1 22 23
M  V30 23 2 23 24
M  V30 24 1 24 25
M  V30 25 2 25 26
M  V30 26 1 26 27
M  V30 27 2 27 28
M  V30 28 1 28 29
M  V30 29 1 29 30
M  V30 30 1 22 31
M  V30 31 2 31 32
M  V30 32 2 13 33
M  V30 33 1 33 34
M  V30 34 1 33 8
M  V30 35 1 32 16
M  V30 36 1 32 19
M  V30 37 1 28 23
M  V30 38 1 1 35
M  V30 39 1 1 36
M  V30 40 1 1 37
M  V30 41 1 2 38
M  V30 42 1 2 39
M  V30 43 1 3 40
M  V30 44 1 3 41
M  V30 45 1 7 42
M  V30 46 1 9 43
M  V30 47 1 10 44
M  V30 48 1 18 45
M  V30 49 1 21 46
M  V30 50 1 24 47
M  V30 51 1 25 48
M  V30 52 1 26 49
M  V30 53 1 27 50
M  V30 54 1 30 51
M  V30 55 1 30 52
M  V30 56 1 30 53
M  V30 57 1 31 54
M  V30 END BOND
M  V30 END CTAB
M  END
>  <Dataset>  (167) 
ChEMBL_Kinases

>  <Ligand_Instance>  (167) 
nan

>  <PDB_ID>  (167) 
nan

>  <Standardized_SMILES>  (167) 
CCCS(=O)(=O)Nc1ccc(F)c(C(=O)c2n[nH]c3ncc(-c4ccccc4OC)cc23)c1F

>  <Name>  (167) 
nan

>  <Pocket>  (167) 
nan

>  <ATP_Site>  (167) 
nan

>  <Peripheral>  (167) 
nan

>  <Num_H_Atoms_ProtBoundConf>  (167) 
nan

>  <Num_Resolved_Atoms>  (167) 
nan

>  <Num_Not_Resolved_Atoms>  (167) 
nan

$$$$
CHEMBL4789271
     RDKit          3D

  0  0  0  0  0  0  0  0  0  0999 V3000
M  V30 BEGIN CTAB
M  V30 COUNTS 58 62 0 0 0
M  V30 BEGIN ATOM
M  V30 1 C 5.648791 -3.276126 4.547401 0
M  V30 2 O 6.008547 -3.122432 3.184987 0
M  V30 3 C 5.215285 -2.298525 2.388121 0
M  V30 4 C 4.115788 -1.669720 2.964918 0
M  V30 5 C 3.316929 -0.844012 2.172513 0
M  V30 6 C 3.589946 -0.631666 0.821830 0
M  V30 7 C 2.651380 0.243147 0.143258 0
M  V30 8 C 2.001672 1.285385 0.766880 0
M  V30 9 C 1.107319 2.081643 0.076979 0
M  V30 10 C 0.833094 1.857606 -1.266887 0
M  V30 11 C -0.048006 2.583785 -2.042267 0
M  V30 12 N -0.752106 3.672520 -1.402377 0
M  V30 13 C -1.881676 3.279609 -0.629183 0
M  V30 14 C -2.813496 4.147525 -0.046625 0
M  V30 15 C -3.885212 3.755600 0.708444 0
M  V30 16 C -4.077931 2.415056 0.923169 0
M  V30 17 C -3.241148 1.449951 0.411060 0
M  V30 18 N -3.268561 0.038603 0.524868 0
M  V30 19 C -3.758263 -1.088278 -0.124405 0
M  V30 20 O -4.431592 -1.083202 -1.164361 0
M  V30 21 N -3.381312 -2.264234 0.562436 0
M  V30 22 C -3.542101 -3.659561 0.432683 0
M  V30 23 C -2.553917 -4.280270 -0.351534 0
M  V30 24 C -2.507963 -5.632650 -0.607002 0
M  V30 25 C -3.506957 -6.369585 -0.038093 0
M  V30 26 C -4.512347 -5.850326 0.740630 0
M  V30 27 F -5.512526 -6.580889 1.312947 0
M  V30 28 C -4.530366 -4.494150 0.976189 0
M  V30 29 C -2.193107 1.964871 -0.337628 0
M  V30 30 N -0.221801 2.251324 -3.322575 0
M  V30 31 C 0.425236 1.226004 -3.918711 0
M  V30 32 N 1.277467 0.531302 -3.148497 0
M  V30 33 C 1.507972 0.806028 -1.840859 0
M  V30 34 C 2.427678 -0.043863 -1.209259 0
M  V30 35 C 4.683739 -1.265509 0.276954 0
M  V30 36 C 5.481098 -2.088078 1.060538 0
M  V30 37 H 6.369727 -3.952692 5.058979 0
M  V30 38 H 4.630634 -3.742906 4.603806 0
M  V30 39 H 5.641875 -2.314097 5.076108 0
M  V30 40 H 3.866956 -1.807912 4.026251 0
M  V30 41 H 2.461491 -0.368054 2.667385 0
M  V30 42 H 2.191224 1.491758 1.818594 0
M  V30 43 H 0.570981 2.921258 0.544796 0
M  V30 44 H -0.561993 4.700632 -1.418996 0
M  V30 45 H -2.667668 5.205842 -0.212625 0
M  V30 46 H -4.576787 4.455668 1.139454 0
M  V30 47 H -4.901630 1.983953 1.513604 0
M  V30 48 H -2.699998 0.076048 1.427269 0
M  V30 49 H -2.818470 -2.351564 1.461644 0
M  V30 50 H -1.743652 -3.693112 -0.818307 0
M  V30 51 H -1.725980 -6.056953 -1.217714 0
M  V30 52 H -3.544623 -7.446623 -0.187749 0
M  V30 53 H -5.266974 -3.932402 1.575479 0
M  V30 54 H -1.491396 1.242736 -0.784054 0
M  V30 55 H 0.273974 0.967312 -4.958704 0
M  V30 56 H 2.899514 -0.843127 -1.770559 0
M  V30 57 H 4.848737 -1.068588 -0.774067 0
M  V30 58 H 6.317112 -2.551910 0.570131 0
M  V30 END ATOM
M  V30 BEGIN BOND
M  V30 1 1 1 2
M  V30 2 1 2 3
M  V30 3 2 3 4
M  V30 4 1 4 5
M  V30 5 2 5 6
M  V30 6 1 6 7
M  V30 7 2 7 8
M  V30 8 1 8 9
M  V30 9 2 9 10
M  V30 10 1 10 11
M  V30 11 1 11 12
M  V30 12 1 12 13
M  V30 13 2 13 14
M  V30 14 1 14 15
M  V30 15 2 15 16
M  V30 16 1 16 17
M  V30 17 1 17 18
M  V30 18 1 18 19
M  V30 19 2 19 20
M  V30 20 1 19 21
M  V30 21 1 21 22
M  V30 22 2 22 23
M  V30 23 1 23 24
M  V30 24 2 24 25
M  V30 25 1 25 26
M  V30 26 1 26 27
M  V30 27 2 26 28
M  V30 28 2 17 29
M  V30 29 2 11 30
M  V30 30 1 30 31
M  V30 31 2 31 32
M  V30 32 1 32 33
M  V30 33 2 33 34
M  V30 34 1 6 35
M  V30 35 2 35 36
M  V30 36 1 36 3
M  V30 37 1 34 7
M  V30 38 1 33 10
M  V30 39 1 29 13
M  V30 40 1 28 22
M  V30 41 1 1 37
M  V30 42 1 1 38
M  V30 43 1 1 39
M  V30 44 1 4 40
M  V30 45 1 5 41
M  V30 46 1 8 42
M  V30 47 1 9 43
M  V30 48 1 12 44
M  V30 49 1 14 45
M  V30 50 1 15 46
M  V30 51 1 16 47
M  V30 52 1 18 48
M  V30 53 1 21 49
M  V30 54 1 23 50
M  V30 55 1 24 51
M  V30 56 1 25 52
M  V30 57 1 28 53
M  V30 58 1 29 54
M  V30 59 1 31 55
M  V30 60 1 34 56
M  V30 61 1 35 57
M  V30 62 1 36 58
M  V30 END BOND
M  V30 END CTAB
M  END
>  <Dataset>  (168) 
ChEMBL_Kinases

>  <Ligand_Instance>  (168) 
nan

>  <PDB_ID>  (168) 
nan

>  <Standardized_SMILES>  (168) 
COc1ccc(-c2ccc3c(Nc4cccc(NC(=O)Nc5cccc(F)c5)c4)ncnc3c2)cc1

>  <Name>  (168) 
nan

>  <Pocket>  (168) 
nan

>  <ATP_Site>  (168) 
nan

>  <Peripheral>  (168) 
nan

>  <Num_H_Atoms_ProtBoundConf>  (168) 
nan

>  <Num_Resolved_Atoms>  (168) 
nan

>  <Num_Not_Resolved_Atoms>  (168) 
nan

$$$$
CHEMBL4789341
     RDKit          3D

  0  0  0  0  0  0  0  0  0  0999 V3000
M  V30 BEGIN CTAB
M  V30 COUNTS 61 65 0 0 0
M  V30 BEGIN ATOM
M  V30 1 C 6.548571 0.253765 5.630690 0
M  V30 2 C 6.857932 1.343309 4.626470 0
M  V30 3 C 8.238887 1.078885 4.064715 0
M  V30 4 C 5.849515 1.470747 3.563749 0
M  V30 5 C 5.192129 2.668037 3.456484 0
M  V30 6 C 4.222440 2.851128 2.466624 0
M  V30 7 C 3.937276 1.799445 1.594819 0
M  V30 8 N 2.992682 1.814271 0.543115 0
M  V30 9 C 1.719863 1.389835 0.988968 0
M  V30 10 O 1.726290 1.096549 2.226766 0
M  V30 11 C 0.540497 1.308253 0.094561 0
M  V30 12 C 0.527317 1.608941 -1.258124 0
M  V30 13 C -0.666356 1.478947 -1.943803 0
M  V30 14 C -1.800907 1.056640 -1.265288 0
M  V30 15 C -1.812525 0.752195 0.078284 0
M  V30 16 N -3.004686 0.324598 0.731483 0
M  V30 17 C -4.180759 0.192214 -0.063787 0
M  V30 18 N -5.030006 1.223433 -0.286586 0
M  V30 19 C -6.141685 1.045452 -1.051469 0
M  V30 20 N -6.453220 -0.149805 -1.620522 0
M  V30 21 C -5.625361 -1.210626 -1.420400 0
M  V30 22 C -5.926178 -2.439767 -1.990693 0
M  V30 23 C -5.067372 -3.495070 -1.766687 0
M  V30 24 C -5.268530 -4.834803 -2.305093 0
M  V30 25 C -6.524258 -5.404875 -2.530912 0
M  V30 26 N -6.320125 -6.642344 -3.027823 0
M  V30 27 N -5.015863 -6.864512 -3.119965 0
M  V30 28 C -4.242292 -7.992363 -3.573602 0
M  V30 29 C -4.327168 -5.769768 -2.682472 0
M  V30 30 C -3.917638 -3.342945 -0.985607 0
M  V30 31 C -3.667922 -2.089531 -0.440584 0
M  V30 32 C -4.505317 -1.016475 -0.645251 0
M  V30 33 C -0.617301 0.886094 0.747825 0
M  V30 34 C 4.636785 0.601039 1.748694 0
M  V30 35 C 5.610272 0.396138 2.731278 0
M  V30 36 H 6.804012 -0.757416 5.229135 0
M  V30 37 H 6.975369 0.460604 6.623758 0
M  V30 38 H 5.440355 0.231939 5.746459 0
M  V30 39 H 6.902571 2.304660 5.200509 0
M  V30 40 H 8.187639 0.300961 3.302808 0
M  V30 41 H 8.860661 0.747332 4.911118 0
M  V30 42 H 8.641943 2.031602 3.664007 0
M  V30 43 H 5.346956 3.535787 4.085822 0
M  V30 44 H 3.623031 3.726800 2.255596 0
M  V30 45 H 3.121958 2.090119 -0.476130 0
M  V30 46 H 1.478255 1.928713 -1.674515 0
M  V30 47 H -0.630668 1.723242 -2.992594 0
M  V30 48 H -2.730583 0.964972 -1.841491 0
M  V30 49 H -2.961090 0.129109 1.757246 0
M  V30 50 H -6.790507 1.918498 -1.195600 0
M  V30 51 H -6.800804 -2.596239 -2.597579 0
M  V30 52 H -7.472447 -4.923241 -2.335461 0
M  V30 53 H -3.597770 -7.788531 -4.435763 0
M  V30 54 H -4.935590 -8.817317 -3.895328 0
M  V30 55 H -3.645998 -8.391364 -2.711194 0
M  V30 56 H -3.275758 -5.556636 -2.599430 0
M  V30 57 H -3.240005 -4.169845 -0.807018 0
M  V30 58 H -2.763129 -1.993381 0.166683 0
M  V30 59 H -0.634678 0.640896 1.820225 0
M  V30 60 H 4.457466 -0.249434 1.100888 0
M  V30 61 H 6.126010 -0.539477 2.817427 0
M  V30 END ATOM
M  V30 BEGIN BOND
M  V30 1 1 1 2
M  V30 2 1 2 3
M  V30 3 1 2 4
M  V30 4 2 4 5
M  V30 5 1 5 6
M  V30 6 2 6 7
M  V30 7 1 7 8
M  V30 8 1 8 9
M  V30 9 2 9 10
M  V30 10 1 9 11
M  V30 11 2 11 12
M  V30 12 1 12 13
M  V30 13 2 13 14
M  V30 14 1 14 15
M  V30 15 1 15 16
M  V30 16 1 16 17
M  V30 17 2 17 18
M  V30 18 1 18 19
M  V30 19 2 19 20
M  V30 20 1 20 21
M  V30 21 2 21 22
M  V30 22 1 22 23
M  V30 23 1 23 24
M  V30 24 1 24 25
M  V30 25 2 25 26
M  V30 26 1 26 27
M  V30 27 1 27 28
M  V30 28 1 27 29
M  V30 29 2 23 30
M  V30 30 1 30 31
M  V30 31 2 31 32
M  V30 32 2 15 33
M  V30 33 1 7 34
M  V30 34 2 34 35
M  V30 35 1 35 4
M  V30 36 1 33 11
M  V30 37 1 32 17
M  V30 38 1 32 21
M  V30 39 2 29 24
M  V30 40 1 1 36
M  V30 41 1 1 37
M  V30 42 1 1 38
M  V30 43 1 2 39
M  V30 44 1 3 40
M  V30 45 1 3 41
M  V30 46 1 3 42
M  V30 47 1 5 43
M  V30 48 1 6 44
M  V30 49 1 8 45
M  V30 50 1 12 46
M  V30 51 1 13 47
M  V30 52 1 14 48
M  V30 53 1 16 49
M  V30 54 1 19 50
M  V30 55 1 22 51
M  V30 56 1 25 52
M  V30 57 1 28 53
M  V30 58 1 28 54
M  V30 59 1 28 55
M  V30 60 1 29 56
M  V30 61 1 30 57
M  V30 62 1 31 58
M  V30 63 1 33 59
M  V30 64 1 34 60
M  V30 65 1 35 61
M  V30 END BOND
M  V30 END CTAB
M  END
>  <Dataset>  (169) 
ChEMBL_Kinases

>  <Ligand_Instance>  (169) 
nan

>  <PDB_ID>  (169) 
nan

>  <Standardized_SMILES>  (169) 
CC(C)c1ccc(NC(=O)c2cccc(Nc3ncnc4cc(-c5cnn(C)c5)ccc34)c2)cc1

>  <Name>  (169) 
nan

>  <Pocket>  (169) 
nan

>  <ATP_Site>  (169) 
nan

>  <Peripheral>  (169) 
nan

>  <Num_H_Atoms_ProtBoundConf>  (169) 
nan

>  <Num_Resolved_Atoms>  (169) 
nan

>  <Num_Not_Resolved_Atoms>  (169) 
nan

$$$$
CHEMBL4789392
     RDKit          3D

  0  0  0  0  0  0  0  0  0  0999 V3000
M  V30 BEGIN CTAB
M  V30 COUNTS 68 72 0 0 0
M  V30 BEGIN ATOM
M  V30 1 C 3.650185 -1.379765 3.719432 0
M  V30 2 O 2.843360 -0.683529 2.787923 0
M  V30 3 C 2.899780 -1.012877 1.442256 0
M  V30 4 C 3.704727 -2.002905 0.888615 0
M  V30 5 C 3.684870 -2.251337 -0.471275 0
M  V30 6 C 2.836996 -1.479480 -1.252465 0
M  V30 7 C 2.025940 -0.484293 -0.706617 0
M  V30 8 C 1.248670 0.162488 -1.756077 0
M  V30 9 N 1.780208 0.841259 -2.787809 0
M  V30 10 C 0.810444 1.320314 -3.587146 0
M  V30 11 C 1.016936 2.106160 -4.802358 0
M  V30 12 C -0.069548 2.540012 -5.535536 0
M  V30 13 C 0.194381 3.278543 -6.672276 0
M  V30 14 C 1.471863 3.590560 -7.091139 0
M  V30 15 C 2.567536 3.152959 -6.351687 0
M  V30 16 C 2.294683 2.415990 -5.217926 0
M  V30 17 N -0.370096 0.949139 -3.069587 0
M  V30 18 C -0.115027 0.234807 -1.940685 0
M  V30 19 C -1.126914 -0.355801 -1.070351 0
M  V30 20 C -2.086201 0.428457 -0.456556 0
M  V30 21 C -2.997030 -0.230721 0.341377 0
M  V30 22 N -2.997997 -1.555183 0.544993 0
M  V30 23 C -2.091736 -2.363162 -0.024043 0
M  V30 24 N -2.019963 -3.774007 0.133463 0
M  V30 25 C -2.837598 -4.595303 0.956787 0
M  V30 26 C -2.646214 -4.530135 2.423098 0
M  V30 27 C -2.835341 -3.222752 3.097531 0
M  V30 28 N -2.620767 -3.481756 4.542822 0
M  V30 29 S -2.826542 -1.996267 5.421461 0
M  V30 30 O -4.240499 -1.477630 5.239730 0
M  V30 31 O -2.649625 -2.265678 6.887597 0
M  V30 32 C -1.673321 -0.781125 4.943372 0
M  V30 33 C -2.099201 0.022921 3.879532 0
M  V30 34 C -1.281204 1.026056 3.403521 0
M  V30 35 C -0.038202 1.266067 3.950197 0
M  V30 36 Cl 0.979158 2.544430 3.329184 0
M  V30 37 C 0.366354 0.459110 5.003354 0
M  V30 38 C -0.432854 -0.544967 5.492186 0
M  V30 39 C -1.180231 -1.706937 -0.821720 0
M  V30 40 C 2.064762 -0.256708 0.653379 0
M  V30 41 H 4.684420 -1.578602 3.326051 0
M  V30 42 H 3.111822 -2.314614 3.993407 0
M  V30 43 H 3.796196 -0.748222 4.627195 0
M  V30 44 H 4.334686 -2.556307 1.571495 0
M  V30 45 H 4.326998 -3.028846 -0.852067 0
M  V30 46 H 2.907041 -1.766691 -2.313651 0
M  V30 47 H -1.064842 2.285383 -5.191689 0
M  V30 48 H -0.658248 3.633956 -7.271174 0
M  V30 49 H 1.678916 4.168895 -7.981587 0
M  V30 50 H 3.605192 3.350810 -6.604408 0
M  V30 51 H 3.137321 2.057674 -4.615618 0
M  V30 52 H -1.334079 1.152910 -3.438102 0
M  V30 53 H -2.117548 1.483472 -0.593918 0
M  V30 54 H -3.767374 0.375936 0.837970 0
M  V30 55 H -1.267795 -4.258183 -0.430924 0
M  V30 56 H -2.673571 -5.677536 0.660735 0
M  V30 57 H -3.924408 -4.354394 0.718548 0
M  V30 58 H -3.397229 -5.242026 2.882708 0
M  V30 59 H -1.648775 -4.920205 2.733410 0
M  V30 60 H -3.817922 -2.763406 3.014061 0
M  V30 61 H -1.976431 -2.518365 2.857755 0
M  V30 62 H -3.417880 -4.104043 4.801559 0
M  V30 63 H -3.069131 -0.078500 3.367211 0
M  V30 64 H -1.611005 1.656158 2.572346 0
M  V30 65 H 1.337477 0.611632 5.465076 0
M  V30 66 H -0.181520 -1.211288 6.310051 0
M  V30 67 H -0.408857 -2.277053 -1.324712 0
M  V30 68 H 1.394581 0.533640 0.946485 0
M  V30 END ATOM
M  V30 BEGIN BOND
M  V30 1 1 1 2
M  V30 2 1 2 3
M  V30 3 2 3 4
M  V30 4 1 4 5
M  V30 5 2 5 6
M  V30 6 1 6 7
M  V30 7 1 7 8
M  V30 8 1 8 9
M  V30 9 2 9 10
M  V30 10 1 10 11
M  V30 11 2 11 12
M  V30 12 1 12 13
M  V30 13 2 13 14
M  V30 14 1 14 15
M  V30 15 2 15 16
M  V30 16 1 10 17
M  V30 17 1 17 18
M  V30 18 1 18 19
M  V30 19 2 19 20
M  V30 20 1 20 21
M  V30 21 2 21 22
M  V30 22 1 22 23
M  V30 23 1 23 24
M  V30 24 1 24 25
M  V30 25 1 25 26
M  V30 26 1 26 27
M  V30 27 1 27 28
M  V30 28 1 28 29
M  V30 29 2 29 30
M  V30 30 2 29 31
M  V30 31 1 29 32
M  V30 32 2 32 33
M  V30 33 1 33 34
M  V30 34 2 34 35
M  V30 35 1 35 36
M  V30 36 1 35 37
M  V30 37 2 37 38
M  V30 38 2 23 39
M  V30 39 2 7 40
M  V30 40 1 40 3
M  V30 41 2 18 8
M  V30 42 1 39 19
M  V30 43 1 16 11
M  V30 44 1 38 32
M  V30 45 1 1 41
M  V30 46 1 1 42
M  V30 47 1 1 43
M  V30 48 1 4 44
M  V30 49 1 5 45
M  V30 50 1 6 46
M  V30 51 1 12 47
M  V30 52 1 13 48
M  V30 53 1 14 49
M  V30 54 1 15 50
M  V30 55 1 16 51
M  V30 56 1 17 52
M  V30 57 1 20 53
M  V30 58 1 21 54
M  V30 59 1 24 55
M  V30 60 1 25 56
M  V30 61 1 25 57
M  V30 62 1 26 58
M  V30 63 1 26 59
M  V30 64 1 27 60
M  V30 65 1 27 61
M  V30 66 1 28 62
M  V30 67 1 33 63
M  V30 68 1 34 64
M  V30 69 1 37 65
M  V30 70 1 38 66
M  V30 71 1 39 67
M  V30 72 1 40 68
M  V30 END BOND
M  V30 END CTAB
M  END
>  <Dataset>  (170) 
ChEMBL_Kinases

>  <Ligand_Instance>  (170) 
nan

>  <PDB_ID>  (170) 
nan

>  <Standardized_SMILES>  (170) 
COc1cccc(-c2nc(-c3ccccc3)[nH]c2-c2ccnc(NCCCNS(=O)(=O)c3ccc(Cl)cc3)c2)c1

>  <Name>  (170) 
nan

>  <Pocket>  (170) 
nan

>  <ATP_Site>  (170) 
nan

>  <Peripheral>  (170) 
nan

>  <Num_H_Atoms_ProtBoundConf>  (170) 
nan

>  <Num_Resolved_Atoms>  (170) 
nan

>  <Num_Not_Resolved_Atoms>  (170) 
nan

$$$$
CHEMBL4789412
     RDKit          3D

  0  0  0  0  0  0  0  0  0  0999 V3000
M  V30 BEGIN CTAB
M  V30 COUNTS 36 39 0 0 0
M  V30 BEGIN ATOM
M  V30 1 O -0.833401 -2.880513 2.229692 0
M  V30 2 C -0.022959 -2.025717 1.836991 0
M  V30 3 C 1.260540 -2.433005 1.531350 0
M  V30 4 C 1.618441 -3.770860 1.665996 0
M  V30 5 C 2.928384 -4.137800 1.345301 0
M  V30 6 F 3.250076 -5.446216 1.485361 0
M  V30 7 C 3.891526 -3.254017 0.902331 0
M  V30 8 C 3.515146 -1.924730 0.774675 0
M  V30 9 C 2.231529 -1.561735 1.088312 0
M  V30 10 N 1.841354 -0.287333 0.974592 0
M  V30 11 C 2.493243 0.813979 0.584649 0
M  V30 12 S 4.016969 1.077032 0.087855 0
M  V30 13 N 1.669297 1.873129 0.637751 0
M  V30 14 N 0.486116 1.452059 1.062416 0
M  V30 15 C 0.592360 0.106834 1.272404 0
M  V30 16 N -0.368387 -0.730832 1.706371 0
M  V30 17 C -1.723143 -0.326284 2.033090 0
M  V30 18 C -2.604336 -0.426808 0.800883 0
M  V30 19 C -2.164576 0.415072 -0.315685 0
M  V30 20 C -2.595696 1.708124 -0.481188 0
M  V30 21 C -2.175850 2.494953 -1.537992 0
M  V30 22 C -1.282166 1.952420 -2.467544 0
M  V30 23 N -0.836594 0.675610 -2.331960 0
M  V30 24 C -1.272386 -0.054409 -1.286629 0
M  V30 25 H 0.924718 -4.523301 2.005862 0
M  V30 26 H 4.876090 -3.652585 0.683340 0
M  V30 27 H 4.295898 -1.279588 0.428372 0
M  V30 28 H 1.754037 2.894512 0.429502 0
M  V30 29 H -2.170946 -0.937234 2.816475 0
M  V30 30 H -1.662136 0.726869 2.379753 0
M  V30 31 H -3.665149 -0.344806 1.041365 0
M  V30 32 H -2.463162 -1.492061 0.450858 0
M  V30 33 H -3.284779 2.142216 0.226173 0
M  V30 34 H -2.479728 3.517877 -1.721036 0
M  V30 35 H -0.945505 2.572044 -3.308234 0
M  V30 36 H -0.881160 -1.059768 -1.236469 0
M  V30 END ATOM
M  V30 BEGIN BOND
M  V30 1 2 1 2
M  V30 2 1 2 3
M  V30 3 2 3 4
M  V30 4 1 4 5
M  V30 5 1 5 6
M  V30 6 2 5 7
M  V30 7 1 7 8
M  V30 8 2 8 9
M  V30 9 1 9 10
M  V30 10 1 10 11
M  V30 11 2 11 12
M  V30 12 1 11 13
M  V30 13 1 13 14
M  V30 14 2 14 15
M  V30 15 1 15 16
M  V30 16 1 16 17
M  V30 17 1 17 18
M  V30 18 1 18 19
M  V30 19 2 19 20
M  V30 20 1 20 21
M  V30 21 2 21 22
M  V30 22 1 22 23
M  V30 23 2 23 24
M  V30 24 1 16 2
M  V30 25 1 24 19
M  V30 26 1 9 3
M  V30 27 1 15 10
M  V30 28 1 4 25
M  V30 29 1 7 26
M  V30 30 1 8 27
M  V30 31 1 13 28
M  V30 32 1 17 29
M  V30 33 1 17 30
M  V30 34 1 18 31
M  V30 35 1 18 32
M  V30 36 1 20 33
M  V30 37 1 21 34
M  V30 38 1 22 35
M  V30 39 1 24 36
M  V30 END BOND
M  V30 END CTAB
M  END
>  <Dataset>  (171) 
ChEMBL_Kinases

>  <Ligand_Instance>  (171) 
nan

>  <PDB_ID>  (171) 
nan

>  <Standardized_SMILES>  (171) 
O=c1c2cc(F)ccc2n2c(=S)[nH]nc2n1CCc1cccnc1

>  <Name>  (171) 
nan

>  <Pocket>  (171) 
nan

>  <ATP_Site>  (171) 
nan

>  <Peripheral>  (171) 
nan

>  <Num_H_Atoms_ProtBoundConf>  (171) 
nan

>  <Num_Resolved_Atoms>  (171) 
nan

>  <Num_Not_Resolved_Atoms>  (171) 
nan

$$$$
CHEMBL4160498
     RDKit          3D

  0  0  0  0  0  0  0  0  0  0999 V3000
M  V30 BEGIN CTAB
M  V30 COUNTS 56 59 0 0 0
M  V30 BEGIN ATOM
M  V30 1 C 4.484499 -2.936171 7.256867 0
M  V30 2 O 4.324619 -3.474650 5.976511 0
M  V30 3 C 4.281523 -2.736530 4.814572 0
M  V30 4 C 4.390581 -1.358464 4.753684 0
M  V30 5 C 4.342267 -0.657309 3.567800 0
M  V30 6 C 4.180140 -1.301902 2.362059 0
M  V30 7 C 4.104188 -0.700615 1.010279 0
M  V30 8 N 2.774017 -0.384900 0.577037 0
M  V30 9 C 1.877459 0.507803 1.207566 0
M  V30 10 N 2.059100 1.233482 2.307843 0
M  V30 11 N 1.004605 1.965641 2.617571 0
M  V30 12 C 0.055536 1.737484 1.694880 0
M  V30 13 C -1.219259 2.268354 1.589545 0
M  V30 14 C -1.982394 1.829551 0.501920 0
M  V30 15 C -1.469946 0.919522 -0.399172 0
M  V30 16 N -2.311808 0.530987 -1.469822 0
M  V30 17 C -2.529995 1.024768 -2.774514 0
M  V30 18 O -1.797070 2.032428 -2.999084 0
M  V30 19 C -3.542772 0.304489 -3.625610 0
M  V30 20 C -4.901356 0.306309 -3.018760 0
M  V30 21 C -5.322734 -0.946355 -2.328002 0
M  V30 22 C -4.847736 -2.219997 -2.916818 0
M  V30 23 C -3.461457 -2.223220 -3.461755 0
M  V30 24 N -2.454666 -2.651583 -2.476315 0
M  V30 25 C -3.053778 -0.988262 -4.169014 0
M  V30 26 C -0.197860 0.410346 -0.266244 0
M  V30 27 C 0.579226 0.834595 0.810743 0
M  V30 28 C 4.071246 -2.695138 2.438024 0
M  V30 29 C 4.118557 -3.403672 3.618710 0
M  V30 30 H 5.360691 -2.260749 7.331062 0
M  V30 31 H 3.629233 -2.377585 7.651448 0
M  V30 32 H 4.644541 -3.783144 7.962417 0
M  V30 33 H 4.516932 -0.842881 5.683174 0
M  V30 34 H 4.428625 0.407585 3.513610 0
M  V30 35 H 4.606047 -1.387369 0.321069 0
M  V30 36 H 4.696327 0.257808 1.012277 0
M  V30 37 H 2.424505 -0.865823 -0.301751 0
M  V30 38 H 1.036879 2.573185 3.461257 0
M  V30 39 H -1.548750 2.977480 2.336844 0
M  V30 40 H -2.971541 2.282676 0.476152 0
M  V30 41 H -2.773756 -0.279867 -1.024122 0
M  V30 42 H -3.615833 0.998118 -4.520864 0
M  V30 43 H -5.692437 0.606226 -3.738237 0
M  V30 44 H -4.903817 1.114778 -2.231327 0
M  V30 45 H -6.435160 -0.982301 -2.321326 0
M  V30 46 H -5.071571 -0.940821 -1.226418 0
M  V30 47 H -5.560406 -2.512443 -3.732590 0
M  V30 48 H -4.898209 -3.009204 -2.115912 0
M  V30 49 H -3.428006 -3.069397 -4.210931 0
M  V30 50 H -1.543733 -2.213503 -2.660742 0
M  V30 51 H -2.803655 -2.629881 -1.509859 0
M  V30 52 H -1.924985 -0.947044 -4.139012 0
M  V30 53 H -3.261643 -1.093266 -5.274557 0
M  V30 54 H 0.186474 -0.301880 -0.982337 0
M  V30 55 H 3.941777 -3.269943 1.528831 0
M  V30 56 H 4.030243 -4.483612 3.634189 0
M  V30 END ATOM
M  V30 BEGIN BOND
M  V30 1 1 1 2
M  V30 2 1 2 3
M  V30 3 2 3 4
M  V30 4 1 4 5
M  V30 5 2 5 6
M  V30 6 1 6 7
M  V30 7 1 7 8
M  V30 8 1 8 9
M  V30 9 2 9 10
M  V30 10 1 10 11
M  V30 11 1 11 12
M  V30 12 2 12 13
M  V30 13 1 13 14
M  V30 14 2 14 15
M  V30 15 1 15 16
M  V30 16 1 16 17
M  V30 17 2 17 18
M  V30 18 1 17 19
M  V30 19 1 19 20
M  V30 20 1 20 21
M  V30 21 1 21 22
M  V30 22 1 22 23
M  V30 23 1 23 24
M  V30 24 1 23 25
M  V30 25 1 15 26
M  V30 26 2 26 27
M  V30 27 1 6 28
M  V30 28 2 28 29
M  V30 29 1 29 3
M  V30 30 1 27 9
M  V30 31 1 27 12
M  V30 32 1 25 19
M  V30 33 1 1 30
M  V30 34 1 1 31
M  V30 35 1 1 32
M  V30 36 1 4 33
M  V30 37 1 5 34
M  V30 38 1 7 35
M  V30 39 1 7 36
M  V30 40 1 8 37
M  V30 41 1 11 38
M  V30 42 1 13 39
M  V30 43 1 14 40
M  V30 44 1 16 41
M  V30 45 1 19 42
M  V30 46 1 20 43
M  V30 47 1 20 44
M  V30 48 1 21 45
M  V30 49 1 21 46
M  V30 50 1 22 47
M  V30 51 1 22 48
M  V30 52 1 23 49
M  V30 53 1 24 50
M  V30 54 1 24 51
M  V30 55 1 25 52
M  V30 56 1 25 53
M  V30 57 1 26 54
M  V30 58 1 28 55
M  V30 59 1 29 56
M  V30 END BOND
M  V30 END CTAB
M  END
>  <Dataset>  (172) 
ChEMBL_Kinases

>  <Ligand_Instance>  (172) 
nan

>  <PDB_ID>  (172) 
nan

>  <Standardized_SMILES>  (172) 
COc1ccc(CNc2n[nH]c3ccc(NC(=O)C4CCCC(N)C4)cc23)cc1

>  <Name>  (172) 
nan

>  <Pocket>  (172) 
nan

>  <ATP_Site>  (172) 
nan

>  <Peripheral>  (172) 
nan

>  <Num_H_Atoms_ProtBoundConf>  (172) 
nan

>  <Num_Resolved_Atoms>  (172) 
nan

>  <Num_Not_Resolved_Atoms>  (172) 
nan

$$$$
CHEMBL4160438
     RDKit          3D

  0  0  0  0  0  0  0  0  0  0999 V3000
M  V30 BEGIN CTAB
M  V30 COUNTS 43 45 0 0 0
M  V30 BEGIN ATOM
M  V30 1 C -1.573494 -0.188121 2.619210 0
M  V30 2 C -0.735296 -1.160279 1.925378 0
M  V30 3 C -0.655225 -2.570700 2.306629 0
M  V30 4 C -1.298089 -3.138329 3.284913 0
M  V30 5 C -1.318159 -4.506583 3.774321 0
M  V30 6 C -0.139624 -5.113878 4.443296 0
M  V30 7 C -0.430509 -5.531854 3.040999 0
M  V30 8 C -0.026485 -0.710194 0.906080 0
M  V30 9 C -0.105968 0.677494 0.531287 0 CFG=1
M  V30 10 C 0.803879 1.686860 1.002354 0 CFG=2
M  V30 11 O 0.333028 2.928469 0.558048 0
M  V30 12 C 2.067273 1.445227 0.166144 0 CFG=1
M  V30 13 C 2.901158 2.678694 0.009597 0
M  V30 14 O 2.819972 0.388824 0.636176 0
M  V30 15 C 1.451155 1.136995 -1.170125 0
M  V30 16 C 1.878984 1.210787 -2.470365 0
M  V30 17 O 3.183886 1.671232 -2.694347 0
M  V30 18 C 1.070933 0.850331 -3.528591 0
M  V30 19 C -0.211191 0.399475 -3.283353 0
M  V30 20 C -0.578927 0.349403 -1.953375 0
M  V30 21 N 0.204080 0.700374 -0.901232 0 CHG=1 VAL=4
M  V30 22 H -1.544076 -0.463339 3.702847 0
M  V30 23 H -1.121991 0.845272 2.644504 0
M  V30 24 H -2.641677 -0.200570 2.359146 0
M  V30 25 H -0.016548 -3.237450 1.752656 0
M  V30 26 H -1.952731 -2.454002 3.853702 0
M  V30 27 H -2.347894 -4.918323 3.985542 0
M  V30 28 H -0.355106 -5.860991 5.214632 0
M  V30 29 H 0.738861 -4.435037 4.553339 0
M  V30 30 H -0.832951 -6.547754 2.866786 0
M  V30 31 H 0.206406 -5.189619 2.210043 0
M  V30 32 H 0.604864 -1.455635 0.388333 0
M  V30 33 H -1.172347 1.019632 0.614454 0
M  V30 34 H 1.045344 1.816053 2.049489 0
M  V30 35 H 0.034265 3.530029 1.264368 0
M  V30 36 H 3.988023 2.489487 0.010169 0
M  V30 37 H 2.655898 3.375642 0.844126 0
M  V30 38 H 2.619329 3.240912 -0.928614 0
M  V30 39 H 3.493917 0.774949 1.251923 0
M  V30 40 H 3.994194 1.076491 -2.595174 0
M  V30 41 H 1.413966 0.910377 -4.556100 0
M  V30 42 H -0.892406 0.103343 -4.053371 0
M  V30 43 H -1.583756 -0.003074 -1.747056 0
M  V30 END ATOM
M  V30 BEGIN BOND
M  V30 1 1 1 2
M  V30 2 1 2 3
M  V30 3 2 3 4
M  V30 4 1 4 5
M  V30 5 1 5 6
M  V30 6 1 6 7
M  V30 7 2 2 8
M  V30 8 1 8 9
M  V30 9 1 9 10
M  V30 10 1 10 11
M  V30 11 1 10 12
M  V30 12 1 12 13
M  V30 13 1 12 14 CFG=1
M  V30 14 1 12 15
M  V30 15 2 15 16
M  V30 16 1 16 17
M  V30 17 1 16 18
M  V30 18 2 18 19
M  V30 19 1 19 20
M  V30 20 2 20 21
M  V30 21 1 7 5
M  V30 22 1 21 9
M  V30 23 1 21 15
M  V30 24 1 1 22
M  V30 25 1 1 23
M  V30 26 1 1 24
M  V30 27 1 3 25
M  V30 28 1 4 26
M  V30 29 1 5 27
M  V30 30 1 6 28
M  V30 31 1 6 29
M  V30 32 1 7 30
M  V30 33 1 7 31
M  V30 34 1 8 32
M  V30 35 1 9 33 CFG=3
M  V30 36 1 10 34 CFG=1
M  V30 37 1 11 35
M  V30 38 1 13 36
M  V30 39 1 13 37
M  V30 40 1 13 38
M  V30 41 1 14 39
M  V30 42 1 17 40
M  V30 43 1 18 41
M  V30 44 1 19 42
M  V30 45 1 20 43
M  V30 END BOND
M  V30 END CTAB
M  END
>  <Dataset>  (173) 
ChEMBL_Kinases

>  <Ligand_Instance>  (173) 
nan

>  <PDB_ID>  (173) 
nan

>  <Standardized_SMILES>  (173) 
CC(/C=C/C1CC1)=C\[C@H]1[C@H](O)[C@@](C)(O)c2c(O)ccc[n+]21

>  <Name>  (173) 
nan

>  <Pocket>  (173) 
nan

>  <ATP_Site>  (173) 
nan

>  <Peripheral>  (173) 
nan

>  <Num_H_Atoms_ProtBoundConf>  (173) 
nan

>  <Num_Resolved_Atoms>  (173) 
nan

>  <Num_Not_Resolved_Atoms>  (173) 
nan

$$$$
CHEMBL4789473
     RDKit          3D

  0  0  0  0  0  0  0  0  0  0999 V3000
M  V30 BEGIN CTAB
M  V30 COUNTS 29 31 0 0 0
M  V30 BEGIN ATOM
M  V30 1 N -2.520169 -3.704662 0.988083 0
M  V30 2 C -1.129457 -3.533601 0.737465 0
M  V30 3 N -0.407934 -4.659066 0.511798 0
M  V30 4 C 0.911656 -4.616838 0.264546 0
M  V30 5 C 1.466385 -3.359535 0.258253 0
M  V30 6 C 2.896361 -3.242236 -0.004048 0
M  V30 7 O 3.498112 -2.137475 -0.031289 0
M  V30 8 O 3.695669 -4.358693 -0.243782 0
M  V30 9 C 0.761503 -2.195546 0.483794 0
M  V30 10 N 1.041839 -0.879917 0.534205 0
M  V30 11 C -0.083608 -0.171739 0.803706 0
M  V30 12 C -0.165316 1.279623 0.933560 0
M  V30 13 C -1.251315 1.899257 0.346708 0
M  V30 14 C -1.400179 3.269436 0.425472 0
M  V30 15 C -0.434304 4.011988 1.107660 0
M  V30 16 C 0.643150 3.376236 1.687294 0
M  V30 17 O 1.590510 4.128640 2.359394 0
M  V30 18 C 0.814457 1.995383 1.620921 0
M  V30 19 N -1.073046 -1.099957 0.918468 0
M  V30 20 N -0.559797 -2.306027 0.725992 0
M  V30 21 H -2.738694 -3.207795 1.896027 0
M  V30 22 H -3.219264 -4.226914 0.390581 0
M  V30 23 H 1.527585 -5.466761 0.080642 0
M  V30 24 H 4.717619 -4.301916 -0.228276 0
M  V30 25 H -1.997836 1.310992 -0.182349 0
M  V30 26 H -2.238553 3.804341 -0.020562 0
M  V30 27 H -0.523168 5.095541 1.187578 0
M  V30 28 H 2.251000 3.740541 3.026396 0
M  V30 29 H 1.649690 1.504300 2.070458 0
M  V30 END ATOM
M  V30 BEGIN BOND
M  V30 1 1 1 2
M  V30 2 2 2 3
M  V30 3 1 3 4
M  V30 4 2 4 5
M  V30 5 1 5 6
M  V30 6 2 6 7
M  V30 7 1 6 8
M  V30 8 1 5 9
M  V30 9 2 9 10
M  V30 10 1 10 11
M  V30 11 1 11 12
M  V30 12 2 12 13
M  V30 13 1 13 14
M  V30 14 2 14 15
M  V30 15 1 15 16
M  V30 16 1 16 17
M  V30 17 2 16 18
M  V30 18 2 11 19
M  V30 19 1 19 20
M  V30 20 1 20 2
M  V30 21 1 20 9
M  V30 22 1 18 12
M  V30 23 1 1 21
M  V30 24 1 1 22
M  V30 25 1 4 23
M  V30 26 1 8 24
M  V30 27 1 13 25
M  V30 28 1 14 26
M  V30 29 1 15 27
M  V30 30 1 17 28
M  V30 31 1 18 29
M  V30 END BOND
M  V30 END CTAB
M  END
>  <Dataset>  (174) 
ChEMBL_Kinases

>  <Ligand_Instance>  (174) 
nan

>  <PDB_ID>  (174) 
nan

>  <Standardized_SMILES>  (174) 
Nc1ncc(C(=O)O)c2nc(-c3cccc(O)c3)nn12

>  <Name>  (174) 
nan

>  <Pocket>  (174) 
nan

>  <ATP_Site>  (174) 
nan

>  <Peripheral>  (174) 
nan

>  <Num_H_Atoms_ProtBoundConf>  (174) 
nan

>  <Num_Resolved_Atoms>  (174) 
nan

>  <Num_Not_Resolved_Atoms>  (174) 
nan

$$$$
CHEMBL4160653
     RDKit          3D

  0  0  0  0  0  0  0  0  0  0999 V3000
M  V30 BEGIN CTAB
M  V30 COUNTS 32 34 0 0 0
M  V30 BEGIN ATOM
M  V30 1 C -0.389375 -2.226156 5.068293 0
M  V30 2 O 0.326320 -1.578632 4.025302 0
M  V30 3 C -0.121739 -1.696276 2.716381 0
M  V30 4 C -1.243970 -2.429363 2.391905 0
M  V30 5 C -1.718002 -2.567851 1.106725 0
M  V30 6 C -1.056168 -1.950746 0.067737 0
M  V30 7 C 0.064973 -1.219051 0.401935 0
M  V30 8 C 0.550136 -1.073115 1.678699 0
M  V30 9 C 0.600058 -0.682124 -0.750215 0
M  V30 10 C 1.714837 0.201385 -1.068608 0
M  V30 11 C 1.872535 1.350027 -0.434308 0
M  V30 12 S 0.937928 2.190024 0.875299 0
M  V30 13 C 1.744336 3.780845 0.694341 0
M  V30 14 O 1.187642 4.719523 1.266531 0
M  V30 15 N 2.888879 3.536665 -0.113510 0
M  V30 16 C 2.970785 2.264623 -0.713054 0
M  V30 17 O 3.976016 1.977662 -1.453512 0
M  V30 18 C -0.206852 -1.092691 -1.807921 0
M  V30 19 N -1.189324 -1.853750 -1.265520 0
M  V30 20 C -2.292561 -2.516494 -1.967843 0
M  V30 21 H -0.262322 -3.323467 5.015554 0
M  V30 22 H -1.500611 -2.035443 4.959244 0
M  V30 23 H -0.114533 -1.776655 6.045143 0
M  V30 24 H -1.818319 -2.948365 3.165148 0
M  V30 25 H -2.602689 -3.154580 0.892383 0
M  V30 26 H 1.424960 -0.510209 1.904521 0
M  V30 27 H 2.395486 -0.119601 -1.826461 0
M  V30 28 H 3.565467 4.327294 -0.185346 0
M  V30 29 H -0.197177 -0.932798 -2.895748 0
M  V30 30 H -2.457541 -1.991075 -2.922081 0
M  V30 31 H -3.231675 -2.424425 -1.351465 0
M  V30 32 H -2.119614 -3.589477 -2.112173 0
M  V30 END ATOM
M  V30 BEGIN BOND
M  V30 1 1 1 2
M  V30 2 1 2 3
M  V30 3 2 3 4
M  V30 4 1 4 5
M  V30 5 2 5 6
M  V30 6 1 6 7
M  V30 7 2 7 8
M  V30 8 1 7 9
M  V30 9 1 9 10
M  V30 10 2 10 11
M  V30 11 1 11 12
M  V30 12 1 12 13
M  V30 13 2 13 14
M  V30 14 1 13 15
M  V30 15 1 15 16
M  V30 16 2 16 17
M  V30 17 2 9 18
M  V30 18 1 18 19
M  V30 19 1 19 20
M  V30 20 1 8 3
M  V30 21 1 16 11
M  V30 22 1 19 6
M  V30 23 1 1 21
M  V30 24 1 1 22
M  V30 25 1 1 23
M  V30 26 1 4 24
M  V30 27 1 5 25
M  V30 28 1 8 26
M  V30 29 1 10 27
M  V30 30 1 15 28
M  V30 31 1 18 29
M  V30 32 1 20 30
M  V30 33 1 20 31
M  V30 34 1 20 32
M  V30 END BOND
M  V30 END CTAB
M  END
>  <Dataset>  (175) 
ChEMBL_Kinases

>  <Ligand_Instance>  (175) 
nan

>  <PDB_ID>  (175) 
nan

>  <Standardized_SMILES>  (175) 
COc1ccc2c(c1)c(/C=C1\SC(=O)NC1=O)cn2C

>  <Name>  (175) 
nan

>  <Pocket>  (175) 
nan

>  <ATP_Site>  (175) 
nan

>  <Peripheral>  (175) 
nan

>  <Num_H_Atoms_ProtBoundConf>  (175) 
nan

>  <Num_Resolved_Atoms>  (175) 
nan

>  <Num_Not_Resolved_Atoms>  (175) 
nan

$$$$
CHEMBL4790028
     RDKit          3D

  0  0  0  0  0  0  0  0  0  0999 V3000
M  V30 BEGIN CTAB
M  V30 COUNTS 68 72 0 0 0
M  V30 BEGIN ATOM
M  V30 1 C 0.688310 1.185928 4.138774 0
M  V30 2 O 2.011477 1.084901 3.617296 0
M  V30 3 C 2.633853 -0.145714 3.606603 0
M  V30 4 O 1.905985 -1.033074 4.077696 0
M  V30 5 C 3.935401 -0.555564 3.156511 0
M  V30 6 S 4.403119 -2.304949 3.334050 0
M  V30 7 C 6.148694 -2.077843 2.560782 0
M  V30 8 C 6.165991 -0.701493 2.259919 0
M  V30 9 C 5.107488 0.097550 2.531095 0
M  V30 10 N 5.065316 1.474283 2.288723 0
M  V30 11 C 4.241982 2.213449 1.413184 0
M  V30 12 N 3.313149 1.764978 0.560673 0
M  V30 13 C 2.641678 2.681003 -0.203332 0
M  V30 14 N 1.677733 2.172580 -1.121753 0
M  V30 15 C 0.424765 1.576674 -0.825338 0
M  V30 16 C 0.113685 1.409936 0.505548 0
M  V30 17 C -1.073027 0.812501 0.824730 0
M  V30 18 C -1.920778 0.395428 -0.176745 0
M  V30 19 N -3.146910 -0.275789 0.072232 0
M  V30 20 C -4.117868 -0.673041 -0.939878 0
M  V30 21 C -3.992926 -2.196053 -1.164052 0
M  V30 22 C -3.224188 -2.704396 0.032875 0
M  V30 23 N -2.800589 -4.013624 0.060002 0
M  V30 24 C -3.615554 -5.124624 -0.130992 0
M  V30 25 C -3.046014 -5.773225 -1.374788 0
M  V30 26 C -1.554174 -5.631110 -1.132917 0
M  V30 27 C -1.477855 -4.362233 -0.308506 0
M  V30 28 C -3.902824 -2.225778 1.296809 0
M  V30 29 C -3.616230 -0.717593 1.398389 0
M  V30 30 C -1.616198 0.561598 -1.520847 0
M  V30 31 C -0.426849 1.160958 -1.865260 0
M  V30 32 O 0.007549 1.390674 -3.176788 0
M  V30 33 C -0.868114 0.982183 -4.205973 0
M  V30 34 N 2.841999 4.011772 -0.167008 0
M  V30 35 C 3.789353 4.492046 0.698909 0
M  V30 36 C 4.480609 3.596143 1.480541 0
M  V30 37 Br 5.794855 4.353723 2.668552 0
M  V30 38 H 0.127857 0.268566 3.789631 0
M  V30 39 H 0.644358 1.179037 5.236151 0
M  V30 40 H 0.154170 2.060396 3.723425 0
M  V30 41 H 6.830047 -2.833967 2.440309 0
M  V30 42 H 7.066646 -0.344210 1.811430 0
M  V30 43 H 5.777331 1.886926 2.900061 0
M  V30 44 H 2.036483 2.300878 -2.084993 0
M  V30 45 H 0.799718 1.748404 1.257544 0
M  V30 46 H -1.325383 0.681572 1.858667 0
M  V30 47 H -5.138708 -0.507922 -0.557635 0
M  V30 48 H -4.048351 -0.109820 -1.871428 0
M  V30 49 H -5.000354 -2.569130 -1.279088 0
M  V30 50 H -3.420743 -2.422489 -2.086160 0
M  V30 51 H -2.268668 -2.065662 -0.002325 0
M  V30 52 H -4.695971 -4.997550 -0.125158 0
M  V30 53 H -3.388677 -5.871451 0.688311 0
M  V30 54 H -3.278939 -6.839009 -1.462517 0
M  V30 55 H -3.312275 -5.249413 -2.302780 0
M  V30 56 H -0.962285 -5.558714 -2.061433 0
M  V30 57 H -1.189201 -6.473076 -0.529509 0
M  V30 58 H -0.990959 -3.542770 -0.846545 0
M  V30 59 H -0.878560 -4.565293 0.616857 0
M  V30 60 H -5.003712 -2.399729 1.259561 0
M  V30 61 H -3.430962 -2.713012 2.158711 0
M  V30 62 H -2.822504 -0.612820 2.162510 0
M  V30 63 H -4.530967 -0.174375 1.715006 0
M  V30 64 H -2.169315 0.291003 -2.391777 0
M  V30 65 H -0.425005 1.314906 -5.162342 0
M  V30 66 H -1.851543 1.542341 -4.126698 0
M  V30 67 H -1.090653 -0.084579 -4.208364 0
M  V30 68 H 3.977011 5.577894 0.745634 0
M  V30 END ATOM
M  V30 BEGIN BOND
M  V30 1 1 1 2
M  V30 2 1 2 3
M  V30 3 2 3 4
M  V30 4 1 3 5
M  V30 5 1 5 6
M  V30 6 1 6 7
M  V30 7 2 7 8
M  V30 8 1 8 9
M  V30 9 1 9 10
M  V30 10 1 10 11
M  V30 11 2 11 12
M  V30 12 1 12 13
M  V30 13 1 13 14
M  V30 14 1 14 15
M  V30 15 2 15 16
M  V30 16 1 16 17
M  V30 17 2 17 18
M  V30 18 1 18 19
M  V30 19 1 19 20
M  V30 20 1 20 21
M  V30 21 1 21 22
M  V30 22 1 22 23
M  V30 23 1 23 24
M  V30 24 1 24 25
M  V30 25 1 25 26
M  V30 26 1 26 27
M  V30 27 1 22 28
M  V30 28 1 28 29
M  V30 29 1 18 30
M  V30 30 2 30 31
M  V30 31 1 31 32
M  V30 32 1 32 33
M  V30 33 2 13 34
M  V30 34 1 34 35
M  V30 35 2 35 36
M  V30 36 1 36 37
M  V30 37 2 9 5
M  V30 38 1 36 11
M  V30 39 1 31 15
M  V30 40 1 29 19
M  V30 41 1 27 23
M  V30 42 1 1 38
M  V30 43 1 1 39
M  V30 44 1 1 40
M  V30 45 1 7 41
M  V30 46 1 8 42
M  V30 47 1 10 43
M  V30 48 1 14 44
M  V30 49 1 16 45
M  V30 50 1 17 46
M  V30 51 1 20 47
M  V30 52 1 20 48
M  V30 53 1 21 49
M  V30 54 1 21 50
M  V30 55 1 22 51
M  V30 56 1 24 52
M  V30 57 1 24 53
M  V30 58 1 25 54
M  V30 59 1 25 55
M  V30 60 1 26 56
M  V30 61 1 26 57
M  V30 62 1 27 58
M  V30 63 1 27 59
M  V30 64 1 28 60
M  V30 65 1 28 61
M  V30 66 1 29 62
M  V30 67 1 29 63
M  V30 68 1 30 64
M  V30 69 1 33 65
M  V30 70 1 33 66
M  V30 71 1 33 67
M  V30 72 1 35 68
M  V30 END BOND
M  V30 END CTAB
M  END
>  <Dataset>  (176) 
ChEMBL_Kinases

>  <Ligand_Instance>  (176) 
nan

>  <PDB_ID>  (176) 
nan

>  <Standardized_SMILES>  (176) 
COC(=O)c1sccc1Nc1nc(Nc2ccc(N3CCC(N4CCCC4)CC3)cc2OC)ncc1Br

>  <Name>  (176) 
nan

>  <Pocket>  (176) 
nan

>  <ATP_Site>  (176) 
nan

>  <Peripheral>  (176) 
nan

>  <Num_H_Atoms_ProtBoundConf>  (176) 
nan

>  <Num_Resolved_Atoms>  (176) 
nan

>  <Num_Not_Resolved_Atoms>  (176) 
nan

$$$$
CHEMBL413460
     RDKit          3D

  0  0  0  0  0  0  0  0  0  0999 V3000
M  V30 BEGIN CTAB
M  V30 COUNTS 234 238 0 0 0
M  V30 BEGIN ATOM
M  V30 1 N 5.791550 -4.864533 4.652516 0
M  V30 2 C 6.536326 -3.829158 4.275678 0
M  V30 3 N 6.692217 -4.118319 2.853770 0
M  V30 4 N 6.979161 -2.604276 4.833090 0
M  V30 5 C 6.098813 -1.946358 5.793185 0
M  V30 6 C 6.346199 -0.455105 5.801533 0
M  V30 7 C 6.411860 0.073352 4.401087 0
M  V30 8 C 5.173934 0.585626 3.760927 0 CFG=1
M  V30 9 N 4.082287 -0.370216 4.017361 0
M  V30 10 C 3.686466 -1.560418 3.460975 0
M  V30 11 O 4.378566 -1.880900 2.486183 0
M  V30 12 C 2.594565 -2.406233 3.941351 0
M  V30 13 C 2.367418 -3.581697 3.031843 0
M  V30 14 C 1.044682 -3.536247 2.334077 0
M  V30 15 C -0.107224 -3.545084 3.341735 0
M  V30 16 C -1.369237 -3.452581 2.557146 0
M  V30 17 N -2.618464 -3.399570 3.230632 0
M  V30 18 C -3.613453 -2.617103 2.538271 0
M  V30 19 O -3.310011 -1.916126 1.524846 0
M  V30 20 C -5.058110 -2.640634 2.974949 0 CFG=1
M  V30 21 O -5.718433 -1.614944 2.421460 0
M  V30 22 C -6.614885 -2.052403 1.413690 0 CFG=1
M  V30 23 N -6.686294 -1.075493 0.266056 0
M  V30 24 C -7.015131 0.228848 0.379525 0
M  V30 25 N -6.794578 0.871455 -0.796888 0
M  V30 26 C -6.341823 -0.063290 -1.689448 0
M  V30 27 C -6.117239 0.003025 -3.048654 0
M  V30 28 N -6.002331 1.278888 -3.611083 0
M  V30 29 N -5.887445 -1.142331 -3.577683 0
M  V30 30 C -5.835304 -2.355471 -3.028481 0
M  V30 31 N -6.037141 -2.406273 -1.698431 0
M  V30 32 C -6.311207 -1.252123 -1.003042 0
M  V30 33 C -6.068636 -3.367763 0.967286 0 CFG=2
M  V30 34 O -7.107743 -4.125493 0.409575 0
M  V30 35 C -5.591108 -3.931960 2.293933 0 CFG=2
M  V30 36 O -6.661651 -4.470406 2.949821 0
M  V30 37 C 4.901547 1.985047 3.887853 0
M  V30 38 O 5.458544 2.654366 4.771033 0
M  V30 39 N 3.982592 2.564994 3.052126 0
M  V30 40 C 3.359577 3.887578 3.163214 0 CFG=2
M  V30 41 C 2.288539 3.734490 4.286883 0
M  V30 42 C 2.872426 3.459087 5.636515 0
M  V30 43 C 1.695936 3.426200 6.642051 0
M  V30 44 N 1.043732 2.159573 6.607828 0
M  V30 45 C 1.643841 1.135754 7.476627 0
M  V30 46 N 2.225169 1.458237 8.569089 0
M  V30 47 N 1.539532 -0.250400 7.229286 0
M  V30 48 C 2.749880 4.305111 1.951760 0
M  V30 49 O 3.515748 4.885328 1.172239 0
M  V30 50 N 1.427875 4.141725 1.589593 0
M  V30 51 C 0.765267 4.484412 0.368529 0 CFG=2
M  V30 52 C -0.197617 5.658413 0.665369 0
M  V30 53 C -1.483370 5.385429 -0.052282 0
M  V30 54 C -2.322726 6.659084 0.135800 0
M  V30 55 N -3.601576 6.216159 -0.324319 0
M  V30 56 C -4.799759 6.829567 0.190760 0
M  V30 57 N -4.691713 8.035085 0.580034 0
M  V30 58 N -5.926121 5.936303 0.327760 0
M  V30 59 C 0.129242 3.523675 -0.492933 0
M  V30 60 O -0.773488 2.774390 -0.150161 0
M  V30 61 N 0.570713 3.360803 -1.811766 0
M  V30 62 C 0.058606 2.446038 -2.631880 0 CFG=2
M  V30 63 C -0.669309 3.217572 -3.838777 0
M  V30 64 C 0.183395 4.043646 -4.683681 0
M  V30 65 C -0.704442 4.365453 -5.913798 0
M  V30 66 N -1.064127 2.981133 -6.375523 0
M  V30 67 C -2.369756 2.688414 -6.861054 0
M  V30 68 N -3.184795 3.653746 -7.026560 0
M  V30 69 N -2.866248 1.397802 -7.136838 0
M  V30 70 C -0.922266 1.411982 -2.504422 0
M  V30 71 O -2.093999 1.655004 -2.303793 0
M  V30 72 N -0.515479 0.143068 -2.691649 0
M  V30 73 C -1.263196 -1.106669 -3.040381 0 CFG=2
M  V30 74 C -1.547238 -2.187732 -2.186492 0
M  V30 75 C -2.178426 -3.315541 -3.041183 0
M  V30 76 C -2.314582 -4.573732 -2.274087 0
M  V30 77 N -1.131207 -4.904035 -1.507130 0
M  V30 78 C -1.305350 -5.982900 -0.590787 0
M  V30 79 N -2.503658 -6.388993 -0.287373 0
M  V30 80 N -0.263926 -6.552595 0.167526 0
M  V30 81 C -0.276799 -1.478035 -4.164984 0
M  V30 82 O 0.352481 -2.489003 -3.897376 0
M  V30 83 N -0.091820 -0.635248 -5.279980 0
M  V30 84 C 1.111104 -0.965382 -6.034085 0 CFG=2
M  V30 85 C 1.033299 -1.752078 -7.237548 0
M  V30 86 C 0.271387 -1.072276 -8.334464 0
M  V30 87 C 0.000593 -2.111734 -9.399100 0
M  V30 88 N -0.320594 -3.383303 -8.702422 0
M  V30 89 C -1.461720 -3.643188 -7.891071 0
M  V30 90 N -2.151165 -2.593449 -7.715021 0
M  V30 91 N -1.829682 -4.859498 -7.318227 0
M  V30 92 C 2.257900 -1.327510 -5.142599 0
M  V30 93 O 2.630143 -2.511833 -5.256571 0
M  V30 94 N 3.045987 -0.487941 -4.320041 0
M  V30 95 C 4.313247 -0.916737 -3.737194 0
M  V30 96 O 4.517286 -2.147907 -3.825230 0
M  V30 97 C 5.163584 0.075106 -3.055600 0
M  V30 98 C 4.515797 0.988840 -2.077398 0
M  V30 99 C 4.073770 0.391450 -0.775176 0
M  V30 100 C 2.715998 1.004502 -0.441888 0
M  V30 101 C 2.114084 0.220178 0.710313 0
M  V30 102 N 0.674946 0.565302 0.860710 0
M  V30 103 C 0.307095 0.359871 2.219863 0
M  V30 104 C -0.939890 0.770691 2.872373 0
M  V30 105 N -1.298701 2.095374 3.231756 0
M  V30 106 S -2.651688 2.189409 4.308970 0
M  V30 107 O -2.427200 0.767451 5.037894 0
M  V30 108 O -3.986183 2.089363 3.783467 0
M  V30 109 C -2.287960 3.197318 5.667733 0
M  V30 110 C -2.031635 2.935574 6.979698 0
M  V30 111 C -1.642393 3.934291 7.826522 0
M  V30 112 C -1.402366 5.256638 7.363439 0
M  V30 113 C -1.612407 5.577944 6.011206 0
M  V30 114 C -1.612618 6.953454 5.784474 0
M  V30 115 N -2.221678 7.315832 4.604396 0
M  V30 116 C -2.695371 6.309497 3.809514 0
M  V30 117 C -2.636159 4.950913 4.117926 0
M  V30 118 C -2.075812 4.462250 5.308838 0
M  V30 119 H 5.563565 -4.727860 5.727264 0
M  V30 120 H 7.604740 -4.510459 2.606749 0
M  V30 121 H 6.022068 -3.974496 2.089091 0
M  V30 122 H 7.960403 -2.265497 4.518657 0
M  V30 123 H 6.822622 -2.156433 6.800311 0
M  V30 124 H 5.245750 -2.426590 6.094745 0
M  V30 125 H 6.908788 0.023996 6.502050 0
M  V30 126 H 5.187411 -0.158357 6.045592 0
M  V30 127 H 6.848227 -0.739929 3.792004 0
M  V30 128 H 7.150136 0.926658 4.365414 0
M  V30 129 H 5.324178 0.350779 2.618241 0
M  V30 130 H 3.467279 -0.002301 4.827419 0
M  V30 131 H 2.994934 -2.880263 4.901362 0
M  V30 132 H 1.698732 -1.892829 4.262844 0
M  V30 133 H 2.512889 -4.572296 3.471721 0
M  V30 134 H 3.140715 -3.498220 2.210286 0
M  V30 135 H 0.960729 -4.487822 1.762634 0
M  V30 136 H 0.952278 -2.736977 1.590444 0
M  V30 137 H -0.101713 -2.585932 3.944576 0
M  V30 138 H -0.010556 -4.435978 3.941704 0
M  V30 139 H -1.331689 -3.043046 1.559121 0
M  V30 140 H -1.472992 -4.685172 2.239814 0
M  V30 141 H -2.842212 -3.857367 4.134142 0
M  V30 142 H -5.177397 -2.764903 4.054601 0
M  V30 143 H -7.609110 -2.134185 1.859537 0
M  V30 144 H -7.460700 0.638136 1.272703 0
M  V30 145 H -6.503627 1.474166 -4.470473 0
M  V30 146 H -5.453071 2.074818 -3.140986 0
M  V30 147 H -5.683704 -3.175918 -3.620081 0
M  V30 148 H -5.201738 -3.327840 0.300779 0
M  V30 149 H -6.737953 -4.964229 0.135845 0
M  V30 150 H -4.772998 -4.645082 2.153517 0
M  V30 151 H -6.625127 -4.397175 3.915618 0
M  V30 152 H 3.831618 2.103086 2.083894 0
M  V30 153 H 4.048549 4.600601 3.624278 0
M  V30 154 H 1.806637 4.724496 4.342367 0
M  V30 155 H 1.523997 3.014391 4.054552 0
M  V30 156 H 3.098297 2.311687 5.677766 0
M  V30 157 H 3.625354 4.059948 6.063453 0
M  V30 158 H 2.015234 3.683720 7.651061 0
M  V30 159 H 0.958096 4.188141 6.250801 0
M  V30 160 H 0.262389 1.899063 5.993840 0
M  V30 161 H 2.634516 0.716752 9.188407 0
M  V30 162 H 2.433444 -0.732686 6.991094 0
M  V30 163 H 0.653156 -0.793194 7.312931 0
M  V30 164 H 0.758469 3.703882 2.308185 0
M  V30 165 H 1.633414 4.991177 -0.217385 0
M  V30 166 H -0.321695 5.706586 1.721079 0
M  V30 167 H 0.202159 6.605423 0.255851 0
M  V30 168 H -2.119804 4.661773 0.630001 0
M  V30 169 H -1.504474 5.041970 -1.046657 0
M  V30 170 H -1.898855 7.308931 -0.721970 0
M  V30 171 H -2.227158 7.160398 1.048101 0
M  V30 172 H -3.774860 5.532244 -1.086039 0
M  V30 173 H -5.557278 8.493085 1.044559 0
M  V30 174 H -6.350177 5.863147 -0.615215 0
M  V30 175 H -6.332121 5.396728 1.103513 0
M  V30 176 H 1.372837 3.962744 -2.181045 0
M  V30 177 H 0.952205 2.036964 -3.306817 0
M  V30 178 H -1.296390 2.470970 -4.344334 0
M  V30 179 H -1.410032 3.857330 -3.272490 0
M  V30 180 H 0.233559 5.073777 -4.179751 0
M  V30 181 H 1.144738 3.645820 -4.906732 0
M  V30 182 H -0.043873 4.740907 -6.730553 0
M  V30 183 H -1.559127 4.913079 -5.663121 0
M  V30 184 H -0.397894 2.196398 -6.245806 0
M  V30 185 H -4.141526 3.583451 -7.483639 0
M  V30 186 H -3.560321 0.761957 -6.672122 0
M  V30 187 H -2.376392 1.092810 -7.980723 0
M  V30 188 H 0.529522 -0.242632 -2.438429 0
M  V30 189 H -2.255287 -0.680337 -3.440536 0
M  V30 190 H -0.748336 -2.582528 -1.543377 0
M  V30 191 H -2.431776 -1.943079 -1.494697 0
M  V30 192 H -3.240892 -2.957835 -3.257592 0
M  V30 193 H -1.752145 -3.436435 -4.011110 0
M  V30 194 H -3.242593 -4.877168 -1.877559 0
M  V30 195 H -2.169377 -5.424961 -3.138096 0
M  V30 196 H -0.202271 -4.426588 -1.611075 0
M  V30 197 H -2.674069 -7.123780 0.417688 0
M  V30 198 H -0.211795 -6.706365 1.217014 0
M  V30 199 H 0.556235 -6.845347 -0.376436 0
M  V30 200 H -0.833100 0.057889 -5.548839 0
M  V30 201 H 1.439733 0.152495 -6.298440 0
M  V30 202 H 0.534528 -2.733468 -6.966057 0
M  V30 203 H 2.063926 -1.993433 -7.558923 0
M  V30 204 H 1.157393 -0.429949 -8.848034 0
M  V30 205 H -0.472184 -0.348834 -8.094648 0
M  V30 206 H 0.665009 -2.204216 -10.190337 0
M  V30 207 H -1.051418 -1.831293 -9.812227 0
M  V30 208 H 0.358011 -4.173972 -8.876937 0
M  V30 209 H -3.012954 -2.677167 -7.070426 0
M  V30 210 H -1.613194 -4.988077 -6.281208 0
M  V30 211 H -2.328357 -5.610085 -7.817438 0
M  V30 212 H 2.740017 0.522531 -4.209806 0
M  V30 213 H 5.788217 -0.622290 -2.351666 0
M  V30 214 H 5.870213 0.566611 -3.699849 0
M  V30 215 H 3.612616 1.454979 -2.599328 0
M  V30 216 H 5.191066 1.834204 -1.924472 0
M  V30 217 H 4.830732 0.760523 0.038606 0
M  V30 218 H 4.042862 -0.674576 -0.685342 0
M  V30 219 H 2.157298 1.049043 -1.350043 0
M  V30 220 H 2.813383 2.093660 -0.115002 0
M  V30 221 H 2.589449 0.426263 1.647604 0
M  V30 222 H 2.303819 -0.828369 0.468123 0
M  V30 223 H 0.259923 -0.336033 0.321874 0
M  V30 224 H 0.562380 -0.667883 2.560774 0
M  V30 225 H 1.161864 0.969364 2.734965 0
M  V30 226 H -1.584757 0.844838 1.741934 0
M  V30 227 H -1.707875 -0.023948 3.144668 0
M  V30 228 H -1.356431 2.706608 2.426011 0
M  V30 229 H -2.224854 1.972073 7.318416 0
M  V30 230 H -1.583870 3.754232 8.908093 0
M  V30 231 H -1.081336 6.019627 8.112465 0
M  V30 232 H -1.161114 7.659579 6.419166 0
M  V30 233 H -3.252618 6.695407 2.968649 0
M  V30 234 H -3.041535 4.268034 3.364715 0
M  V30 END ATOM
M  V30 BEGIN BOND
M  V30 1 2 1 2 CFG=2
M  V30 2 1 2 3
M  V30 3 1 2 4
M  V30 4 1 4 5
M  V30 5 1 5 6
M  V30 6 1 6 7
M  V30 7 1 7 8
M  V30 8 1 8 9
M  V30 9 1 9 10
M  V30 10 2 10 11
M  V30 11 1 10 12
M  V30 12 1 12 13
M  V30 13 1 13 14
M  V30 14 1 14 15
M  V30 15 1 15 16
M  V30 16 1 16 17
M  V30 17 1 17 18
M  V30 18 2 18 19
M  V30 19 1 18 20
M  V30 20 1 20 21
M  V30 21 1 21 22
M  V30 22 1 22 23
M  V30 23 1 23 24
M  V30 24 2 24 25
M  V30 25 1 25 26
M  V30 26 2 26 27
M  V30 27 1 27 28
M  V30 28 1 27 29
M  V30 29 2 29 30
M  V30 30 1 30 31
M  V30 31 2 31 32
M  V30 32 1 22 33
M  V30 33 1 33 34
M  V30 34 1 33 35
M  V30 35 1 35 36
M  V30 36 1 8 37
M  V30 37 2 37 38
M  V30 38 1 37 39
M  V30 39 1 39 40
M  V30 40 1 40 41
M  V30 41 1 41 42
M  V30 42 1 42 43
M  V30 43 1 43 44
M  V30 44 1 44 45
M  V30 45 2 45 46 CFG=2
M  V30 46 1 45 47
M  V30 47 1 40 48
M  V30 48 2 48 49
M  V30 49 1 48 50
M  V30 50 1 50 51
M  V30 51 1 51 52
M  V30 52 1 52 53
M  V30 53 1 53 54
M  V30 54 1 54 55
M  V30 55 1 55 56
M  V30 56 2 56 57 CFG=2
M  V30 57 1 56 58
M  V30 58 1 51 59
M  V30 59 2 59 60
M  V30 60 1 59 61
M  V30 61 1 61 62
M  V30 62 1 62 63
M  V30 63 1 63 64
M  V30 64 1 64 65
M  V30 65 1 65 66
M  V30 66 1 66 67
M  V30 67 2 67 68 CFG=2
M  V30 68 1 67 69
M  V30 69 1 62 70
M  V30 70 2 70 71
M  V30 71 1 70 72
M  V30 72 1 72 73
M  V30 73 1 73 74
M  V30 74 1 74 75
M  V30 75 1 75 76
M  V30 76 1 76 77
M  V30 77 1 77 78
M  V30 78 2 78 79 CFG=2
M  V30 79 1 78 80
M  V30 80 1 73 81
M  V30 81 2 81 82
M  V30 82 1 81 83
M  V30 83 1 83 84
M  V30 84 1 84 85
M  V30 85 1 85 86
M  V30 86 1 86 87
M  V30 87 1 87 88
M  V30 88 1 88 89
M  V30 89 2 89 90 CFG=2
M  V30 90 1 89 91
M  V30 91 1 84 92
M  V30 92 2 92 93
M  V30 93 1 92 94
M  V30 94 1 94 95
M  V30 95 2 95 96
M  V30 96 1 95 97
M  V30 97 1 97 98
M  V30 98 1 98 99
M  V30 99 1 99 100
M  V30 100 1 100 101
M  V30 101 1 101 102
M  V30 102 1 102 103
M  V30 103 1 103 104
M  V30 104 1 104 105
M  V30 105 1 105 106
M  V30 106 2 106 107
M  V30 107 2 106 108
M  V30 108 1 106 109
M  V30 109 2 109 110
M  V30 110 1 110 111
M  V30 111 2 111 112
M  V30 112 1 112 113
M  V30 113 2 113 114
M  V30 114 1 114 115
M  V30 115 2 115 116
M  V30 116 1 116 117
M  V30 117 2 117 118
M  V30 118 1 35 20
M  V30 119 1 118 109
M  V30 120 1 32 23
M  V30 121 1 118 113
M  V30 122 1 32 26
M  V30 123 1 1 119
M  V30 124 1 3 120
M  V30 125 1 3 121
M  V30 126 1 4 122
M  V30 127 1 5 123
M  V30 128 1 5 124
M  V30 129 1 6 125
M  V30 130 1 6 126
M  V30 131 1 7 127
M  V30 132 1 7 128
M  V30 133 1 8 129 CFG=3
M  V30 134 1 9 130
M  V30 135 1 12 131
M  V30 136 1 12 132
M  V30 137 1 13 133
M  V30 138 1 13 134
M  V30 139 1 14 135
M  V30 140 1 14 136
M  V30 141 1 15 137
M  V30 142 1 15 138
M  V30 143 1 16 139
M  V30 144 1 16 140
M  V30 145 1 17 141
M  V30 146 1 20 142 CFG=1
M  V30 147 1 22 143 CFG=1
M  V30 148 1 24 144
M  V30 149 1 28 145
M  V30 150 1 28 146
M  V30 151 1 30 147
M  V30 152 1 33 148 CFG=3
M  V30 153 1 34 149
M  V30 154 1 35 150 CFG=3
M  V30 155 1 36 151
M  V30 156 1 39 152
M  V30 157 1 40 153 CFG=1
M  V30 158 1 41 154
M  V30 159 1 41 155
M  V30 160 1 42 156
M  V30 161 1 42 157
M  V30 162 1 43 158
M  V30 163 1 43 159
M  V30 164 1 44 160
M  V30 165 1 46 161
M  V30 166 1 47 162
M  V30 167 1 47 163
M  V30 168 1 50 164
M  V30 169 1 51 165 CFG=3
M  V30 170 1 52 166
M  V30 171 1 52 167
M  V30 172 1 53 168
M  V30 173 1 53 169
M  V30 174 1 54 170
M  V30 175 1 54 171
M  V30 176 1 55 172
M  V30 177 1 57 173
M  V30 178 1 58 174
M  V30 179 1 58 175
M  V30 180 1 61 176
M  V30 181 1 62 177 CFG=3
M  V30 182 1 63 178
M  V30 183 1 63 179
M  V30 184 1 64 180
M  V30 185 1 64 181
M  V30 186 1 65 182
M  V30 187 1 65 183
M  V30 188 1 66 184
M  V30 189 1 68 185
M  V30 190 1 69 186
M  V30 191 1 69 187
M  V30 192 1 72 188
M  V30 193 1 73 189 CFG=3
M  V30 194 1 74 190
M  V30 195 1 74 191
M  V30 196 1 75 192
M  V30 197 1 75 193
M  V30 198 1 76 194
M  V30 199 1 76 195
M  V30 200 1 77 196
M  V30 201 1 79 197
M  V30 202 1 80 198
M  V30 203 1 80 199
M  V30 204 1 83 200
M  V30 205 1 84 201 CFG=3
M  V30 206 1 85 202
M  V30 207 1 85 203
M  V30 208 1 86 204
M  V30 209 1 86 205
M  V30 210 1 87 206
M  V30 211 1 87 207
M  V30 212 1 88 208
M  V30 213 1 90 209
M  V30 214 1 91 210
M  V30 215 1 91 211
M  V30 216 1 94 212
M  V30 217 1 97 213
M  V30 218 1 97 214
M  V30 219 1 98 215
M  V30 220 1 98 216
M  V30 221 1 99 217
M  V30 222 1 99 218
M  V30 223 1 100 219
M  V30 224 1 100 220
M  V30 225 1 101 221
M  V30 226 1 101 222
M  V30 227 1 102 223
M  V30 228 1 103 224
M  V30 229 1 103 225
M  V30 230 1 104 226
M  V30 231 1 104 227
M  V30 232 1 105 228
M  V30 233 1 110 229
M  V30 234 1 111 230
M  V30 235 1 112 231
M  V30 236 1 114 232
M  V30 237 1 116 233
M  V30 238 1 117 234
M  V30 END BOND
M  V30 END CTAB
M  END
>  <Dataset>  (177) 
ChEMBL_Kinases

>  <Ligand_Instance>  (177) 
nan

>  <PDB_ID>  (177) 
nan

>  <Standardized_SMILES>  (177) 
N=C(N)NCCC[C@@H](NC(=O)CCCCCNC(=O)[C@H]1O[C@@H](n2cnc3c(N)ncnc32)[C@H](O)[C@@H]1O)C(=O)N[C@H](CCCNC(=N)N)C(=O)N[C@H](CCCNC(=N)N)C(=O)N[C@H](CCCNC(=N)N)C(=O)N[C@H](CCCNC(=N)N)C(=O)N[C@H](CCCNC(=N)N)C(=O)NC(=O)CCCCCNCCNS(=O)(=O)c1cccc2cnccc12

>  <Name>  (177) 
nan

>  <Pocket>  (177) 
nan

>  <ATP_Site>  (177) 
nan

>  <Peripheral>  (177) 
nan

>  <Num_H_Atoms_ProtBoundConf>  (177) 
nan

>  <Num_Resolved_Atoms>  (177) 
nan

>  <Num_Not_Resolved_Atoms>  (177) 
nan

$$$$
CHEMBL413224
     RDKit          3D

  0  0  0  0  0  0  0  0  0  0999 V3000
M  V30 BEGIN CTAB
M  V30 COUNTS 53 57 0 0 0
M  V30 BEGIN ATOM
M  V30 1 C -7.499859 -2.371889 1.582955 0
M  V30 2 O -6.955650 -1.535198 2.560310 0
M  V30 3 C -5.827133 -0.738530 2.363692 0
M  V30 4 C -5.063595 -0.614761 1.246709 0
M  V30 5 C -3.963442 0.240377 1.240953 0
M  V30 6 C -3.181247 0.329084 0.009456 0
M  V30 7 C -3.722889 0.184889 -1.253961 0
M  V30 8 C -2.928839 0.277983 -2.389275 0
M  V30 9 C -1.566490 0.520911 -2.240463 0
M  V30 10 C -1.040937 0.663035 -0.964149 0
M  V30 11 C -1.832129 0.571136 0.187770 0
M  V30 12 N 0.345066 0.916075 -0.642292 0
M  V30 13 C 1.492349 0.609231 -1.433204 0
M  V30 14 C 2.601944 0.494915 -0.612574 0
M  V30 15 C 3.806019 0.195801 -1.238164 0
M  V30 16 C 3.869300 0.024252 -2.619323 0
M  V30 17 N 5.213167 -0.281194 -3.046804 0
M  V30 18 C 5.413762 -1.722318 -3.032233 0
M  V30 19 C 6.836987 -1.935670 -3.486880 0
M  V30 20 C 7.289586 -0.652869 -4.122293 0
M  V30 21 C 6.417500 0.371101 -3.481311 0
M  V30 22 O 6.421388 1.605834 -3.213960 0
M  V30 23 C 2.744334 0.144858 -3.411481 0
M  V30 24 C 1.540211 0.442002 -2.804398 0
M  V30 25 N 0.541414 0.513904 -3.814916 0
M  V30 26 C -0.860479 0.591237 -3.527119 0
M  V30 27 O -1.606689 0.741964 -4.519155 0
M  V30 28 C -3.647582 0.965100 2.375227 0
M  V30 29 C -4.432794 0.837476 3.522501 0
M  V30 30 C -5.537866 -0.021094 3.528815 0
M  V30 31 N -6.266022 -0.070062 4.757363 0
M  V30 32 H -8.289839 -1.828018 1.001232 0
M  V30 33 H -8.004813 -3.218920 2.108198 0
M  V30 34 H -6.723678 -2.732241 0.870370 0
M  V30 35 H -5.383701 -1.218000 0.405206 0
M  V30 36 H -4.799605 -0.005691 -1.331211 0
M  V30 37 H -3.346789 0.166234 -3.368314 0
M  V30 38 H -1.356809 0.692303 1.160859 0
M  V30 39 H 0.492375 1.377844 0.284094 0
M  V30 40 H 2.508575 0.635852 0.456096 0
M  V30 41 H 4.643851 0.117553 -0.555888 0
M  V30 42 H 5.357240 -2.069067 -1.962474 0
M  V30 43 H 4.694072 -2.280580 -3.642701 0
M  V30 44 H 7.505885 -2.237089 -2.660512 0
M  V30 45 H 6.865223 -2.757746 -4.232308 0
M  V30 46 H 8.370882 -0.451264 -3.895344 0
M  V30 47 H 7.166950 -0.673931 -5.220062 0
M  V30 48 H 2.922037 -0.009651 -4.468648 0
M  V30 49 H 0.856814 0.509626 -4.815856 0
M  V30 50 H -2.783909 1.637544 2.369713 0
M  V30 51 H -4.144357 1.432854 4.402047 0
M  V30 52 H -7.046125 0.523115 5.163260 0
M  V30 53 H -5.760893 -0.912843 5.140852 0
M  V30 END ATOM
M  V30 BEGIN BOND
M  V30 1 1 1 2
M  V30 2 1 2 3
M  V30 3 2 3 4
M  V30 4 1 4 5
M  V30 5 1 5 6
M  V30 6 2 6 7
M  V30 7 1 7 8
M  V30 8 2 8 9
M  V30 9 1 9 10
M  V30 10 2 10 11
M  V30 11 1 10 12
M  V30 12 1 12 13
M  V30 13 2 13 14
M  V30 14 1 14 15
M  V30 15 2 15 16
M  V30 16 1 16 17
M  V30 17 1 17 18
M  V30 18 1 18 19
M  V30 19 1 19 20
M  V30 20 1 20 21
M  V30 21 2 21 22
M  V30 22 1 16 23
M  V30 23 2 23 24
M  V30 24 1 24 25
M  V30 25 1 25 26
M  V30 26 2 26 27
M  V30 27 2 5 28
M  V30 28 1 28 29
M  V30 29 2 29 30
M  V30 30 1 30 31
M  V30 31 1 30 3
M  V30 32 1 11 6
M  V30 33 1 24 13
M  V30 34 1 26 9
M  V30 35 1 21 17
M  V30 36 1 1 32
M  V30 37 1 1 33
M  V30 38 1 1 34
M  V30 39 1 4 35
M  V30 40 1 7 36
M  V30 41 1 8 37
M  V30 42 1 11 38
M  V30 43 1 12 39
M  V30 44 1 14 40
M  V30 45 1 15 41
M  V30 46 1 18 42
M  V30 47 1 18 43
M  V30 48 1 19 44
M  V30 49 1 19 45
M  V30 50 1 20 46
M  V30 51 1 20 47
M  V30 52 1 23 48
M  V30 53 1 25 49
M  V30 54 1 28 50
M  V30 55 1 29 51
M  V30 56 1 31 52
M  V30 57 1 31 53
M  V30 END BOND
M  V30 END CTAB
M  END
>  <Dataset>  (178) 
ChEMBL_Kinases

>  <Ligand_Instance>  (178) 
nan

>  <PDB_ID>  (178) 
nan

>  <Standardized_SMILES>  (178) 
COc1cc(-c2ccc3c(c2)Nc2ccc(N4CCCC4=O)cc2NC3=O)ccc1N

>  <Name>  (178) 
nan

>  <Pocket>  (178) 
nan

>  <ATP_Site>  (178) 
nan

>  <Peripheral>  (178) 
nan

>  <Num_H_Atoms_ProtBoundConf>  (178) 
nan

>  <Num_Resolved_Atoms>  (178) 
nan

>  <Num_Not_Resolved_Atoms>  (178) 
nan

$$$$
CHEMBL413188
     RDKit          3D

  0  0  0  0  0  0  0  0  0  0999 V3000
M  V30 BEGIN CTAB
M  V30 COUNTS 29 33 0 0 0
M  V30 BEGIN ATOM
M  V30 1 O -0.771785 1.221348 3.445963 0
M  V30 2 C -0.302570 0.089369 3.276751 0
M  V30 3 N -0.132127 -0.679078 4.454096 0
M  V30 4 C 0.418485 -1.958821 4.086947 0
M  V30 5 O 0.713359 -2.917998 4.839835 0
M  V30 6 C 0.547738 -1.866481 2.638863 0
M  V30 7 C 0.127640 -0.662474 2.129717 0
M  V30 8 C 0.186491 -0.426716 0.798636 0
M  V30 9 C -0.170251 0.676548 0.085923 0
M  V30 10 C -0.686438 1.922866 0.268521 0
M  V30 11 C -0.935880 2.837855 -0.727697 0
M  V30 12 C -0.642443 2.480687 -2.049844 0
M  V30 13 C -0.114402 1.218578 -2.281117 0
M  V30 14 C 0.106866 0.357090 -1.224558 0
M  V30 15 N 0.615583 -0.909296 -1.272401 0
M  V30 16 C 0.673310 -1.414258 -0.025081 0
M  V30 17 N 1.081269 -2.588487 0.486754 0
M  V30 18 C 1.584391 -3.658706 -0.192486 0
M  V30 19 N 1.862661 -4.618907 0.708903 0
M  V30 20 C 1.535661 -4.148973 1.932836 0
M  V30 21 C 1.042218 -2.869213 1.801006 0
M  V30 22 H -0.325411 -0.487893 5.477793 0
M  V30 23 H -0.934115 2.269309 1.228534 0
M  V30 24 H -1.346797 3.823899 -0.561228 0
M  V30 25 H -0.793723 3.110865 -2.915026 0
M  V30 26 H 0.121217 0.914802 -3.283866 0
M  V30 27 H 0.921074 -1.432869 -2.122632 0
M  V30 28 H 1.735626 -3.729512 -1.266642 0
M  V30 29 H 1.605248 -4.605934 2.910193 0
M  V30 END ATOM
M  V30 BEGIN BOND
M  V30 1 2 1 2
M  V30 2 1 2 3
M  V30 3 1 3 4
M  V30 4 2 4 5
M  V30 5 1 4 6
M  V30 6 2 6 7
M  V30 7 1 7 8
M  V30 8 1 8 9
M  V30 9 2 9 10
M  V30 10 1 10 11
M  V30 11 2 11 12
M  V30 12 1 12 13
M  V30 13 2 13 14
M  V30 14 1 14 15
M  V30 15 1 15 16
M  V30 16 1 16 17
M  V30 17 1 17 18
M  V30 18 2 18 19
M  V30 19 1 19 20
M  V30 20 2 20 21
M  V30 21 1 7 2
M  V30 22 2 16 8
M  V30 23 1 21 17
M  V30 24 1 21 6
M  V30 25 1 14 9
M  V30 26 1 3 22
M  V30 27 1 10 23
M  V30 28 1 11 24
M  V30 29 1 12 25
M  V30 30 1 13 26
M  V30 31 1 15 27
M  V30 32 1 18 28
M  V30 33 1 20 29
M  V30 END BOND
M  V30 END CTAB
M  END
>  <Dataset>  (179) 
ChEMBL_Kinases

>  <Ligand_Instance>  (179) 
nan

>  <PDB_ID>  (179) 
nan

>  <Standardized_SMILES>  (179) 
O=C1NC(=O)c2c1c1c3ccccc3[nH]c1n1cncc21

>  <Name>  (179) 
ISOGRANULATIMIDE

>  <Pocket>  (179) 
nan

>  <ATP_Site>  (179) 
nan

>  <Peripheral>  (179) 
nan

>  <Num_H_Atoms_ProtBoundConf>  (179) 
nan

>  <Num_Resolved_Atoms>  (179) 
nan

>  <Num_Not_Resolved_Atoms>  (179) 
nan

$$$$
CHEMBL4790038
     RDKit          3D

  0  0  0  0  0  0  0  0  0  0999 V3000
M  V30 BEGIN CTAB
M  V30 COUNTS 69 72 0 0 0
M  V30 BEGIN ATOM
M  V30 1 C 5.217034 -0.697937 5.936660 0
M  V30 2 O 4.949227 0.019675 4.756218 0
M  V30 3 C 5.820510 0.071985 3.717222 0
M  V30 4 O 6.823712 -0.613234 4.039736 0
M  V30 5 C 5.766776 0.736072 2.421725 0
M  V30 6 C 6.879704 0.570113 1.596219 0
M  V30 7 C 6.919712 1.164471 0.357181 0
M  V30 8 C 5.835934 1.913804 -0.021789 0
M  V30 9 C 4.730982 2.065938 0.821349 0
M  V30 10 C 4.666054 1.488956 2.049946 0
M  V30 11 N 3.521025 1.648572 2.868899 0
M  V30 12 C 2.525179 2.462062 2.207504 0
M  V30 13 N 1.810572 1.863547 1.241213 0
M  V30 14 C 0.846794 2.492669 0.503908 0
M  V30 15 N 0.276123 1.592181 -0.445272 0
M  V30 16 C -0.928573 0.860166 -0.612512 0
M  V30 17 C -1.883577 0.898825 0.414471 0
M  V30 18 C -3.064820 0.156889 0.296924 0
M  V30 19 C -3.246550 -0.603502 -0.857800 0
M  V30 20 N -4.398564 -1.413447 -1.049048 0
M  V30 21 C -5.435355 -1.746160 -0.106060 0
M  V30 22 C -5.676880 -3.217138 0.025176 0
M  V30 23 C -5.328367 -4.067289 -1.136095 0
M  V30 24 N -5.042428 -5.435595 -0.803700 0
M  V30 25 C -4.697754 -6.162542 -2.012793 0
M  V30 26 C -4.022893 -5.641130 0.166100 0
M  V30 27 C -4.254286 -3.522647 -2.048856 0
M  V30 28 C -4.698829 -2.070173 -2.301053 0
M  V30 29 C -2.288838 -0.613356 -1.838664 0
M  V30 30 C -1.126016 0.106298 -1.741521 0
M  V30 31 O -0.131397 0.126194 -2.708566 0
M  V30 32 C -0.261654 -0.621952 -3.900431 0
M  V30 33 N 0.562562 3.792114 0.727830 0
M  V30 34 C 1.262326 4.415285 1.690632 0
M  V30 35 C 2.232988 3.788631 2.434449 0
M  V30 36 N 2.985624 4.420140 3.459538 0 CHG=1 VAL=4
M  V30 37 O 4.161348 4.144460 3.759375 0
M  V30 38 O 2.480605 5.440522 4.260311 0 CHG=-1 VAL=1
M  V30 39 H 4.442233 -1.495667 6.101175 0
M  V30 40 H 5.115232 -0.056764 6.861323 0
M  V30 41 H 6.192128 -1.222588 5.950346 0
M  V30 42 H 7.739467 -0.021475 1.885169 0
M  V30 43 H 7.774198 1.044787 -0.291989 0
M  V30 44 H 5.888976 2.371083 -0.996528 0
M  V30 45 H 3.973982 2.670273 0.389255 0
M  V30 46 H 3.287815 1.299742 3.807992 0
M  V30 47 H 1.017393 1.505657 -1.206417 0
M  V30 48 H -1.719146 1.491398 1.290334 0
M  V30 49 H -3.814394 0.171339 1.069209 0
M  V30 50 H -6.349184 -1.191108 -0.404828 0
M  V30 51 H -5.138084 -1.346260 0.881856 0
M  V30 52 H -6.739450 -3.373952 0.294937 0
M  V30 53 H -5.098872 -3.608783 0.912938 0
M  V30 54 H -6.243349 -4.117051 -1.798644 0
M  V30 55 H -5.386940 -6.014741 -2.840896 0
M  V30 56 H -4.627949 -7.259479 -1.772759 0
M  V30 57 H -3.656505 -5.859563 -2.321564 0
M  V30 58 H -4.352881 -5.706726 1.215334 0
M  V30 59 H -3.162499 -4.929099 0.059857 0
M  V30 60 H -3.558362 -6.641433 -0.044965 0
M  V30 61 H -3.250407 -3.473656 -1.583122 0
M  V30 62 H -4.316625 -4.050157 -2.995837 0
M  V30 63 H -5.805361 -2.067322 -2.509508 0
M  V30 64 H -4.211933 -1.640117 -3.175728 0
M  V30 65 H -2.322451 -1.176697 -2.785881 0
M  V30 66 H -1.046961 -0.135551 -4.514547 0
M  V30 67 H -0.531278 -1.678085 -3.713964 0
M  V30 68 H 0.682439 -0.542624 -4.495200 0
M  V30 69 H 1.039594 5.435377 1.868553 0
M  V30 END ATOM
M  V30 BEGIN BOND
M  V30 1 1 1 2
M  V30 2 1 2 3
M  V30 3 2 3 4
M  V30 4 1 3 5
M  V30 5 2 5 6
M  V30 6 1 6 7
M  V30 7 2 7 8
M  V30 8 1 8 9
M  V30 9 2 9 10
M  V30 10 1 10 11
M  V30 11 1 11 12
M  V30 12 2 12 13
M  V30 13 1 13 14
M  V30 14 1 14 15
M  V30 15 1 15 16
M  V30 16 2 16 17
M  V30 17 1 17 18
M  V30 18 2 18 19
M  V30 19 1 19 20
M  V30 20 1 20 21
M  V30 21 1 21 22
M  V30 22 1 22 23
M  V30 23 1 23 24
M  V30 24 1 24 25
M  V30 25 1 24 26
M  V30 26 1 23 27
M  V30 27 1 27 28
M  V30 28 1 19 29
M  V30 29 2 29 30
M  V30 30 1 30 31
M  V30 31 1 31 32
M  V30 32 2 14 33
M  V30 33 1 33 34
M  V30 34 2 34 35
M  V30 35 1 35 36
M  V30 36 2 36 37
M  V30 37 1 36 38
M  V30 38 1 10 5
M  V30 39 1 35 12
M  V30 40 1 30 16
M  V30 41 1 28 20
M  V30 42 1 1 39
M  V30 43 1 1 40
M  V30 44 1 1 41
M  V30 45 1 6 42
M  V30 46 1 7 43
M  V30 47 1 8 44
M  V30 48 1 9 45
M  V30 49 1 11 46
M  V30 50 1 15 47
M  V30 51 1 17 48
M  V30 52 1 18 49
M  V30 53 1 21 50
M  V30 54 1 21 51
M  V30 55 1 22 52
M  V30 56 1 22 53
M  V30 57 1 23 54
M  V30 58 1 25 55
M  V30 59 1 25 56
M  V30 60 1 25 57
M  V30 61 1 26 58
M  V30 62 1 26 59
M  V30 63 1 26 60
M  V30 64 1 27 61
M  V30 65 1 27 62
M  V30 66 1 28 63
M  V30 67 1 28 64
M  V30 68 1 29 65
M  V30 69 1 32 66
M  V30 70 1 32 67
M  V30 71 1 32 68
M  V30 72 1 34 69
M  V30 END BOND
M  V30 END CTAB
M  END
>  <Dataset>  (180) 
ChEMBL_Kinases

>  <Ligand_Instance>  (180) 
nan

>  <PDB_ID>  (180) 
nan

>  <Standardized_SMILES>  (180) 
COC(=O)c1ccccc1Nc1nc(Nc2ccc(N3CCC(N(C)C)CC3)cc2OC)ncc1[N+](=O)[O-]

>  <Name>  (180) 
nan

>  <Pocket>  (180) 
nan

>  <ATP_Site>  (180) 
nan

>  <Peripheral>  (180) 
nan

>  <Num_H_Atoms_ProtBoundConf>  (180) 
nan

>  <Num_Resolved_Atoms>  (180) 
nan

>  <Num_Not_Resolved_Atoms>  (180) 
nan

$$$$
CHEMBL4790041
     RDKit          3D

  0  0  0  0  0  0  0  0  0  0999 V3000
M  V30 BEGIN CTAB
M  V30 COUNTS 27 28 0 0 0
M  V30 BEGIN ATOM
M  V30 1 C -2.425162 -0.444134 3.602861 0
M  V30 2 C -0.964461 -0.784755 3.895848 0
M  V30 3 O -0.299253 -0.725212 2.646953 0
M  V30 4 C 1.060916 -0.981956 2.530490 0
M  V30 5 O 1.725206 -1.272661 3.538025 0
M  V30 6 C 1.658532 -0.895955 1.199349 0
M  V30 7 C 3.002471 -1.134761 0.988850 0
M  V30 8 N 3.480060 -1.035308 -0.272536 0
M  V30 9 C 2.710409 -0.714330 -1.337916 0
M  V30 10 N 3.238385 -0.616331 -2.655415 0
M  V30 11 N 1.395844 -0.474610 -1.171528 0
M  V30 12 N 0.400926 -0.147338 -1.984518 0
M  V30 13 C -0.749558 -0.027169 -1.261851 0
M  V30 14 C -2.141190 0.315436 -1.657691 0
M  V30 15 N -0.402338 -0.295872 0.016447 0
M  V30 16 C 0.912788 -0.571655 0.081467 0
M  V30 17 H -2.591362 0.656794 3.671508 0
M  V30 18 H -2.682710 -0.706839 2.542304 0
M  V30 19 H -3.124628 -1.002680 4.242189 0
M  V30 20 H -0.953196 -1.836876 4.236411 0
M  V30 21 H -0.535612 -0.070898 4.611984 0
M  V30 22 H 3.646472 -1.395158 1.827586 0
M  V30 23 H 2.942820 -1.050481 -3.559151 0
M  V30 24 H 4.058471 -0.081196 -3.044989 0
M  V30 25 H -2.152356 0.843548 -2.624871 0
M  V30 26 H -2.599323 0.912401 -0.834981 0
M  V30 27 H -2.766492 -0.606367 -1.748593 0
M  V30 END ATOM
M  V30 BEGIN BOND
M  V30 1 1 1 2
M  V30 2 1 2 3
M  V30 3 1 3 4
M  V30 4 2 4 5
M  V30 5 1 4 6
M  V30 6 2 6 7
M  V30 7 1 7 8
M  V30 8 2 8 9
M  V30 9 1 9 10
M  V30 10 1 9 11
M  V30 11 1 11 12
M  V30 12 2 12 13
M  V30 13 1 13 14
M  V30 14 1 13 15
M  V30 15 2 15 16
M  V30 16 1 16 6
M  V30 17 1 16 11
M  V30 18 1 1 17
M  V30 19 1 1 18
M  V30 20 1 1 19
M  V30 21 1 2 20
M  V30 22 1 2 21
M  V30 23 1 7 22
M  V30 24 1 10 23
M  V30 25 1 10 24
M  V30 26 1 14 25
M  V30 27 1 14 26
M  V30 28 1 14 27
M  V30 END BOND
M  V30 END CTAB
M  END
>  <Dataset>  (181) 
ChEMBL_Kinases

>  <Ligand_Instance>  (181) 
nan

>  <PDB_ID>  (181) 
nan

>  <Standardized_SMILES>  (181) 
CCOC(=O)c1cnc(N)n2nc(C)nc12

>  <Name>  (181) 
nan

>  <Pocket>  (181) 
nan

>  <ATP_Site>  (181) 
nan

>  <Peripheral>  (181) 
nan

>  <Num_H_Atoms_ProtBoundConf>  (181) 
nan

>  <Num_Resolved_Atoms>  (181) 
nan

>  <Num_Not_Resolved_Atoms>  (181) 
nan

$$$$
CHEMBL4790042
     RDKit          3D

  0  0  0  0  0  0  0  0  0  0999 V3000
M  V30 BEGIN CTAB
M  V30 COUNTS 38 41 0 0 0
M  V30 BEGIN ATOM
M  V30 1 N 0.164953 -4.626297 2.846423 0
M  V30 2 C 0.580994 -3.355704 2.352999 0
M  V30 3 N 1.833377 -2.872544 2.551846 0
M  V30 4 C 2.214884 -1.671273 2.081056 0
M  V30 5 C 1.360558 -0.854633 1.367642 0
M  V30 6 C 1.701530 0.458049 0.826193 0
M  V30 7 C 0.683976 1.411088 0.736779 0
M  V30 8 C 1.037505 2.648120 0.217812 0
M  V30 9 C 2.317406 2.967485 -0.202354 0
M  V30 10 C 2.504445 4.333912 -0.728030 0
M  V30 11 N 3.141516 5.460620 -0.325794 0
M  V30 12 N 2.941353 6.386597 -1.247169 0
M  V30 13 N 2.197049 5.842914 -2.197133 0
M  V30 14 N 1.908860 4.572396 -1.906416 0
M  V30 15 C 3.321924 2.018267 -0.111161 0
M  V30 16 C 2.973536 0.785978 0.404953 0
M  V30 17 C 0.082496 -1.381412 1.181709 0
M  V30 18 C -0.351159 -2.597162 1.641262 0
M  V30 19 C -1.723186 -3.044352 1.381807 0
M  V30 20 C -2.097737 -2.813033 0.058800 0
M  V30 21 C -3.376707 -3.176212 -0.375006 0
M  V30 22 C -4.229507 -3.758100 0.539033 0
M  V30 23 Cl -5.836832 -4.222491 0.020497 0
M  V30 24 C -3.863689 -3.988623 1.847568 0
M  V30 25 C -2.600600 -3.625277 2.259490 0
M  V30 26 H -0.170187 -4.946228 3.780430 0
M  V30 27 H 0.150512 -5.490435 2.238134 0
M  V30 28 H 3.218937 -1.306584 2.251920 0
M  V30 29 H -0.316567 1.179514 1.058539 0
M  V30 30 H 0.231772 3.394769 0.149942 0
M  V30 31 H 1.949112 6.462335 -3.010679 0
M  V30 32 H 4.303223 2.296632 -0.445098 0
M  V30 33 H 3.738970 0.046994 0.480203 0
M  V30 34 H -0.636133 -0.793718 0.631561 0
M  V30 35 H -1.474087 -2.358634 -0.711105 0
M  V30 36 H -3.727422 -3.022116 -1.392825 0
M  V30 37 H -4.497712 -4.439431 2.591244 0
M  V30 38 H -2.182643 -3.742545 3.237108 0
M  V30 END ATOM
M  V30 BEGIN BOND
M  V30 1 1 1 2
M  V30 2 2 2 3
M  V30 3 1 3 4
M  V30 4 2 4 5
M  V30 5 1 5 6
M  V30 6 2 6 7
M  V30 7 1 7 8
M  V30 8 2 8 9
M  V30 9 1 9 10
M  V30 10 1 10 11
M  V30 11 2 11 12
M  V30 12 1 12 13
M  V30 13 1 13 14
M  V30 14 1 9 15
M  V30 15 2 15 16
M  V30 16 1 5 17
M  V30 17 2 17 18
M  V30 18 1 18 19
M  V30 19 2 19 20
M  V30 20 1 20 21
M  V30 21 2 21 22
M  V30 22 1 22 23
M  V30 23 1 22 24
M  V30 24 2 24 25
M  V30 25 1 18 2
M  V30 26 1 25 19
M  V30 27 1 16 6
M  V30 28 2 14 10
M  V30 29 1 1 26
M  V30 30 1 1 27
M  V30 31 1 4 28
M  V30 32 1 7 29
M  V30 33 1 8 30
M  V30 34 1 13 31
M  V30 35 1 15 32
M  V30 36 1 16 33
M  V30 37 1 17 34
M  V30 38 1 20 35
M  V30 39 1 21 36
M  V30 40 1 24 37
M  V30 41 1 25 38
M  V30 END BOND
M  V30 END CTAB
M  END
>  <Dataset>  (182) 
ChEMBL_Kinases

>  <Ligand_Instance>  (182) 
nan

>  <PDB_ID>  (182) 
nan

>  <Standardized_SMILES>  (182) 
Nc1ncc(-c2ccc(-c3nn[nH]n3)cc2)cc1-c1ccc(Cl)cc1

>  <Name>  (182) 
nan

>  <Pocket>  (182) 
nan

>  <ATP_Site>  (182) 
nan

>  <Peripheral>  (182) 
nan

>  <Num_H_Atoms_ProtBoundConf>  (182) 
nan

>  <Num_Resolved_Atoms>  (182) 
nan

>  <Num_Not_Resolved_Atoms>  (182) 
nan

$$$$
CHEMBL4130255
     RDKit          3D

  0  0  0  0  0  0  0  0  0  0999 V3000
M  V30 BEGIN CTAB
M  V30 COUNTS 50 54 0 0 0
M  V30 BEGIN ATOM
M  V30 1 N 5.211514 -5.646088 1.099604 0
M  V30 2 C 5.902522 -4.454575 0.787588 0
M  V30 3 O 7.136367 -4.391199 0.909888 0
M  V30 4 C 5.111440 -3.322900 0.323440 0
M  V30 5 C 5.752826 -2.143282 0.016250 0
M  V30 6 C 5.086525 -1.019873 -0.430654 0
M  V30 7 C 3.702359 -1.079480 -0.578506 0
M  V30 8 C 2.961177 0.086894 -1.048130 0
M  V30 9 C 3.339621 0.888481 -2.113040 0
M  V30 10 N 2.425822 1.879311 -2.273644 0
M  V30 11 C 1.446196 1.751520 -1.334882 0
M  V30 12 N 0.336652 2.471760 -1.079666 0
M  V30 13 C -0.470209 2.106146 -0.063974 0
M  V30 14 C -0.189636 1.006886 0.727471 0
M  V30 15 C -1.007798 0.540718 1.844614 0
M  V30 16 C -0.301388 0.204516 3.002316 0
M  V30 17 C -0.994933 -0.249998 4.119497 0
M  V30 18 C -2.370123 -0.366454 4.080456 0
M  V30 19 C -3.058332 -0.034645 2.940519 0
M  V30 20 C -2.389599 0.414928 1.830629 0
M  V30 21 O -3.029681 0.762354 0.658233 0
M  V30 22 C -4.421089 0.680008 0.514993 0
M  V30 23 C -5.364229 1.649988 0.782379 0
M  V30 24 C -6.692719 1.363372 0.571691 0
M  V30 25 C -7.125249 0.140699 0.101781 0
M  V30 26 C -6.180951 -0.830077 -0.165816 0
M  V30 27 C -4.826720 -0.568741 0.038013 0
M  V30 28 C 0.962233 0.264036 0.458026 0
M  V30 29 C 1.776609 0.650769 -0.583678 0
M  V30 30 C 3.057697 -2.259821 -0.271500 0
M  V30 31 C 3.742576 -3.385914 0.178548 0
M  V30 32 H 4.510307 -6.309635 0.705725 0
M  V30 33 H 4.705203 -6.518425 1.327312 0
M  V30 34 H 6.807110 -2.157913 0.148311 0
M  V30 35 H 5.615803 -0.101737 -0.666079 0
M  V30 36 H 4.198458 0.810383 -2.758425 0
M  V30 37 H 2.436488 2.630131 -2.983564 0
M  V30 38 H -1.378538 2.665892 0.173123 0
M  V30 39 H 0.785260 0.274830 3.095416 0
M  V30 40 H -0.442502 -0.510673 5.018312 0
M  V30 41 H -2.949203 -0.707683 4.903461 0
M  V30 42 H -4.154648 -0.118972 2.885174 0
M  V30 43 H -4.941346 2.570889 1.144121 0
M  V30 44 H -7.387825 2.178918 0.804655 0
M  V30 45 H -8.181849 0.009408 -0.031330 0
M  V30 46 H -6.507050 -1.806309 -0.539357 0
M  V30 47 H -4.155483 -1.391375 -0.199342 0
M  V30 48 H 1.209023 -0.589189 1.048133 0
M  V30 49 H 1.988064 -2.364903 -0.366454 0
M  V30 50 H 3.214768 -4.314416 0.417628 0
M  V30 END ATOM
M  V30 BEGIN BOND
M  V30 1 1 1 2
M  V30 2 2 2 3
M  V30 3 1 2 4
M  V30 4 2 4 5
M  V30 5 1 5 6
M  V30 6 2 6 7
M  V30 7 1 7 8
M  V30 8 2 8 9
M  V30 9 1 9 10
M  V30 10 1 10 11
M  V30 11 2 11 12
M  V30 12 1 12 13
M  V30 13 2 13 14
M  V30 14 1 14 15
M  V30 15 2 15 16
M  V30 16 1 16 17
M  V30 17 2 17 18
M  V30 18 1 18 19
M  V30 19 2 19 20
M  V30 20 1 20 21
M  V30 21 1 21 22
M  V30 22 2 22 23
M  V30 23 1 23 24
M  V30 24 2 24 25
M  V30 25 1 25 26
M  V30 26 2 26 27
M  V30 27 1 14 28
M  V30 28 2 28 29
M  V30 29 1 7 30
M  V30 30 2 30 31
M  V30 31 1 31 4
M  V30 32 1 29 8
M  V30 33 1 29 11
M  V30 34 1 20 15
M  V30 35 1 27 22
M  V30 36 1 1 32
M  V30 37 1 1 33
M  V30 38 1 5 34
M  V30 39 1 6 35
M  V30 40 1 9 36
M  V30 41 1 10 37
M  V30 42 1 13 38
M  V30 43 1 16 39
M  V30 44 1 17 40
M  V30 45 1 18 41
M  V30 46 1 19 42
M  V30 47 1 23 43
M  V30 48 1 24 44
M  V30 49 1 25 45
M  V30 50 1 26 46
M  V30 51 1 27 47
M  V30 52 1 28 48
M  V30 53 1 30 49
M  V30 54 1 31 50
M  V30 END BOND
M  V30 END CTAB
M  END
>  <Dataset>  (183) 
ChEMBL_Kinases

>  <Ligand_Instance>  (183) 
nan

>  <PDB_ID>  (183) 
nan

>  <Standardized_SMILES>  (183) 
NC(=O)c1ccc(-c2c[nH]c3ncc(-c4ccccc4Oc4ccccc4)cc23)cc1

>  <Name>  (183) 
nan

>  <Pocket>  (183) 
nan

>  <ATP_Site>  (183) 
nan

>  <Peripheral>  (183) 
nan

>  <Num_H_Atoms_ProtBoundConf>  (183) 
nan

>  <Num_Resolved_Atoms>  (183) 
nan

>  <Num_Not_Resolved_Atoms>  (183) 
nan

$$$$
CHEMBL4130239
     RDKit          3D

  0  0  0  0  0  0  0  0  0  0999 V3000
M  V30 BEGIN CTAB
M  V30 COUNTS 245 249 0 0 0
M  V30 BEGIN ATOM
M  V30 1 C 6.249124 -3.054687 -4.541265 0
M  V30 2 C 6.213247 -4.527886 -4.241602 0
M  V30 3 C 6.890322 -4.942398 -2.991361 0 CFG=2
M  V30 4 C 6.770383 -6.441269 -2.841088 0
M  V30 5 C 6.401491 -4.260934 -1.738054 0 CFG=2
M  V30 6 N 5.001887 -4.481388 -1.489657 0
M  V30 7 C 4.552405 -5.039962 -0.259436 0
M  V30 8 O 5.434030 -5.336290 0.607196 0
M  V30 9 C 3.154274 -5.322968 0.174457 0 CFG=2
M  V30 10 C 2.229786 -4.193144 -0.203880 0
M  V30 11 N 3.175858 -5.638534 1.580958 0
M  V30 12 C 2.654553 -4.874825 2.687799 0
M  V30 13 O 2.118996 -3.800539 2.242870 0
M  V30 14 C 2.856891 -5.477471 4.080766 0 CFG=1
M  V30 15 N 2.584150 -4.490179 5.065813 0
M  V30 16 C 2.879848 -3.128475 4.936294 0
M  V30 17 O 3.378860 -2.460627 4.040698 0
M  V30 18 C 2.748990 -1.904554 5.765969 0 CFG=2
M  V30 19 C 1.451142 -1.946284 6.537168 0
M  V30 20 O 1.274427 -0.775252 7.281939 0
M  V30 21 N 2.843804 -0.787833 4.835184 0
M  V30 22 C 3.641789 0.314430 4.367657 0
M  V30 23 O 4.652564 0.179708 5.147403 0
M  V30 24 C 3.071520 1.126217 3.257283 0 CFG=2
M  V30 25 C 3.214215 2.596555 3.381069 0
M  V30 26 C 4.612159 3.084836 3.432718 0
M  V30 27 C 4.694750 4.466210 3.522172 0
M  V30 28 N 5.988292 4.809687 3.552043 0
M  V30 29 C 6.774170 3.706290 3.481663 0
M  V30 30 N 5.888164 2.667958 3.409178 0
M  V30 31 N 1.697527 0.736473 2.995904 0
M  V30 32 C 1.341932 -0.273031 2.072617 0
M  V30 33 O 2.334987 -0.826557 1.494082 0
M  V30 34 C 0.081116 -0.847098 1.620185 0 CFG=2
M  V30 35 C 0.026604 -0.894076 0.111151 0
M  V30 36 C -1.233632 -1.498547 -0.449287 0
M  V30 37 C -1.466997 -2.918602 -0.040456 0
M  V30 38 C -1.107562 -1.440949 -1.979885 0
M  V30 39 N -1.032857 -0.053434 2.118343 0
M  V30 40 C -2.321926 -0.319990 2.591986 0
M  V30 41 O -2.691931 -1.532112 2.610349 0
M  V30 42 C -3.227250 0.759123 3.054370 0 CFG=2
M  V30 43 C -2.860802 1.058627 4.512473 0
M  V30 44 C -3.494573 -0.121485 5.261389 0
M  V30 45 C -4.554080 -0.669002 4.329965 0
M  V30 46 N -4.563786 0.186188 3.157674 0
M  V30 47 C -5.683896 0.394375 2.276435 0
M  V30 48 O -6.176631 -0.455762 3.029098 0
M  V30 49 C -5.734694 1.339719 1.112658 0 CFG=2
M  V30 50 C -5.836837 2.711773 1.756388 0
M  V30 51 C -7.293579 2.776589 2.201188 0
M  V30 52 C -7.935069 1.536221 1.579933 0
M  V30 53 N -7.058740 1.158018 0.500216 0
M  V30 54 C -7.633122 0.707471 -0.723476 0
M  V30 55 O -8.798413 0.722815 -0.270107 0
M  V30 56 C -7.337828 0.301086 -2.091051 0 CFG=2
M  V30 57 C -7.089840 -1.266980 -2.003842 0
M  V30 58 C -8.296664 -1.944869 -1.515479 0
M  V30 59 O -9.470154 -1.648736 -1.159722 0
M  V30 60 O -7.978204 -3.311485 -1.460330 0
M  V30 61 N -6.082978 0.771269 -2.623350 0
M  V30 62 C -5.776617 0.580446 -3.999912 0
M  V30 63 O -6.625615 -0.043623 -4.725967 0
M  V30 64 C -4.596982 0.986801 -4.776894 0 CFG=2
M  V30 65 C -3.562658 -0.133214 -4.542508 0
M  V30 66 C -2.310672 0.052065 -5.248697 0
M  V30 67 C -2.328043 -0.567150 -6.484207 0
M  V30 68 C -1.221881 -0.533021 -7.339681 0
M  V30 69 C -0.067085 0.123008 -6.980613 0
M  V30 70 O 1.123412 0.265437 -7.678701 0
M  V30 71 C 1.342595 -0.291216 -8.984043 0
M  V30 72 C -0.018670 0.759937 -5.740234 0
M  V30 73 C -1.139616 0.702977 -4.920098 0
M  V30 74 N -4.039829 2.193607 -4.120750 0
M  V30 75 C -3.365494 3.120209 -4.989035 0
M  V30 76 O -3.330489 2.718052 -6.201002 0
M  V30 77 C -2.795196 4.393040 -4.447469 0 CFG=1
M  V30 78 N -3.443776 4.733600 -3.202718 0
M  V30 79 C -3.717715 6.149441 -3.101337 0
M  V30 80 O -3.355792 6.952802 -4.015433 0
M  V30 81 C -4.409849 6.947217 -2.054040 0 CFG=2
M  V30 82 C -3.500249 7.761791 -1.192665 0
M  V30 83 C -2.712831 8.759894 -1.985903 0
M  V30 84 C -1.845934 9.548508 -1.028553 0
M  V30 85 N -1.116265 10.559482 -1.739920 0
M  V30 86 O -1.447304 9.742509 0.145945 0
M  V30 87 N -5.112565 5.939522 -1.229973 0
M  V30 88 C -6.558833 5.970967 -1.287321 0
M  V30 89 C -7.561149 5.122474 -0.614001 0
M  V30 90 O -7.115501 6.844681 -2.022088 0
M  V30 91 C -1.311371 4.251347 -4.111958 0 CFG=1
M  V30 92 C -0.465200 4.063203 -5.352401 0
M  V30 93 O -0.919548 5.498834 -3.581910 0
M  V30 94 C 2.050190 -6.714341 4.249476 0 CFG=1
M  V30 95 C 2.498696 -7.501900 5.428516 0
M  V30 96 O 0.724401 -6.385143 4.218745 0
M  V30 97 P -0.222262 -7.113110 3.071448 0
M  V30 98 O -0.126753 -6.285792 1.787462 0
M  V30 99 O -1.868986 -7.107409 3.508809 0
M  V30 100 O 0.278515 -8.668533 2.653251 0
M  V30 101 C 6.811783 -2.847529 -1.626946 0
M  V30 102 O 8.021634 -2.824881 -1.974306 0
M  V30 103 N 6.153512 -1.655149 -1.243204 0
M  V30 104 C 6.636235 -0.313054 -1.145058 0 CFG=1
M  V30 105 C 8.131527 -0.172695 -0.859835 0
M  V30 106 C 8.533149 -0.723764 0.438461 0
M  V30 107 C 9.051961 -1.889919 0.939902 0
M  V30 108 C 9.294332 -2.092849 2.271184 0
M  V30 109 C 9.039337 -1.136825 3.246965 0
M  V30 110 O 9.302751 -1.393815 4.579634 0
M  V30 111 C 8.508635 0.081841 2.809423 0
M  V30 112 C 8.286781 0.217732 1.444683 0
M  V30 113 C 6.110313 0.660710 -2.085656 0
M  V30 114 O 6.706153 1.768897 -1.979833 0
M  V30 115 N 5.068029 0.517564 -3.042837 0
M  V30 116 C 4.758204 1.679116 -3.877790 0 CFG=1
M  V30 117 C 4.218349 1.327445 -5.216338 0
M  V30 118 C 3.717469 2.501194 -3.146807 0
M  V30 119 O 3.443730 3.471603 -3.913813 0
M  V30 120 N 3.074642 2.384268 -1.880964 0
M  V30 121 C 2.114957 3.375608 -1.490980 0 CFG=1
M  V30 122 C 0.859624 2.776160 -0.939660 0
M  V30 123 C -0.113412 3.852352 -0.568510 0
M  V30 124 N -1.271650 3.211979 -0.009613 0
M  V30 125 O -0.507730 5.040686 -0.462118 0
M  V30 126 C 2.724935 4.269749 -0.409363 0
M  V30 127 N 4.034253 4.114915 0.077305 0
M  V30 128 O 2.176807 5.235066 0.179803 0
M  V30 129 H 5.596188 -2.438685 -3.927865 0
M  V30 130 H 7.299470 -2.683593 -4.631128 0
M  V30 131 H 5.849743 -2.975233 -5.593028 0
M  V30 132 H 6.724186 -5.022576 -5.100034 0
M  V30 133 H 5.152588 -4.838634 -4.332583 0
M  V30 134 H 7.973587 -4.723720 -3.103661 0
M  V30 135 H 5.771681 -6.793020 -3.222610 0
M  V30 136 H 7.513310 -7.012062 -3.430685 0
M  V30 137 H 6.922563 -6.774710 -1.781005 0
M  V30 138 H 7.013324 -4.765788 -0.889188 0
M  V30 139 H 4.247216 -4.251492 -2.159752 0
M  V30 140 H 2.709891 -6.215354 -0.354627 0
M  V30 141 H 1.225327 -4.480735 0.163609 0
M  V30 142 H 2.527033 -3.203175 0.076027 0
M  V30 143 H 2.157628 -4.230120 -1.312496 0
M  V30 144 H 3.613932 -6.586270 1.816174 0
M  V30 145 H 3.950024 -5.730408 4.007554 0
M  V30 146 H 2.133932 -4.586959 6.033892 0
M  V30 147 H 3.615808 -1.921104 6.477621 0
M  V30 148 H 0.584394 -2.042003 5.855855 0
M  V30 149 H 1.429138 -2.840862 7.192343 0
M  V30 150 H 0.300598 -0.562597 7.427994 0
M  V30 151 H 1.890552 -0.912142 4.355967 0
M  V30 152 H 3.631866 0.734188 2.353420 0
M  V30 153 H 2.606175 3.011474 4.230163 0
M  V30 154 H 2.722870 3.047913 2.469785 0
M  V30 155 H 4.051868 5.326418 3.577155 0
M  V30 156 H 7.836074 3.571963 3.480497 0
M  V30 157 H 6.016682 1.629838 3.326260 0
M  V30 158 H 0.830267 1.143501 3.439753 0
M  V30 159 H -0.046231 -1.919920 1.949038 0
M  V30 160 H 0.099212 0.141505 -0.302320 0
M  V30 161 H 0.891997 -1.480745 -0.298096 0
M  V30 162 H -2.127028 -0.858113 -0.226227 0
M  V30 163 H -0.667716 -3.238847 0.647946 0
M  V30 164 H -1.338581 -3.611801 -0.932324 0
M  V30 165 H -2.471475 -3.118182 0.428916 0
M  V30 166 H -2.026762 -1.787486 -2.472720 0
M  V30 167 H -0.209395 -2.053041 -2.234068 0
M  V30 168 H -0.830374 -0.397035 -2.212445 0
M  V30 169 H -0.779144 0.967616 2.113612 0
M  V30 170 H -3.156229 1.670263 2.483460 0
M  V30 171 H -3.279871 1.997282 4.867052 0
M  V30 172 H -1.789925 1.016515 4.698353 0
M  V30 173 H -2.763968 -0.908095 5.486020 0
M  V30 174 H -3.981240 0.286867 6.157259 0
M  V30 175 H -4.408089 -1.726336 4.127069 0
M  V30 176 H -5.561111 -0.594729 4.835650 0
M  V30 177 H -4.931020 1.219896 0.408487 0
M  V30 178 H -5.529997 3.518421 1.099476 0
M  V30 179 H -5.225817 2.763634 2.686118 0
M  V30 180 H -7.751760 3.716470 1.880840 0
M  V30 181 H -7.384894 2.675343 3.305416 0
M  V30 182 H -8.972753 1.802607 1.260215 0
M  V30 183 H -8.029604 0.719358 2.304088 0
M  V30 184 H -8.182342 0.323415 -2.769156 0
M  V30 185 H -6.221700 -1.364232 -1.327362 0
M  V30 186 H -6.788252 -1.551532 -3.020694 0
M  V30 187 H -8.640105 -3.922862 -0.938698 0
M  V30 188 H -5.344948 1.261171 -2.072493 0
M  V30 189 H -4.809154 1.116697 -5.818649 0
M  V30 190 H -4.020818 -1.132633 -4.685125 0
M  V30 191 H -3.329394 -0.040529 -3.441024 0
M  V30 192 H -3.127715 -1.133390 -6.955605 0
M  V30 193 H -1.169106 -0.999679 -8.320533 0
M  V30 194 H 1.768462 -1.331681 -8.909961 0
M  V30 195 H 0.386611 -0.368433 -9.532147 0
M  V30 196 H 2.057124 0.309088 -9.543231 0
M  V30 197 H 0.826042 1.307983 -5.340262 0
M  V30 198 H -1.203301 1.172774 -3.928246 0
M  V30 199 H -4.098551 2.435465 -3.114212 0
M  V30 200 H -2.905822 5.184024 -5.188735 0
M  V30 201 H -3.783853 4.276133 -2.338851 0
M  V30 202 H -5.174639 7.602842 -2.513535 0
M  V30 203 H -4.088222 8.257772 -0.400177 0
M  V30 204 H -2.805361 7.054671 -0.655930 0
M  V30 205 H -2.027608 8.244433 -2.691188 0
M  V30 206 H -3.349625 9.441762 -2.561114 0
M  V30 207 H -0.256523 10.271707 -2.230455 0
M  V30 208 H -0.703915 11.384435 -2.201974 0
M  V30 209 H -4.806285 5.178965 -0.585859 0
M  V30 210 H -7.195886 4.094147 -0.398874 0
M  V30 211 H -8.461625 4.979640 -1.266925 0
M  V30 212 H -7.837617 5.576462 0.361192 0
M  V30 213 H -1.135896 3.487490 -3.337367 0
M  V30 214 H 0.542734 3.682372 -5.097338 0
M  V30 215 H -0.272649 5.082263 -5.791906 0
M  V30 216 H -1.025217 3.438462 -6.062673 0
M  V30 217 H -0.713548 6.079266 -4.341555 0
M  V30 218 H 2.241910 -7.336263 3.316731 0
M  V30 219 H 2.847628 -6.917842 6.294683 0
M  V30 220 H 3.394766 -8.110041 5.111650 0
M  V30 221 H 1.724904 -8.284375 5.691476 0
M  V30 222 H -2.001739 -6.632222 4.354944 0
M  V30 223 H -0.357855 -9.337687 2.992226 0
M  V30 224 H 5.155925 -1.884091 -1.004837 0
M  V30 225 H 6.232483 0.031337 -0.099959 0
M  V30 226 H 8.727958 -0.635825 -1.689318 0
M  V30 227 H 8.356803 0.907211 -0.917142 0
M  V30 228 H 9.284350 -2.635789 0.211856 0
M  V30 229 H 9.695990 -3.075100 2.516450 0
M  V30 230 H 8.930910 -0.774632 5.302313 0
M  V30 231 H 8.331721 0.794425 3.583371 0
M  V30 232 H 7.867685 1.235736 1.297735 0
M  V30 233 H 4.617492 -0.417245 -3.062535 0
M  V30 234 H 5.657873 2.339915 -3.881758 0
M  V30 235 H 3.827401 0.296476 -5.293069 0
M  V30 236 H 5.044954 1.429020 -5.953987 0
M  V30 237 H 3.457381 2.077912 -5.538691 0
M  V30 238 H 3.441539 1.519233 -1.422202 0
M  V30 239 H 1.901916 4.040565 -2.336882 0
M  V30 240 H 1.088363 2.177433 -0.011573 0
M  V30 241 H 0.371444 2.083747 -1.654812 0
M  V30 242 H -2.158633 2.729312 0.309131 0
M  V30 243 H -1.324288 3.125895 1.047281 0
M  V30 244 H 4.868329 3.605265 0.443806 0
M  V30 245 H 4.698542 4.911353 0.218300 0
M  V30 END ATOM
M  V30 BEGIN BOND
M  V30 1 1 1 2
M  V30 2 1 2 3
M  V30 3 1 3 4
M  V30 4 1 3 5
M  V30 5 1 5 6
M  V30 6 1 6 7
M  V30 7 2 7 8
M  V30 8 1 7 9
M  V30 9 1 9 10
M  V30 10 1 9 11
M  V30 11 1 11 12
M  V30 12 2 12 13
M  V30 13 1 12 14
M  V30 14 1 14 15
M  V30 15 1 15 16
M  V30 16 2 16 17
M  V30 17 1 16 18
M  V30 18 1 18 19
M  V30 19 1 19 20
M  V30 20 1 18 21
M  V30 21 1 21 22
M  V30 22 2 22 23
M  V30 23 1 22 24
M  V30 24 1 24 25
M  V30 25 1 25 26
M  V30 26 2 26 27
M  V30 27 1 27 28
M  V30 28 2 28 29
M  V30 29 1 29 30
M  V30 30 1 24 31
M  V30 31 1 31 32
M  V30 32 2 32 33
M  V30 33 1 32 34
M  V30 34 1 34 35
M  V30 35 1 35 36
M  V30 36 1 36 37
M  V30 37 1 36 38
M  V30 38 1 34 39
M  V30 39 1 39 40
M  V30 40 2 40 41
M  V30 41 1 40 42
M  V30 42 1 42 43
M  V30 43 1 43 44
M  V30 44 1 44 45
M  V30 45 1 45 46
M  V30 46 1 46 47
M  V30 47 2 47 48
M  V30 48 1 47 49
M  V30 49 1 49 50
M  V30 50 1 50 51
M  V30 51 1 51 52
M  V30 52 1 52 53
M  V30 53 1 53 54
M  V30 54 2 54 55
M  V30 55 1 54 56
M  V30 56 1 56 57
M  V30 57 1 57 58
M  V30 58 2 58 59
M  V30 59 1 58 60
M  V30 60 1 56 61
M  V30 61 1 61 62
M  V30 62 2 62 63
M  V30 63 1 62 64
M  V30 64 1 64 65
M  V30 65 1 65 66
M  V30 66 2 66 67
M  V30 67 1 67 68
M  V30 68 2 68 69
M  V30 69 1 69 70
M  V30 70 1 70 71
M  V30 71 1 69 72
M  V30 72 2 72 73
M  V30 73 1 64 74
M  V30 74 1 74 75
M  V30 75 2 75 76
M  V30 76 1 75 77
M  V30 77 1 77 78
M  V30 78 1 78 79
M  V30 79 2 79 80
M  V30 80 1 79 81
M  V30 81 1 81 82
M  V30 82 1 82 83
M  V30 83 1 83 84
M  V30 84 1 84 85
M  V30 85 2 84 86
M  V30 86 1 81 87
M  V30 87 1 87 88
M  V30 88 1 88 89
M  V30 89 2 88 90
M  V30 90 1 77 91
M  V30 91 1 91 92
M  V30 92 1 91 93
M  V30 93 1 14 94
M  V30 94 1 94 95
M  V30 95 1 94 96
M  V30 96 1 96 97
M  V30 97 2 97 98
M  V30 98 1 97 99
M  V30 99 1 97 100
M  V30 100 1 5 101
M  V30 101 2 101 102
M  V30 102 1 101 103
M  V30 103 1 103 104
M  V30 104 1 104 105
M  V30 105 1 105 106
M  V30 106 2 106 107
M  V30 107 1 107 108
M  V30 108 2 108 109
M  V30 109 1 109 110
M  V30 110 1 109 111
M  V30 111 2 111 112
M  V30 112 1 104 113
M  V30 113 2 113 114
M  V30 114 1 113 115
M  V30 115 1 115 116
M  V30 116 1 116 117
M  V30 117 1 116 118
M  V30 118 2 118 119
M  V30 119 1 118 120
M  V30 120 1 120 121
M  V30 121 1 121 122
M  V30 122 1 122 123
M  V30 123 1 123 124
M  V30 124 2 123 125
M  V30 125 1 121 126
M  V30 126 1 126 127
M  V30 127 2 126 128
M  V30 128 1 30 26
M  V30 129 1 46 42
M  V30 130 1 53 49
M  V30 131 1 73 66
M  V30 132 1 112 106
M  V30 133 1 1 129
M  V30 134 1 1 130
M  V30 135 1 1 131
M  V30 136 1 2 132
M  V30 137 1 2 133
M  V30 138 1 3 134 CFG=3
M  V30 139 1 4 135
M  V30 140 1 4 136
M  V30 141 1 4 137
M  V30 142 1 5 138 CFG=1
M  V30 143 1 6 139
M  V30 144 1 9 140 CFG=3
M  V30 145 1 10 141
M  V30 146 1 10 142
M  V30 147 1 10 143
M  V30 148 1 11 144
M  V30 149 1 14 145 CFG=3
M  V30 150 1 15 146
M  V30 151 1 18 147 CFG=1
M  V30 152 1 19 148
M  V30 153 1 19 149
M  V30 154 1 20 150
M  V30 155 1 21 151
M  V30 156 1 24 152 CFG=3
M  V30 157 1 25 153
M  V30 158 1 25 154
M  V30 159 1 27 155
M  V30 160 1 29 156
M  V30 161 1 30 157
M  V30 162 1 31 158
M  V30 163 1 34 159 CFG=1
M  V30 164 1 35 160
M  V30 165 1 35 161
M  V30 166 1 36 162
M  V30 167 1 37 163
M  V30 168 1 37 164
M  V30 169 1 37 165
M  V30 170 1 38 166
M  V30 171 1 38 167
M  V30 172 1 38 168
M  V30 173 1 39 169
M  V30 174 1 42 170 CFG=3
M  V30 175 1 43 171
M  V30 176 1 43 172
M  V30 177 1 44 173
M  V30 178 1 44 174
M  V30 179 1 45 175
M  V30 180 1 45 176
M  V30 181 1 49 177 CFG=3
M  V30 182 1 50 178
M  V30 183 1 50 179
M  V30 184 1 51 180
M  V30 185 1 51 181
M  V30 186 1 52 182
M  V30 187 1 52 183
M  V30 188 1 56 184 CFG=3
M  V30 189 1 57 185
M  V30 190 1 57 186
M  V30 191 1 60 187
M  V30 192 1 61 188
M  V30 193 1 64 189 CFG=3
M  V30 194 1 65 190
M  V30 195 1 65 191
M  V30 196 1 67 192
M  V30 197 1 68 193
M  V30 198 1 71 194
M  V30 199 1 71 195
M  V30 200 1 71 196
M  V30 201 1 72 197
M  V30 202 1 73 198
M  V30 203 1 74 199
M  V30 204 1 77 200 CFG=3
M  V30 205 1 78 201
M  V30 206 1 81 202 CFG=3
M  V30 207 1 82 203
M  V30 208 1 82 204
M  V30 209 1 83 205
M  V30 210 1 83 206
M  V30 211 1 85 207
M  V30 212 1 85 208
M  V30 213 1 87 209
M  V30 214 1 89 210
M  V30 215 1 89 211
M  V30 216 1 89 212
M  V30 217 1 91 213 CFG=1
M  V30 218 1 92 214
M  V30 219 1 92 215
M  V30 220 1 92 216
M  V30 221 1 93 217
M  V30 222 1 94 218 CFG=3
M  V30 223 1 95 219
M  V30 224 1 95 220
M  V30 225 1 95 221
M  V30 226 1 99 222
M  V30 227 1 100 223
M  V30 228 1 103 224
M  V30 229 1 104 225 CFG=1
M  V30 230 1 105 226
M  V30 231 1 105 227
M  V30 232 1 107 228
M  V30 233 1 108 229
M  V30 234 1 110 230
M  V30 235 1 111 231
M  V30 236 1 112 232
M  V30 237 1 115 233
M  V30 238 1 116 234 CFG=3
M  V30 239 1 117 235
M  V30 240 1 117 236
M  V30 241 1 117 237
M  V30 242 1 120 238
M  V30 243 1 121 239 CFG=3
M  V30 244 1 122 240
M  V30 245 1 122 241
M  V30 246 1 124 242
M  V30 247 1 124 243
M  V30 248 1 127 244
M  V30 249 1 127 245
M  V30 END BOND
M  V30 END CTAB
M  END
>  <Dataset>  (184) 
ChEMBL_Kinases

>  <Ligand_Instance>  (184) 
nan

>  <PDB_ID>  (184) 
nan

>  <Standardized_SMILES>  (184) 
CC[C@H](C)[C@H](NC(=O)[C@H](C)NC(=O)[C@@H](NC(=O)[C@H](CO)NC(=O)[C@H](Cc1cnc[nH]1)NC(=O)[C@H](CC(C)C)NC(=O)[C@@H]1CCCN1C(=O)[C@@H]1CCCN1C(=O)[C@H](CC(=O)O)NC(=O)[C@H](Cc1ccc(OC)cc1)NC(=O)[C@@H](NC(=O)[C@H](CCC(N)=O)NC(C)=O)[C@@H](C)O)[C@@H](C)OP(=O)(O)O)C(=O)N[C@@H](Cc1ccc(O)cc1)C(=O)N[C@@H](C)C(=O)N[C@@H](CC(N)=O)C(N)=O

>  <Name>  (184) 
nan

>  <Pocket>  (184) 
nan

>  <ATP_Site>  (184) 
nan

>  <Peripheral>  (184) 
nan

>  <Num_H_Atoms_ProtBoundConf>  (184) 
nan

>  <Num_Resolved_Atoms>  (184) 
nan

>  <Num_Not_Resolved_Atoms>  (184) 
nan

$$$$
CHEMBL4130166
     RDKit          3D

  0  0  0  0  0  0  0  0  0  0999 V3000
M  V30 BEGIN CTAB
M  V30 COUNTS 63 68 0 0 0
M  V30 BEGIN ATOM
M  V30 1 N 4.141123 -5.101324 -0.326396 0
M  V30 2 C 3.275647 -4.142645 -0.911691 0
M  V30 3 O 3.071717 -4.892532 -1.892870 0
M  V30 4 C 3.001492 -2.872872 -0.262896 0
M  V30 5 C 3.608574 -2.637449 0.956239 0
M  V30 6 C 3.307295 -1.411198 1.502874 0
M  V30 7 C 2.473237 -0.504551 0.882488 0
M  V30 8 C 2.257400 0.750318 1.594499 0
M  V30 9 C 3.279170 1.484830 2.195719 0
M  V30 10 N 2.788893 2.593734 2.777595 0
M  V30 11 C 1.458403 2.604817 2.570663 0
M  V30 12 N 0.511233 3.482990 2.941055 0
M  V30 13 C -0.781195 3.236326 2.586232 0
M  V30 14 C -1.144222 2.106349 1.855116 0
M  V30 15 C -2.561397 1.962273 1.541396 0
M  V30 16 C -3.216387 3.109231 1.077462 0
M  V30 17 C -4.559358 3.042381 0.762672 0
M  V30 18 C -5.315641 1.885257 0.879565 0
M  V30 19 C -4.640034 0.755630 1.344067 0
M  V30 20 C -3.300113 0.790321 1.666734 0
M  V30 21 O -2.588865 -0.310538 2.131969 0
M  V30 22 C -3.319580 -1.497837 2.263019 0
M  V30 23 C -4.018169 -1.960532 3.363991 0
M  V30 24 C -4.672198 -3.172163 3.264130 0
M  V30 25 C -4.652207 -3.929143 2.114213 0
M  V30 26 C -3.950559 -3.453655 1.024323 0
M  V30 27 C -3.287767 -2.254079 1.084320 0
M  V30 28 C -0.187944 1.217763 1.479933 0
M  V30 29 C 1.114376 1.481647 1.846608 0
M  V30 30 C 1.900814 -0.792949 -0.323696 0
M  V30 31 C 2.161285 -1.998218 -0.920129 0
M  V30 32 C 1.538953 -2.313339 -2.228793 0
M  V30 33 C 2.408048 -1.871989 -3.386014 0
M  V30 34 C 2.066451 -0.418702 -3.627541 0
M  V30 35 C 0.580524 -0.370545 -3.310650 0
M  V30 36 C 0.249668 -1.546566 -2.461367 0
M  V30 37 H 4.974849 -5.688520 -0.414543 0
M  V30 38 H 4.217297 -5.625442 0.576849 0
M  V30 39 H 4.249669 -3.379235 1.396514 0
M  V30 40 H 3.770108 -1.183821 2.473588 0
M  V30 41 H 4.325172 1.270224 2.235867 0
M  V30 42 H 3.291936 3.348594 3.308514 0
M  V30 43 H -1.469209 3.992855 2.926093 0
M  V30 44 H -2.726501 4.066324 0.947106 0
M  V30 45 H -5.080850 3.911958 0.404968 0
M  V30 46 H -6.355298 1.781156 0.649289 0
M  V30 47 H -5.164770 -0.203205 1.466854 0
M  V30 48 H -3.960881 -1.290769 4.192547 0
M  V30 49 H -5.195600 -3.459969 4.174014 0
M  V30 50 H -5.203476 -4.879719 2.132070 0
M  V30 51 H -3.991445 -4.122203 0.155759 0
M  V30 52 H -2.765222 -1.968533 0.173631 0
M  V30 53 H -0.444436 0.350926 0.921818 0
M  V30 54 H 1.281645 -0.020142 -0.702544 0
M  V30 55 H 1.374458 -3.405165 -2.268654 0
M  V30 56 H 3.467296 -2.086434 -3.271069 0
M  V30 57 H 2.062475 -2.417755 -4.287278 0
M  V30 58 H 2.615278 0.261008 -2.957779 0
M  V30 59 H 2.248177 -0.085275 -4.662177 0
M  V30 60 H 0.043569 -0.359107 -4.284813 0
M  V30 61 H 0.397039 0.624027 -2.835131 0
M  V30 62 H -0.482499 -2.187003 -3.000868 0
M  V30 63 H -0.132913 -1.228382 -1.485171 0
M  V30 END ATOM
M  V30 BEGIN BOND
M  V30 1 1 1 2
M  V30 2 2 2 3
M  V30 3 1 2 4
M  V30 4 2 4 5
M  V30 5 1 5 6
M  V30 6 2 6 7
M  V30 7 1 7 8
M  V30 8 2 8 9
M  V30 9 1 9 10
M  V30 10 1 10 11
M  V30 11 2 11 12
M  V30 12 1 12 13
M  V30 13 2 13 14
M  V30 14 1 14 15
M  V30 15 2 15 16
M  V30 16 1 16 17
M  V30 17 2 17 18
M  V30 18 1 18 19
M  V30 19 2 19 20
M  V30 20 1 20 21
M  V30 21 1 21 22
M  V30 22 2 22 23
M  V30 23 1 23 24
M  V30 24 2 24 25
M  V30 25 1 25 26
M  V30 26 2 26 27
M  V30 27 1 14 28
M  V30 28 2 28 29
M  V30 29 1 7 30
M  V30 30 2 30 31
M  V30 31 1 31 32
M  V30 32 1 32 33
M  V30 33 1 33 34
M  V30 34 1 34 35
M  V30 35 1 35 36
M  V30 36 1 31 4
M  V30 37 1 36 32
M  V30 38 1 29 8
M  V30 39 1 29 11
M  V30 40 1 20 15
M  V30 41 1 27 22
M  V30 42 1 1 37
M  V30 43 1 1 38
M  V30 44 1 5 39
M  V30 45 1 6 40
M  V30 46 1 9 41
M  V30 47 1 10 42
M  V30 48 1 13 43
M  V30 49 1 16 44
M  V30 50 1 17 45
M  V30 51 1 18 46
M  V30 52 1 19 47
M  V30 53 1 23 48
M  V30 54 1 24 49
M  V30 55 1 25 50
M  V30 56 1 26 51
M  V30 57 1 27 52
M  V30 58 1 28 53
M  V30 59 1 30 54
M  V30 60 1 32 55
M  V30 61 1 33 56
M  V30 62 1 33 57
M  V30 63 1 34 58
M  V30 64 1 34 59
M  V30 65 1 35 60
M  V30 66 1 35 61
M  V30 67 1 36 62
M  V30 68 1 36 63
M  V30 END BOND
M  V30 END CTAB
M  END
>  <Dataset>  (185) 
ChEMBL_Kinases

>  <Ligand_Instance>  (185) 
nan

>  <PDB_ID>  (185) 
nan

>  <Standardized_SMILES>  (185) 
NC(=O)c1ccc(-c2c[nH]c3ncc(-c4ccccc4Oc4ccccc4)cc23)cc1C1CCCC1

>  <Name>  (185) 
nan

>  <Pocket>  (185) 
nan

>  <ATP_Site>  (185) 
nan

>  <Peripheral>  (185) 
nan

>  <Num_H_Atoms_ProtBoundConf>  (185) 
nan

>  <Num_Resolved_Atoms>  (185) 
nan

>  <Num_Not_Resolved_Atoms>  (185) 
nan

$$$$
CHEMBL4790081
     RDKit          3D

  0  0  0  0  0  0  0  0  0  0999 V3000
M  V30 BEGIN CTAB
M  V30 COUNTS 48 51 0 0 0
M  V30 BEGIN ATOM
M  V30 1 C 1.344654 -2.721341 5.700550 0
M  V30 2 O 2.504058 -2.856774 4.893963 0
M  V30 3 C 2.628376 -2.114055 3.732940 0
M  V30 4 C 1.600763 -1.234724 3.370616 0
M  V30 5 C 1.835436 -0.551815 2.199411 0
M  V30 6 C 2.931109 -0.628478 1.364133 0
M  V30 7 C 2.980224 0.192550 0.156609 0
M  V30 8 C 4.106831 0.897868 -0.222916 0
M  V30 9 N 4.078292 1.637947 -1.355528 0
M  V30 10 C 2.996470 1.717813 -2.131847 0
M  V30 11 N 2.620899 2.316875 -3.273438 0
M  V30 12 N 1.369643 2.036395 -3.614822 0
M  V30 13 C 0.855598 1.217013 -2.683376 0
M  V30 14 C -0.492022 0.760125 -2.831981 0
M  V30 15 O -1.100519 1.000873 -3.922841 0
M  V30 16 C -1.443913 0.036006 -2.016236 0
M  V30 17 C -2.166128 -1.066567 -2.480426 0
M  V30 18 C -3.064180 -1.786578 -1.727299 0
M  V30 19 C -3.283116 -1.411401 -0.418837 0
M  V30 20 C -2.620833 -0.342659 0.123789 0
M  V30 21 N -2.837431 0.054596 1.471179 0
M  V30 22 S -3.954980 -0.824391 2.440058 0
M  V30 23 C -5.597992 -0.774160 1.800222 0
M  V30 24 O -3.489708 -2.269459 2.531375 0
M  V30 25 O -3.909930 -0.266232 3.834003 0
M  V30 26 C -1.745955 0.316160 -0.696894 0
M  V30 27 F -1.102665 1.384764 -0.123034 0
M  V30 28 C 1.863689 1.021586 -1.768925 0
M  V30 29 C 1.853757 0.263627 -0.633655 0
M  V30 30 C 3.920241 -1.523372 1.781692 0
M  V30 31 Cl 5.331529 -1.653242 0.749860 0
M  V30 32 C 3.753714 -2.243306 2.946743 0
M  V30 33 H 1.285466 -1.636758 5.977011 0
M  V30 34 H 0.451624 -2.974536 5.079405 0
M  V30 35 H 1.421581 -3.319865 6.613362 0
M  V30 36 H 0.713299 -1.095989 3.938391 0
M  V30 37 H 1.041559 0.139658 1.902271 0
M  V30 38 H 4.991968 0.848767 0.388016 0
M  V30 39 H 3.247718 2.942285 -3.839694 0
M  V30 40 H -2.018444 -1.395313 -3.518416 0
M  V30 41 H -3.579079 -2.625376 -2.165445 0
M  V30 42 H -3.985501 -1.978100 0.163322 0
M  V30 43 H -2.309188 0.878219 1.846983 0
M  V30 44 H -6.239883 -0.219102 2.516328 0
M  V30 45 H -5.994425 -1.803728 1.718124 0
M  V30 46 H -5.600287 -0.296900 0.797088 0
M  V30 47 H 0.992263 -0.283400 -0.347812 0
M  V30 48 H 4.559442 -2.932718 3.230705 0
M  V30 END ATOM
M  V30 BEGIN BOND
M  V30 1 1 1 2
M  V30 2 1 2 3
M  V30 3 2 3 4
M  V30 4 1 4 5
M  V30 5 2 5 6
M  V30 6 1 6 7
M  V30 7 2 7 8
M  V30 8 1 8 9
M  V30 9 2 9 10
M  V30 10 1 10 11
M  V30 11 1 11 12
M  V30 12 2 12 13
M  V30 13 1 13 14
M  V30 14 2 14 15
M  V30 15 1 14 16
M  V30 16 2 16 17
M  V30 17 1 17 18
M  V30 18 2 18 19
M  V30 19 1 19 20
M  V30 20 1 20 21
M  V30 21 1 21 22
M  V30 22 1 22 23
M  V30 23 2 22 24
M  V30 24 2 22 25
M  V30 25 2 20 26
M  V30 26 1 26 27
M  V30 27 1 13 28
M  V30 28 2 28 29
M  V30 29 1 6 30
M  V30 30 1 30 31
M  V30 31 2 30 32
M  V30 32 1 32 3
M  V30 33 1 29 7
M  V30 34 1 28 10
M  V30 35 1 26 16
M  V30 36 1 1 33
M  V30 37 1 1 34
M  V30 38 1 1 35
M  V30 39 1 4 36
M  V30 40 1 5 37
M  V30 41 1 8 38
M  V30 42 1 11 39
M  V30 43 1 17 40
M  V30 44 1 18 41
M  V30 45 1 19 42
M  V30 46 1 21 43
M  V30 47 1 23 44
M  V30 48 1 23 45
M  V30 49 1 23 46
M  V30 50 1 29 47
M  V30 51 1 32 48
M  V30 END BOND
M  V30 END CTAB
M  END
>  <Dataset>  (186) 
ChEMBL_Kinases

>  <Ligand_Instance>  (186) 
nan

>  <PDB_ID>  (186) 
nan

>  <Standardized_SMILES>  (186) 
COc1ccc(-c2cnc3[nH]nc(C(=O)c4cccc(NS(C)(=O)=O)c4F)c3c2)c(Cl)c1

>  <Name>  (186) 
nan

>  <Pocket>  (186) 
nan

>  <ATP_Site>  (186) 
nan

>  <Peripheral>  (186) 
nan

>  <Num_H_Atoms_ProtBoundConf>  (186) 
nan

>  <Num_Resolved_Atoms>  (186) 
nan

>  <Num_Not_Resolved_Atoms>  (186) 
nan

$$$$
CHEMBL4789820
     RDKit          3D

  0  0  0  0  0  0  0  0  0  0999 V3000
M  V30 BEGIN CTAB
M  V30 COUNTS 50 53 0 0 0
M  V30 BEGIN ATOM
M  V30 1 C 0.832933 -4.990536 -2.465119 0
M  V30 2 N 1.333470 -4.205591 -1.347795 0
M  V30 3 C 0.984771 -2.931852 -1.064547 0
M  V30 4 C 1.630889 -2.490119 0.044785 0
M  V30 5 C 1.699037 -1.282434 0.850909 0
M  V30 6 C 2.960516 -0.775512 1.183448 0
M  V30 7 N 3.152666 0.342691 1.915363 0
M  V30 8 C 2.088592 1.058689 2.383248 0
M  V30 9 N 2.242689 2.241948 3.157731 0
M  V30 10 C 2.281614 3.252350 2.140188 0
M  V30 11 C 1.226646 3.934136 1.616667 0
M  V30 12 N 1.419618 4.866095 0.654308 0
M  V30 13 C 2.676666 5.106563 0.223795 0
M  V30 14 C 2.968584 6.064781 -0.779912 0
M  V30 15 N 3.196922 6.854371 -1.612588 0
M  V30 16 C 3.742909 4.414989 0.755475 0
M  V30 17 N 3.532624 3.495181 1.708283 0
M  V30 18 C 0.850041 0.551158 2.050583 0
M  V30 19 C 0.611772 -0.585217 1.307021 0
M  V30 20 N -0.700911 -1.048344 1.017238 0
M  V30 21 C -1.802849 -0.262440 1.526911 0
M  V30 22 C -3.166797 -0.805988 1.172241 0 CFG=2
M  V30 23 C -3.474804 -2.021824 1.993170 0
M  V30 24 N -3.244752 -3.263680 1.324808 0
M  V30 25 C -3.830895 -3.249530 0.013300 0
M  V30 26 C -3.451222 -2.060296 -0.799797 0
M  V30 27 O -3.383288 -0.875968 -0.158491 0
M  V30 28 C 2.416761 -3.581194 0.443790 0
M  V30 29 N 2.193090 -4.579212 -0.432999 0
M  V30 30 H 0.353123 -4.294358 -3.199756 0
M  V30 31 H 1.649442 -5.477952 -3.035256 0
M  V30 32 H 0.073099 -5.709105 -2.125047 0
M  V30 33 H 0.304635 -2.269305 -1.581614 0
M  V30 34 H 3.840494 -1.297041 0.842712 0
M  V30 35 H 2.306146 2.303103 4.204302 0
M  V30 36 H 0.268790 3.662947 2.032835 0
M  V30 37 H 4.763297 4.611612 0.404554 0
M  V30 38 H -0.011944 1.107268 2.413946 0
M  V30 39 H -0.835743 -1.919664 0.465356 0
M  V30 40 H -1.701895 0.800031 1.218988 0
M  V30 41 H -1.713262 -0.255182 2.646523 0
M  V30 42 H -3.882092 -0.007423 1.576383 0
M  V30 43 H -4.520004 -2.016478 2.383491 0
M  V30 44 H -2.831613 -1.990609 2.900421 0
M  V30 45 H -2.282303 -3.606130 1.359303 0
M  V30 46 H -3.459862 -4.188341 -0.494208 0
M  V30 47 H -4.940465 -3.297317 0.038698 0
M  V30 48 H -2.436765 -2.250830 -1.259890 0
M  V30 49 H -4.145470 -1.925890 -1.686178 0
M  V30 50 H 3.116622 -3.793990 1.241687 0
M  V30 END ATOM
M  V30 BEGIN BOND
M  V30 1 1 1 2
M  V30 2 1 2 3
M  V30 3 2 3 4
M  V30 4 1 4 5
M  V30 5 2 5 6
M  V30 6 1 6 7
M  V30 7 2 7 8
M  V30 8 1 8 9
M  V30 9 1 9 10
M  V30 10 2 10 11
M  V30 11 1 11 12
M  V30 12 2 12 13
M  V30 13 1 13 14
M  V30 14 3 14 15
M  V30 15 1 13 16
M  V30 16 2 16 17
M  V30 17 1 8 18
M  V30 18 2 18 19
M  V30 19 1 19 20
M  V30 20 1 20 21
M  V30 21 1 21 22
M  V30 22 1 22 23
M  V30 23 1 23 24
M  V30 24 1 24 25
M  V30 25 1 25 26
M  V30 26 1 26 27
M  V30 27 1 4 28
M  V30 28 2 28 29
M  V30 29 1 29 2
M  V30 30 1 19 5
M  V30 31 1 27 22
M  V30 32 1 17 10
M  V30 33 1 1 30
M  V30 34 1 1 31
M  V30 35 1 1 32
M  V30 36 1 3 33
M  V30 37 1 6 34
M  V30 38 1 9 35
M  V30 39 1 11 36
M  V30 40 1 16 37
M  V30 41 1 18 38
M  V30 42 1 20 39
M  V30 43 1 21 40
M  V30 44 1 21 41
M  V30 45 1 22 42 CFG=1
M  V30 46 1 23 43
M  V30 47 1 23 44
M  V30 48 1 24 45
M  V30 49 1 25 46
M  V30 50 1 25 47
M  V30 51 1 26 48
M  V30 52 1 26 49
M  V30 53 1 28 50
M  V30 END BOND
M  V30 END CTAB
M  END
>  <Dataset>  (187) 
ChEMBL_Kinases

>  <Ligand_Instance>  (187) 
nan

>  <PDB_ID>  (187) 
nan

>  <Standardized_SMILES>  (187) 
Cn1cc(-c2cnc(Nc3cnc(C#N)cn3)cc2NC[C@@H]2CNCCO2)cn1

>  <Name>  (187) 
nan

>  <Pocket>  (187) 
nan

>  <ATP_Site>  (187) 
nan

>  <Peripheral>  (187) 
nan

>  <Num_H_Atoms_ProtBoundConf>  (187) 
nan

>  <Num_Resolved_Atoms>  (187) 
nan

>  <Num_Not_Resolved_Atoms>  (187) 
nan

$$$$
CHEMBL4790170
     RDKit          3D

  0  0  0  0  0  0  0  0  0  0999 V3000
M  V30 BEGIN CTAB
M  V30 COUNTS 76 80 0 0 0
M  V30 BEGIN ATOM
M  V30 1 C 1.838246 -2.332165 3.346426 0
M  V30 2 N 2.550570 -1.895906 2.163309 0
M  V30 3 C 2.610114 -2.973894 1.198441 0
M  V30 4 C 3.159519 -2.399654 -0.118322 0
M  V30 5 N 4.130826 -1.452002 0.196013 0
M  V30 6 C 3.953558 -0.101813 -0.226408 0
M  V30 7 C 4.027416 0.150378 -1.653861 0
M  V30 8 C 3.817510 1.475714 -2.252255 0
M  V30 9 C 4.622338 2.647219 -1.944420 0
M  V30 10 C 4.561140 3.218643 -0.558625 0
M  V30 11 O 3.394691 3.642802 -0.132129 0
M  V30 12 C 2.218034 3.846448 0.243225 0
M  V30 13 C 1.916015 5.156640 0.650467 0
M  V30 14 C 0.642684 5.543422 1.096937 0
M  V30 15 C -0.317021 4.552693 1.116257 0
M  V30 16 C -0.133631 3.239818 0.740973 0
M  V30 17 N -1.150758 2.252633 0.767730 0
M  V30 18 C -0.829783 0.910113 0.445474 0
M  V30 19 O 0.136583 0.193898 0.133150 0
M  V30 20 S -2.330431 -0.060054 0.520201 0
M  V30 21 C -3.368390 1.327833 1.049732 0
M  V30 22 C -4.626261 1.083281 1.292332 0
M  V30 23 C -5.100857 -0.304630 1.120128 0
M  V30 24 C -4.309164 -1.274801 1.750481 0
M  V30 25 C -4.600808 -2.641869 1.655023 0
M  V30 26 C -5.709909 -3.030619 0.912637 0
M  V30 27 O -6.010260 -4.410590 0.810931 0
M  V30 28 C -5.490806 -5.125807 -0.279316 0
M  V30 29 C -5.652552 -6.511238 -0.443592 0
M  V30 30 C -5.095091 -7.095664 -1.559352 0
M  V30 31 C -4.392498 -6.448482 -2.530552 0
M  V30 32 C -3.830817 -7.102190 -3.677895 0
M  V30 33 N -3.389403 -7.641298 -4.594919 0
M  V30 34 C -4.225479 -5.082297 -2.380930 0
M  V30 35 C -4.771536 -4.475676 -1.277575 0
M  V30 36 C -6.496409 -2.084359 0.290185 0
M  V30 37 C -6.195743 -0.743391 0.393059 0
M  V30 38 C -2.510854 2.474420 1.091446 0
M  V30 39 O -3.096607 3.535619 1.415143 0
M  V30 40 C 1.148892 2.977738 0.322683 0
M  V30 41 C 4.843358 -1.591638 1.406316 0
M  V30 42 C 3.857890 -1.416677 2.550309 0
M  V30 43 H 2.280227 -1.887676 4.277436 0
M  V30 44 H 0.774534 -1.982573 3.328185 0
M  V30 45 H 1.846335 -3.415980 3.509453 0
M  V30 46 H 1.548756 -3.309105 1.042686 0
M  V30 47 H 3.238031 -3.775715 1.602840 0
M  V30 48 H 2.296545 -2.092216 -0.693718 0
M  V30 49 H 3.625194 -3.276638 -0.618641 0
M  V30 50 H 4.817351 0.436032 0.267746 0
M  V30 51 H 3.037510 0.297615 0.222876 0
M  V30 52 H 3.393185 -0.554484 -2.274842 0
M  V30 53 H 5.079113 -0.175550 -1.987214 0
M  V30 54 H 2.718739 1.809329 -2.115713 0
M  V30 55 H 3.795294 1.291215 -3.393926 0
M  V30 56 H 4.257961 3.489674 -2.618083 0
M  V30 57 H 5.703103 2.571801 -2.225538 0
M  V30 58 H 5.262540 4.166964 -0.597748 0
M  V30 59 H 5.117734 2.618830 0.205991 0
M  V30 60 H 2.667086 5.965952 0.644465 0
M  V30 61 H 0.441232 6.561338 1.402761 0
M  V30 62 H -1.265644 4.893946 1.462851 0
M  V30 63 H -5.217368 1.958731 1.603110 0
M  V30 64 H -3.434595 -1.153677 2.379771 0
M  V30 65 H -4.044457 -3.436119 2.107396 0
M  V30 66 H -6.202867 -7.000634 0.324616 0
M  V30 67 H -5.226414 -8.182428 -1.677440 0
M  V30 68 H -3.671247 -4.496257 -3.123842 0
M  V30 69 H -4.647090 -3.389307 -1.151457 0
M  V30 70 H -7.360360 -2.364963 -0.288181 0
M  V30 71 H -6.757632 0.060419 -0.061847 0
M  V30 72 H 1.450238 2.007894 -0.007120 0
M  V30 73 H 5.271202 -2.613069 1.484641 0
M  V30 74 H 5.680719 -0.886204 1.448909 0
M  V30 75 H 4.204317 -1.849735 3.488148 0
M  V30 76 H 3.759018 -0.299839 2.670028 0
M  V30 END ATOM
M  V30 BEGIN BOND
M  V30 1 1 1 2
M  V30 2 1 2 3
M  V30 3 1 3 4
M  V30 4 1 4 5
M  V30 5 1 5 6
M  V30 6 1 6 7
M  V30 7 1 7 8
M  V30 8 1 8 9
M  V30 9 1 9 10
M  V30 10 1 10 11
M  V30 11 1 11 12
M  V30 12 2 12 13
M  V30 13 1 13 14
M  V30 14 2 14 15
M  V30 15 1 15 16
M  V30 16 1 16 17
M  V30 17 1 17 18
M  V30 18 2 18 19
M  V30 19 1 18 20
M  V30 20 1 20 21
M  V30 21 2 21 22
M  V30 22 1 22 23
M  V30 23 2 23 24
M  V30 24 1 24 25
M  V30 25 2 25 26
M  V30 26 1 26 27
M  V30 27 1 27 28
M  V30 28 2 28 29
M  V30 29 1 29 30
M  V30 30 2 30 31
M  V30 31 1 31 32
M  V30 32 3 32 33
M  V30 33 1 31 34
M  V30 34 2 34 35
M  V30 35 1 26 36
M  V30 36 2 36 37
M  V30 37 1 21 38
M  V30 38 2 38 39
M  V30 39 2 16 40
M  V30 40 1 5 41
M  V30 41 1 41 42
M  V30 42 1 42 2
M  V30 43 1 40 12
M  V30 44 1 38 17
M  V30 45 1 37 23
M  V30 46 1 35 28
M  V30 47 1 1 43
M  V30 48 1 1 44
M  V30 49 1 1 45
M  V30 50 1 3 46
M  V30 51 1 3 47
M  V30 52 1 4 48
M  V30 53 1 4 49
M  V30 54 1 6 50
M  V30 55 1 6 51
M  V30 56 1 7 52
M  V30 57 1 7 53
M  V30 58 1 8 54
M  V30 59 1 8 55
M  V30 60 1 9 56
M  V30 61 1 9 57
M  V30 62 1 10 58
M  V30 63 1 10 59
M  V30 64 1 13 60
M  V30 65 1 14 61
M  V30 66 1 15 62
M  V30 67 1 22 63
M  V30 68 1 24 64
M  V30 69 1 25 65
M  V30 70 1 29 66
M  V30 71 1 30 67
M  V30 72 1 34 68
M  V30 73 1 35 69
M  V30 74 1 36 70
M  V30 75 1 37 71
M  V30 76 1 40 72
M  V30 77 1 41 73
M  V30 78 1 41 74
M  V30 79 1 42 75
M  V30 80 1 42 76
M  V30 END BOND
M  V30 END CTAB
M  END
>  <Dataset>  (188) 
ChEMBL_Kinases

>  <Ligand_Instance>  (188) 
nan

>  <PDB_ID>  (188) 
nan

>  <Standardized_SMILES>  (188) 
CN1CCN(CCCCCOc2cccc(N3C(=O)S/C(=C\c4ccc(Oc5ccc(C#N)cc5)cc4)C3=O)c2)CC1

>  <Name>  (188) 
nan

>  <Pocket>  (188) 
nan

>  <ATP_Site>  (188) 
nan

>  <Peripheral>  (188) 
nan

>  <Num_H_Atoms_ProtBoundConf>  (188) 
nan

>  <Num_Resolved_Atoms>  (188) 
nan

>  <Num_Not_Resolved_Atoms>  (188) 
nan

$$$$
CHEMBL4130094
     RDKit          3D

  0  0  0  0  0  0  0  0  0  0999 V3000
M  V30 BEGIN CTAB
M  V30 COUNTS 241 245 0 0 0
M  V30 BEGIN ATOM
M  V30 1 C -0.219144 -4.834447 -1.168993 0
M  V30 2 C 0.619307 -3.686383 -0.622666 0
M  V30 3 C 0.057557 -2.346154 -1.030777 0 CFG=2
M  V30 4 C 0.078586 -2.239461 -2.516410 0
M  V30 5 C 0.882918 -1.251607 -0.398963 0 CFG=2
M  V30 6 N 0.375555 0.056346 -0.801875 0
M  V30 7 C -0.102468 1.058385 0.071972 0
M  V30 8 O -0.272377 1.269508 1.287564 0
M  V30 9 C -0.640075 2.384799 -0.292702 0 CFG=2
M  V30 10 C -0.015337 3.011103 -1.490478 0
M  V30 11 N -0.859537 3.279637 0.799839 0
M  V30 12 C -1.581049 3.889046 1.806152 0
M  V30 13 O -2.777899 3.380946 1.846146 0
M  V30 14 C -1.514507 4.878572 2.826005 0 CFG=1
M  V30 15 N -0.296242 5.657902 2.950517 0
M  V30 16 C 0.236697 6.253131 4.163944 0
M  V30 17 O -0.328621 6.113685 5.275339 0
M  V30 18 C 1.453935 7.036990 4.051921 0 CFG=2
M  V30 19 C 0.872663 8.560829 3.998382 0
M  V30 20 O 1.943248 9.403600 3.939036 0
M  V30 21 N 2.164494 6.939381 2.835809 0
M  V30 22 C 2.642114 7.459483 1.642368 0
M  V30 23 O 2.313930 8.641917 1.429271 0
M  V30 24 C 3.457302 6.996224 0.514224 0 CFG=2
M  V30 25 C 2.655767 6.932120 -0.783880 0
M  V30 26 C 2.066426 8.205383 -1.212317 0
M  V30 27 C 2.422852 9.268971 -2.017777 0
M  V30 28 N 1.406052 10.177896 -2.065824 0
M  V30 29 C 0.397112 9.681361 -1.278457 0
M  V30 30 N 0.833284 8.532534 -0.806130 0
M  V30 31 N 4.038622 5.708197 0.780698 0
M  V30 32 C 3.692706 4.473115 1.250503 0
M  V30 33 O 2.629897 3.993619 1.659147 0
M  V30 34 C 4.056053 3.080029 1.597835 0 CFG=2
M  V30 35 C 3.993563 2.260256 0.358205 0
M  V30 36 C 4.841708 2.573311 -0.793592 0
M  V30 37 C 6.328026 2.510375 -0.521598 0
M  V30 38 C 4.473323 3.800991 -1.596563 0
M  V30 39 N 2.922088 2.552802 2.411631 0
M  V30 40 C 2.922551 2.718741 3.836933 0
M  V30 41 O 3.988134 3.367690 4.178826 0
M  V30 42 C 2.053787 2.355021 4.936451 0 CFG=2
M  V30 43 C 2.861794 2.112550 6.209369 0
M  V30 44 C 3.103872 0.599641 6.196430 0
M  V30 45 C 2.455276 0.208587 4.885172 0
M  V30 46 N 1.306796 1.127244 4.841906 0
M  V30 47 C -0.069369 0.679814 4.751905 0
M  V30 48 O -0.741274 1.772883 4.730967 0
M  V30 49 C -0.348221 -0.766619 4.711818 0 CFG=2
M  V30 50 C 0.002671 -1.398106 3.386704 0
M  V30 51 C -0.530987 -2.813004 3.599195 0
M  V30 52 C -1.884690 -2.498127 4.270615 0
M  V30 53 N -1.719303 -1.138084 4.831747 0
M  V30 54 C -2.937910 -0.556117 5.280989 0
M  V30 55 O -2.619521 0.494964 5.911365 0
M  V30 56 C -4.429570 -0.747020 5.264725 0 CFG=2
M  V30 57 C -4.861947 -0.998440 6.660024 0
M  V30 58 C -6.340655 -1.213051 6.826801 0
M  V30 59 O -7.384705 -1.286322 6.149361 0
M  V30 60 O -6.623756 -1.385662 8.174538 0
M  V30 61 N -4.888221 -1.690006 4.293383 0
M  V30 62 C -5.455063 -1.367708 3.056771 0
M  V30 63 O -5.484915 -0.055882 3.012895 0
M  V30 64 C -6.050395 -1.535863 1.747643 0 CFG=2
M  V30 65 C -7.475155 -1.040128 1.691491 0
M  V30 66 C -7.664305 0.373354 2.000989 0
M  V30 67 C -7.525344 1.300428 0.968034 0
M  V30 68 C -7.704552 2.650487 1.124682 0
M  V30 69 C -8.048694 3.192575 2.372433 0
M  V30 70 Cl -8.311065 4.889766 2.681726 0
M  V30 71 C -8.193355 2.304460 3.417793 0
M  V30 72 C -8.000579 0.955849 3.204776 0
M  V30 73 N -6.107882 -2.925223 1.273176 0
M  V30 74 C -5.667155 -3.167888 -0.038586 0
M  V30 75 O -5.216329 -2.335263 -0.894203 0
M  V30 76 C -5.440595 -4.184141 -1.117871 0 CFG=1
M  V30 77 N -4.879398 -3.531396 -2.285151 0
M  V30 78 C -5.430475 -3.563241 -3.617296 0
M  V30 79 O -6.476740 -4.208790 -3.791700 0
M  V30 80 C -4.740697 -2.836829 -4.722947 0 CFG=2
M  V30 81 C -4.694576 -1.366383 -4.499129 0
M  V30 82 C -3.987700 -0.728826 -5.688463 0
M  V30 83 C -2.606137 -1.218097 -5.846573 0
M  V30 84 N -1.618463 -0.832873 -6.822768 0
M  V30 85 O -1.803126 -2.023389 -5.333478 0
M  V30 86 N -5.472541 -3.120811 -5.965985 0
M  V30 87 C -4.860950 -3.754801 -7.071569 0
M  V30 88 C -5.585166 -4.053437 -8.351136 0
M  V30 89 O -3.626503 -4.089316 -6.984447 0
M  V30 90 C -4.522403 -5.246951 -0.551458 0 CFG=1
M  V30 91 C -4.328636 -6.421814 -1.484092 0
M  V30 92 O -3.316155 -4.668104 -0.185875 0
M  V30 93 C -2.658591 5.910827 2.535619 0 CFG=1
M  V30 94 C -2.767536 6.924161 3.626036 0
M  V30 95 O -2.399977 6.586912 1.356916 0
M  V30 96 P -3.691402 6.363037 0.299419 0
M  V30 97 O -4.800609 5.529423 0.917992 0
M  V30 98 O -4.341125 7.850645 -0.199268 0
M  V30 99 O -3.189137 5.562674 -1.112166 0
M  V30 100 C 2.294540 -1.430576 -0.642627 0
M  V30 101 O 2.005365 -0.293254 -1.160815 0
M  V30 102 N 3.521508 -2.134911 -0.569156 0
M  V30 103 C 4.741257 -1.643033 -1.117393 0 CFG=1
M  V30 104 C 5.849442 -1.816394 -0.096458 0
M  V30 105 C 6.023662 -3.261727 0.242623 0
M  V30 106 C 6.880304 -4.075582 -0.494532 0
M  V30 107 C 7.033886 -5.445502 -0.171671 0
M  V30 108 C 6.319382 -5.954209 0.882019 0
M  V30 109 O 6.474561 -7.321516 1.192991 0
M  V30 110 C 5.467467 -5.136504 1.611934 0
M  V30 111 C 5.319502 -3.790932 1.291903 0
M  V30 112 C 5.138473 -2.279017 -2.416037 0
M  V30 113 O 6.170625 -1.590394 -2.766917 0
M  V30 114 N 4.689160 -3.351128 -3.270247 0
M  V30 115 C 5.483835 -3.493081 -4.482932 0 CFG=1
M  V30 116 C 6.528210 -4.602423 -4.273176 0
M  V30 117 C 4.655243 -3.772212 -5.656549 0
M  V30 118 O 5.298130 -3.695784 -6.759387 0
M  V30 119 N 3.284818 -4.103482 -5.679249 0
M  V30 120 C 2.549607 -4.352273 -6.907035 0 CFG=1
M  V30 121 C 2.715591 -5.835963 -7.226943 0
M  V30 122 C 2.021676 -6.253632 -8.442017 0
M  V30 123 N 2.777152 -6.212615 -9.645526 0
M  V30 124 O 1.117035 -6.656107 -9.176887 0
M  V30 125 C 1.159950 -3.945608 -6.726412 0
M  V30 126 N 0.012302 -3.991763 -7.523099 0
M  V30 127 O 1.141732 -3.464086 -5.571245 0
M  V30 128 H -0.685615 -5.339075 -0.281151 0
M  V30 129 H 0.450021 -5.605824 -1.604075 0
M  V30 130 H -0.951750 -4.545322 -1.919940 0
M  V30 131 H 0.868769 -3.807965 0.421500 0
M  V30 132 H 1.575533 -3.767109 -1.245946 0
M  V30 133 H -1.000573 -2.248128 -0.624234 0
M  V30 134 H -0.091010 -1.204880 -2.905141 0
M  V30 135 H -0.642671 -2.871718 -3.028651 0
M  V30 136 H 1.103549 -2.521600 -2.876107 0
M  V30 137 H 0.704063 -1.296253 0.692035 0
M  V30 138 H 0.294540 0.430389 -1.754552 0
M  V30 139 H -1.714347 2.119129 -0.633141 0
M  V30 140 H 1.055872 3.197278 -1.399245 0
M  V30 141 H -0.545411 3.991683 -1.692667 0
M  V30 142 H -0.189615 2.374425 -2.378156 0
M  V30 143 H 0.104263 3.743012 0.893047 0
M  V30 144 H -1.800407 4.509098 3.817673 0
M  V30 145 H 0.216293 5.784804 2.069415 0
M  V30 146 H 2.043690 7.169451 4.959101 0
M  V30 147 H 0.161345 8.598202 3.179891 0
M  V30 148 H 0.348917 8.625518 4.958937 0
M  V30 149 H 2.789416 9.004020 4.268325 0
M  V30 150 H 2.448045 5.976971 3.060431 0
M  V30 151 H 4.335842 7.689724 0.374068 0
M  V30 152 H 3.376054 6.532677 -1.568571 0
M  V30 153 H 1.889012 6.134866 -0.663959 0
M  V30 154 H 3.413351 9.265214 -2.500368 0
M  V30 155 H -0.502276 10.253687 -1.185049 0
M  V30 156 H 0.136316 8.038081 -0.170806 0
M  V30 157 H 5.076846 5.539142 0.611385 0
M  V30 158 H 4.978347 3.049461 2.189466 0
M  V30 159 H 2.911949 2.368359 -0.004338 0
M  V30 160 H 4.171009 1.198906 0.652543 0
M  V30 161 H 4.676162 1.728255 -1.541844 0
M  V30 162 H 6.576774 1.545518 -0.056457 0
M  V30 163 H 6.738026 3.356413 0.018152 0
M  V30 164 H 6.795860 2.487572 -1.554296 0
M  V30 165 H 3.461244 4.172276 -1.426851 0
M  V30 166 H 5.281652 4.581801 -1.508131 0
M  V30 167 H 4.499272 3.588382 -2.715592 0
M  V30 168 H 2.074939 2.046779 2.145444 0
M  V30 169 H 1.356862 3.196355 5.227946 0
M  V30 170 H 3.859318 2.596441 6.156066 0
M  V30 171 H 2.305408 2.402999 7.122568 0
M  V30 172 H 4.162745 0.363148 6.255583 0
M  V30 173 H 2.539155 0.088882 6.994883 0
M  V30 174 H 2.181499 -0.834956 4.977555 0
M  V30 175 H 3.119631 0.346090 4.020311 0
M  V30 176 H 0.224306 -1.271515 5.510120 0
M  V30 177 H 1.023171 -1.356771 3.067429 0
M  V30 178 H -0.691194 -0.999212 2.601318 0
M  V30 179 H -0.802628 -3.317067 2.639420 0
M  V30 180 H 0.119477 -3.441915 4.223544 0
M  V30 181 H -2.732010 -2.628800 3.626267 0
M  V30 182 H -1.895773 -3.152942 5.206140 0
M  V30 183 H -4.821906 0.252726 4.990301 0
M  V30 184 H -4.665551 -0.057038 7.240674 0
M  V30 185 H -4.286431 -1.780705 7.186113 0
M  V30 186 H -7.550971 -1.479432 8.567703 0
M  V30 187 H -4.970851 -2.756035 4.178908 0
M  V30 188 H -5.523724 -1.000235 0.916817 0
M  V30 189 H -8.147876 -1.618202 2.400646 0
M  V30 190 H -7.930142 -1.267913 0.680188 0
M  V30 191 H -7.271267 1.059691 -0.044761 0
M  V30 192 H -7.607523 3.409815 0.362235 0
M  V30 193 H -8.467329 2.600346 4.442076 0
M  V30 194 H -8.122843 0.249787 4.027632 0
M  V30 195 H -6.376306 -3.895936 1.555358 0
M  V30 196 H -6.388400 -4.721829 -1.370684 0
M  V30 197 H -4.002619 -2.982940 -2.201136 0
M  V30 198 H -3.722652 -3.225188 -4.830072 0
M  V30 199 H -5.707314 -0.906022 -4.439102 0
M  V30 200 H -4.072417 -1.149163 -3.608228 0
M  V30 201 H -4.503748 -0.969729 -6.657630 0
M  V30 202 H -4.019541 0.383835 -5.614532 0
M  V30 203 H -0.989377 0.010243 -6.774217 0
M  V30 204 H -1.337718 -1.293312 -7.738229 0
M  V30 205 H -6.484569 -2.854110 -6.097545 0
M  V30 206 H -4.861638 -4.321343 -9.116639 0
M  V30 207 H -6.276893 -4.908697 -8.087282 0
M  V30 208 H -6.176659 -3.142123 -8.582706 0
M  V30 209 H -4.980615 -5.654854 0.378867 0
M  V30 210 H -5.240328 -6.602734 -2.098700 0
M  V30 211 H -3.405099 -6.296149 -2.083286 0
M  V30 212 H -4.153368 -7.360059 -0.903099 0
M  V30 213 H -3.486127 -4.045926 0.536258 0
M  V30 214 H -3.581236 5.328361 2.471144 0
M  V30 215 H -3.692810 7.530370 3.380379 0
M  V30 216 H -1.962763 7.664591 3.638067 0
M  V30 217 H -2.993482 6.500047 4.621499 0
M  V30 218 H -4.951073 8.253971 0.465847 0
M  V30 219 H -3.965464 5.559286 -1.724629 0
M  V30 220 H 3.219655 -2.959957 -0.037159 0
M  V30 221 H 4.601785 -0.567383 -1.309434 0
M  V30 222 H 5.603552 -1.217661 0.794511 0
M  V30 223 H 6.778403 -1.412002 -0.529868 0
M  V30 224 H 7.416436 -3.582363 -1.306002 0
M  V30 225 H 7.725785 -6.002211 -0.795494 0
M  V30 226 H 5.702957 -7.937977 0.876595 0
M  V30 227 H 4.916066 -5.563409 2.441371 0
M  V30 228 H 4.634729 -3.252942 1.930944 0
M  V30 229 H 3.875174 -3.749353 -2.757631 0
M  V30 230 H 6.089328 -2.592044 -4.655270 0
M  V30 231 H 6.025492 -5.455739 -3.773596 0
M  V30 232 H 6.902585 -4.844629 -5.273222 0
M  V30 233 H 7.350342 -4.153121 -3.684656 0
M  V30 234 H 2.796861 -4.169975 -4.749556 0
M  V30 235 H 3.114657 -3.802732 -7.705967 0
M  V30 236 H 3.799533 -6.085426 -7.345422 0
M  V30 237 H 2.382673 -6.396846 -6.329517 0
M  V30 238 H 3.319548 -6.377416 -10.553926 0
M  V30 239 H 3.224941 -5.456430 -10.197646 0
M  V30 240 H -0.781743 -4.687076 -7.577497 0
M  V30 241 H -0.314628 -3.345389 -8.259867 0
M  V30 END ATOM
M  V30 BEGIN BOND
M  V30 1 1 1 2
M  V30 2 1 2 3
M  V30 3 1 3 4
M  V30 4 1 3 5
M  V30 5 1 5 6
M  V30 6 1 6 7
M  V30 7 2 7 8
M  V30 8 1 7 9
M  V30 9 1 9 10
M  V30 10 1 9 11
M  V30 11 1 11 12
M  V30 12 2 12 13
M  V30 13 1 12 14
M  V30 14 1 14 15
M  V30 15 1 15 16
M  V30 16 2 16 17
M  V30 17 1 16 18
M  V30 18 1 18 19
M  V30 19 1 19 20
M  V30 20 1 18 21
M  V30 21 1 21 22
M  V30 22 2 22 23
M  V30 23 1 22 24
M  V30 24 1 24 25
M  V30 25 1 25 26
M  V30 26 2 26 27
M  V30 27 1 27 28
M  V30 28 2 28 29
M  V30 29 1 29 30
M  V30 30 1 24 31
M  V30 31 1 31 32
M  V30 32 2 32 33
M  V30 33 1 32 34
M  V30 34 1 34 35
M  V30 35 1 35 36
M  V30 36 1 36 37
M  V30 37 1 36 38
M  V30 38 1 34 39
M  V30 39 1 39 40
M  V30 40 2 40 41
M  V30 41 1 40 42
M  V30 42 1 42 43
M  V30 43 1 43 44
M  V30 44 1 44 45
M  V30 45 1 45 46
M  V30 46 1 46 47
M  V30 47 2 47 48
M  V30 48 1 47 49
M  V30 49 1 49 50
M  V30 50 1 50 51
M  V30 51 1 51 52
M  V30 52 1 52 53
M  V30 53 1 53 54
M  V30 54 2 54 55
M  V30 55 1 54 56
M  V30 56 1 56 57
M  V30 57 1 57 58
M  V30 58 2 58 59
M  V30 59 1 58 60
M  V30 60 1 56 61
M  V30 61 1 61 62
M  V30 62 2 62 63
M  V30 63 1 62 64
M  V30 64 1 64 65
M  V30 65 1 65 66
M  V30 66 2 66 67
M  V30 67 1 67 68
M  V30 68 2 68 69
M  V30 69 1 69 70
M  V30 70 1 69 71
M  V30 71 2 71 72
M  V30 72 1 64 73
M  V30 73 1 73 74
M  V30 74 2 74 75
M  V30 75 1 74 76
M  V30 76 1 76 77
M  V30 77 1 77 78
M  V30 78 2 78 79
M  V30 79 1 78 80
M  V30 80 1 80 81
M  V30 81 1 81 82
M  V30 82 1 82 83
M  V30 83 1 83 84
M  V30 84 2 83 85
M  V30 85 1 80 86
M  V30 86 1 86 87
M  V30 87 1 87 88
M  V30 88 2 87 89
M  V30 89 1 76 90
M  V30 90 1 90 91
M  V30 91 1 90 92
M  V30 92 1 14 93
M  V30 93 1 93 94
M  V30 94 1 93 95
M  V30 95 1 95 96
M  V30 96 2 96 97
M  V30 97 1 96 98
M  V30 98 1 96 99
M  V30 99 1 5 100
M  V30 100 2 100 101
M  V30 101 1 100 102
M  V30 102 1 102 103
M  V30 103 1 103 104
M  V30 104 1 104 105
M  V30 105 2 105 106
M  V30 106 1 106 107
M  V30 107 2 107 108
M  V30 108 1 108 109
M  V30 109 1 108 110
M  V30 110 2 110 111
M  V30 111 1 103 112
M  V30 112 2 112 113
M  V30 113 1 112 114
M  V30 114 1 114 115
M  V30 115 1 115 116
M  V30 116 1 115 117
M  V30 117 2 117 118
M  V30 118 1 117 119
M  V30 119 1 119 120
M  V30 120 1 120 121
M  V30 121 1 121 122
M  V30 122 1 122 123
M  V30 123 2 122 124
M  V30 124 1 120 125
M  V30 125 1 125 126
M  V30 126 2 125 127
M  V30 127 1 30 26
M  V30 128 1 46 42
M  V30 129 1 53 49
M  V30 130 1 72 66
M  V30 131 1 111 105
M  V30 132 1 1 128
M  V30 133 1 1 129
M  V30 134 1 1 130
M  V30 135 1 2 131
M  V30 136 1 2 132
M  V30 137 1 3 133 CFG=1
M  V30 138 1 4 134
M  V30 139 1 4 135
M  V30 140 1 4 136
M  V30 141 1 5 137 CFG=1
M  V30 142 1 6 138
M  V30 143 1 9 139 CFG=3
M  V30 144 1 10 140
M  V30 145 1 10 141
M  V30 146 1 10 142
M  V30 147 1 11 143
M  V30 148 1 14 144 CFG=1
M  V30 149 1 15 145
M  V30 150 1 18 146 CFG=1
M  V30 151 1 19 147
M  V30 152 1 19 148
M  V30 153 1 20 149
M  V30 154 1 21 150
M  V30 155 1 24 151 CFG=3
M  V30 156 1 25 152
M  V30 157 1 25 153
M  V30 158 1 27 154
M  V30 159 1 29 155
M  V30 160 1 30 156
M  V30 161 1 31 157
M  V30 162 1 34 158 CFG=1
M  V30 163 1 35 159
M  V30 164 1 35 160
M  V30 165 1 36 161
M  V30 166 1 37 162
M  V30 167 1 37 163
M  V30 168 1 37 164
M  V30 169 1 38 165
M  V30 170 1 38 166
M  V30 171 1 38 167
M  V30 172 1 39 168
M  V30 173 1 42 169 CFG=1
M  V30 174 1 43 170
M  V30 175 1 43 171
M  V30 176 1 44 172
M  V30 177 1 44 173
M  V30 178 1 45 174
M  V30 179 1 45 175
M  V30 180 1 49 176 CFG=1
M  V30 181 1 50 177
M  V30 182 1 50 178
M  V30 183 1 51 179
M  V30 184 1 51 180
M  V30 185 1 52 181
M  V30 186 1 52 182
M  V30 187 1 56 183 CFG=3
M  V30 188 1 57 184
M  V30 189 1 57 185
M  V30 190 1 60 186
M  V30 191 1 61 187
M  V30 192 1 64 188 CFG=3
M  V30 193 1 65 189
M  V30 194 1 65 190
M  V30 195 1 67 191
M  V30 196 1 68 192
M  V30 197 1 71 193
M  V30 198 1 72 194
M  V30 199 1 73 195
M  V30 200 1 76 196 CFG=3
M  V30 201 1 77 197
M  V30 202 1 80 198 CFG=3
M  V30 203 1 81 199
M  V30 204 1 81 200
M  V30 205 1 82 201
M  V30 206 1 82 202
M  V30 207 1 84 203
M  V30 208 1 84 204
M  V30 209 1 86 205
M  V30 210 1 88 206
M  V30 211 1 88 207
M  V30 212 1 88 208
M  V30 213 1 90 209 CFG=1
M  V30 214 1 91 210
M  V30 215 1 91 211
M  V30 216 1 91 212
M  V30 217 1 92 213
M  V30 218 1 93 214 CFG=3
M  V30 219 1 94 215
M  V30 220 1 94 216
M  V30 221 1 94 217
M  V30 222 1 98 218
M  V30 223 1 99 219
M  V30 224 1 102 220
M  V30 225 1 103 221 CFG=3
M  V30 226 1 104 222
M  V30 227 1 104 223
M  V30 228 1 106 224
M  V30 229 1 107 225
M  V30 230 1 109 226
M  V30 231 1 110 227
M  V30 232 1 111 228
M  V30 233 1 114 229
M  V30 234 1 115 230 CFG=3
M  V30 235 1 116 231
M  V30 236 1 116 232
M  V30 237 1 116 233
M  V30 238 1 119 234
M  V30 239 1 120 235 CFG=3
M  V30 240 1 121 236
M  V30 241 1 121 237
M  V30 242 1 123 238
M  V30 243 1 123 239
M  V30 244 1 126 240
M  V30 245 1 126 241
M  V30 END BOND
M  V30 END CTAB
M  END
>  <Dataset>  (189) 
ChEMBL_Kinases

>  <Ligand_Instance>  (189) 
nan

>  <PDB_ID>  (189) 
nan

>  <Standardized_SMILES>  (189) 
CC[C@H](C)[C@H](NC(=O)[C@H](C)NC(=O)[C@@H](NC(=O)[C@H](CO)NC(=O)[C@H](Cc1cnc[nH]1)NC(=O)[C@H](CC(C)C)NC(=O)[C@@H]1CCCN1C(=O)[C@@H]1CCCN1C(=O)[C@H](CC(=O)O)NC(=O)[C@H](Cc1ccc(Cl)cc1)NC(=O)[C@@H](NC(=O)[C@H](CCC(N)=O)NC(C)=O)[C@@H](C)O)[C@@H](C)OP(=O)(O)O)C(=O)N[C@@H](Cc1ccc(O)cc1)C(=O)N[C@@H](C)C(=O)N[C@@H](CC(N)=O)C(N)=O

>  <Name>  (189) 
nan

>  <Pocket>  (189) 
nan

>  <ATP_Site>  (189) 
nan

>  <Peripheral>  (189) 
nan

>  <Num_H_Atoms_ProtBoundConf>  (189) 
nan

>  <Num_Resolved_Atoms>  (189) 
nan

>  <Num_Not_Resolved_Atoms>  (189) 
nan

$$$$
CHEMBL4790176
     RDKit          3D

  0  0  0  0  0  0  0  0  0  0999 V3000
M  V30 BEGIN CTAB
M  V30 COUNTS 72 76 0 0 0
M  V30 BEGIN ATOM
M  V30 1 C 0.104102 0.453883 5.191815 0
M  V30 2 C 0.901142 1.540917 4.602109 0
M  V30 3 C 1.773037 2.376383 5.305159 0
M  V30 4 C 2.474975 3.373147 4.635268 0
M  V30 5 C 2.347973 3.578506 3.286171 0
M  V30 6 C 3.129992 4.650049 2.681797 0
M  V30 7 O 3.878285 5.313747 3.420318 0
M  V30 8 N 3.083658 4.976251 1.298589 0
M  V30 9 C 3.846179 6.031684 0.666835 0
M  V30 10 C 4.178519 5.811797 -0.773359 0
M  V30 11 C 3.193872 6.850087 -0.380824 0
M  V30 12 C 1.489067 2.754126 2.599407 0
M  V30 13 C 0.765357 1.740638 3.235222 0
M  V30 14 N -0.097603 0.950421 2.387700 0
M  V30 15 C -1.297150 1.387543 1.973437 0
M  V30 16 C -1.976819 0.498280 1.172773 0
M  V30 17 N -1.457756 -0.691973 0.853587 0
M  V30 18 C -0.255119 -1.105429 1.281237 0
M  V30 19 N 0.173853 -2.386860 0.828178 0
M  V30 20 C -0.362522 -3.443660 0.029802 0 CFG=1
M  V30 21 C -1.325324 -4.275528 0.742894 0
M  V30 22 C -1.246536 -5.663227 0.525998 0
M  V30 23 C -2.033383 -6.645738 1.083371 0
M  V30 24 C -3.012809 -6.231753 1.954346 0
M  V30 25 C -3.174215 -4.894220 2.235449 0
M  V30 26 C -2.335363 -3.992837 1.625534 0
M  V30 27 C -0.920301 -2.926843 -1.291459 0 CFG=1
M  V30 28 C 0.188945 -2.248485 -2.066089 0
M  V30 29 C -1.490550 -4.079695 -2.116009 0
M  V30 30 N -2.026740 -3.673740 -3.358044 0
M  V30 31 C -3.197345 -2.892620 -3.377729 0
M  V30 32 C -3.487524 -2.358516 -4.757639 0
M  V30 33 O -2.275540 -2.285199 -5.441700 0
M  V30 34 C -1.830738 -3.571043 -5.797917 0
M  V30 35 C -1.617449 -4.338377 -4.531257 0
M  V30 36 C 0.468809 -0.228474 2.099193 0
M  V30 37 O 1.575396 -0.630136 2.482215 0
M  V30 38 H -0.922903 0.406073 4.783139 0
M  V30 39 H 0.629709 -0.538191 5.185241 0
M  V30 40 H -0.036834 0.689628 6.283888 0
M  V30 41 H 1.838848 2.173918 6.369020 0
M  V30 42 H 3.138416 3.985266 5.259725 0
M  V30 43 H 2.449733 4.408483 0.697379 0
M  V30 44 H 4.496434 6.582919 1.352829 0
M  V30 45 H 3.794058 4.888628 -1.260926 0
M  V30 46 H 5.187212 6.068664 -1.096015 0
M  V30 47 H 3.529335 7.894999 -0.522489 0
M  V30 48 H 2.143986 6.682282 -0.680452 0
M  V30 49 H 1.374222 2.898885 1.534573 0
M  V30 50 H -1.642582 2.360519 2.275850 0
M  V30 51 H -2.960875 0.795830 0.802636 0
M  V30 52 H 1.156087 -2.551892 1.217417 0
M  V30 53 H 0.501355 -4.094939 -0.272762 0
M  V30 54 H -0.481053 -6.054938 -0.162664 0
M  V30 55 H -1.894768 -7.689336 0.853297 0
M  V30 56 H -3.686808 -6.913489 2.449074 0
M  V30 57 H -3.929971 -4.538483 2.911241 0
M  V30 58 H -2.479068 -2.956145 1.863515 0
M  V30 59 H -1.744577 -2.204154 -1.159741 0
M  V30 60 H 0.795391 -1.608680 -1.394118 0
M  V30 61 H -0.201491 -1.581137 -2.855529 0
M  V30 62 H 0.857778 -2.977028 -2.584828 0
M  V30 63 H -0.612691 -4.750015 -2.357620 0
M  V30 64 H -2.239430 -4.640366 -1.529090 0
M  V30 65 H -3.162276 -2.079473 -2.616324 0
M  V30 66 H -4.056125 -3.554583 -3.067954 0
M  V30 67 H -4.198447 -3.027748 -5.247710 0
M  V30 68 H -3.856474 -1.317758 -4.666167 0
M  V30 69 H -0.865922 -3.420056 -6.320487 0
M  V30 70 H -2.546647 -4.074844 -6.479385 0
M  V30 71 H -2.112491 -5.336864 -4.558521 0
M  V30 72 H -0.531234 -4.567213 -4.441791 0
M  V30 END ATOM
M  V30 BEGIN BOND
M  V30 1 1 1 2
M  V30 2 2 2 3
M  V30 3 1 3 4
M  V30 4 2 4 5
M  V30 5 1 5 6
M  V30 6 2 6 7
M  V30 7 1 6 8
M  V30 8 1 8 9
M  V30 9 1 9 10
M  V30 10 1 10 11
M  V30 11 1 5 12
M  V30 12 2 12 13
M  V30 13 1 13 14
M  V30 14 1 14 15
M  V30 15 2 15 16
M  V30 16 1 16 17
M  V30 17 2 17 18
M  V30 18 1 18 19
M  V30 19 1 19 20
M  V30 20 1 20 21
M  V30 21 2 21 22
M  V30 22 1 22 23
M  V30 23 2 23 24
M  V30 24 1 24 25
M  V30 25 2 25 26
M  V30 26 1 20 27
M  V30 27 1 27 28
M  V30 28 1 27 29
M  V30 29 1 29 30
M  V30 30 1 30 31
M  V30 31 1 31 32
M  V30 32 1 32 33
M  V30 33 1 33 34
M  V30 34 1 34 35
M  V30 35 1 18 36
M  V30 36 2 36 37
M  V30 37 1 13 2
M  V30 38 1 36 14
M  V30 39 1 11 9
M  V30 40 1 26 21
M  V30 41 1 35 30
M  V30 42 1 1 38
M  V30 43 1 1 39
M  V30 44 1 1 40
M  V30 45 1 3 41
M  V30 46 1 4 42
M  V30 47 1 8 43
M  V30 48 1 9 44
M  V30 49 1 10 45
M  V30 50 1 10 46
M  V30 51 1 11 47
M  V30 52 1 11 48
M  V30 53 1 12 49
M  V30 54 1 15 50
M  V30 55 1 16 51
M  V30 56 1 19 52
M  V30 57 1 20 53 CFG=3
M  V30 58 1 22 54
M  V30 59 1 23 55
M  V30 60 1 24 56
M  V30 61 1 25 57
M  V30 62 1 26 58
M  V30 63 1 27 59 CFG=1
M  V30 64 1 28 60
M  V30 65 1 28 61
M  V30 66 1 28 62
M  V30 67 1 29 63
M  V30 68 1 29 64
M  V30 69 1 31 65
M  V30 70 1 31 66
M  V30 71 1 32 67
M  V30 72 1 32 68
M  V30 73 1 34 69
M  V30 74 1 34 70
M  V30 75 1 35 71
M  V30 76 1 35 72
M  V30 END BOND
M  V30 END CTAB
M  END
>  <Dataset>  (190) 
ChEMBL_Kinases

>  <Ligand_Instance>  (190) 
nan

>  <PDB_ID>  (190) 
nan

>  <Standardized_SMILES>  (190) 
Cc1ccc(C(=O)NC2CC2)cc1-n1ccnc(N[C@@H](c2ccccc2)[C@@H](C)CN2CCOCC2)c1=O

>  <Name>  (190) 
nan

>  <Pocket>  (190) 
nan

>  <ATP_Site>  (190) 
nan

>  <Peripheral>  (190) 
nan

>  <Num_H_Atoms_ProtBoundConf>  (190) 
nan

>  <Num_Resolved_Atoms>  (190) 
nan

>  <Num_Not_Resolved_Atoms>  (190) 
nan

$$$$
CHEMBL4130023
     RDKit          3D

  0  0  0  0  0  0  0  0  0  0999 V3000
M  V30 BEGIN CTAB
M  V30 COUNTS 56 60 0 0 0
M  V30 BEGIN ATOM
M  V30 1 N 3.111989 0.488476 5.022136 0
M  V30 2 C 2.884379 -0.397075 4.298100 0
M  V30 3 C 2.585846 -1.513865 3.363564 0
M  V30 4 C 3.656347 -1.614354 2.376715 0
M  V30 5 C 4.636029 -2.608158 2.444391 0
M  V30 6 C 5.663766 -2.705450 1.531129 0
M  V30 7 C 5.725144 -1.784443 0.511572 0
M  V30 8 C 4.753748 -0.812939 0.458399 0
M  V30 9 C 3.698540 -0.689637 1.371005 0
M  V30 10 C 2.791673 0.397599 1.091552 0
M  V30 11 C 3.449897 1.633814 0.984242 0
M  V30 12 N 2.847945 2.810973 0.714951 0
M  V30 13 C 1.520023 2.887624 0.522185 0
M  V30 14 N 0.605992 3.835220 0.247303 0
M  V30 15 C -0.608712 3.260216 0.173420 0
M  V30 16 C -0.501677 1.884065 0.406646 0
M  V30 17 C -1.667384 1.000510 0.386828 0
M  V30 18 C -2.776273 1.459704 1.066170 0
M  V30 19 C -3.903944 0.671073 1.079448 0
M  V30 20 C -3.855929 -0.534244 0.410577 0
M  V30 21 C -5.104892 -1.279553 0.486720 0
M  V30 22 N -6.279887 -0.866491 1.164353 0
M  V30 23 O -5.702633 -2.323596 0.149134 0
M  V30 24 C -2.774467 -1.039008 -0.282209 0
M  V30 25 C -2.819528 -2.328681 -0.967945 0
M  V30 26 C -3.182579 -2.228604 -2.424970 0
M  V30 27 C -2.013534 -2.854448 -3.148574 0
M  V30 28 C -1.406442 -3.847836 -2.161117 0
M  V30 29 C -1.523865 -3.083098 -0.857234 0
M  V30 30 C -1.688251 -0.213171 -0.259789 0
M  V30 31 C 0.847263 1.689335 0.621139 0
M  V30 32 C 1.430600 0.470354 0.894126 0
M  V30 33 H 2.664206 -2.422826 4.035569 0
M  V30 34 H 1.574600 -1.361037 3.004525 0
M  V30 35 H 4.583638 -3.328818 3.246919 0
M  V30 36 H 6.405564 -3.497280 1.623042 0
M  V30 37 H 6.523815 -1.845332 -0.213062 0
M  V30 38 H 4.874194 -0.115914 -0.385698 0
M  V30 39 H 4.529783 1.796416 1.104942 0
M  V30 40 H 0.856321 4.841302 0.121782 0
M  V30 41 H -1.531189 3.797004 -0.037503 0
M  V30 42 H -2.767915 2.411260 1.576784 0
M  V30 43 H -4.764896 1.039534 1.613246 0
M  V30 44 H -7.128924 -0.312543 0.874203 0
M  V30 45 H -6.620315 -1.008281 2.160689 0
M  V30 46 H -3.573814 -2.976712 -0.420841 0
M  V30 47 H -4.078757 -2.856784 -2.599058 0
M  V30 48 H -3.428897 -1.218393 -2.770533 0
M  V30 49 H -2.319465 -3.433851 -4.038796 0
M  V30 50 H -1.228088 -2.091113 -3.374002 0
M  V30 51 H -0.348723 -4.054383 -2.419167 0
M  V30 52 H -1.952411 -4.797659 -2.119456 0
M  V30 53 H -1.533770 -3.824726 -0.018403 0
M  V30 54 H -0.675159 -2.411032 -0.736145 0
M  V30 55 H -0.772270 -0.435715 -0.743623 0
M  V30 56 H 0.936790 -0.463294 0.963467 0
M  V30 END ATOM
M  V30 BEGIN BOND
M  V30 1 3 1 2
M  V30 2 1 2 3
M  V30 3 1 3 4
M  V30 4 2 4 5
M  V30 5 1 5 6
M  V30 6 2 6 7
M  V30 7 1 7 8
M  V30 8 2 8 9
M  V30 9 1 9 10
M  V30 10 2 10 11
M  V30 11 1 11 12
M  V30 12 2 12 13
M  V30 13 1 13 14
M  V30 14 1 14 15
M  V30 15 2 15 16
M  V30 16 1 16 17
M  V30 17 2 17 18
M  V30 18 1 18 19
M  V30 19 2 19 20
M  V30 20 1 20 21
M  V30 21 1 21 22
M  V30 22 2 21 23
M  V30 23 1 20 24
M  V30 24 1 24 25
M  V30 25 1 25 26
M  V30 26 1 26 27
M  V30 27 1 27 28
M  V30 28 1 28 29
M  V30 29 2 24 30
M  V30 30 1 16 31
M  V30 31 2 31 32
M  V30 32 1 9 4
M  V30 33 1 32 10
M  V30 34 1 31 13
M  V30 35 1 30 17
M  V30 36 1 29 25
M  V30 37 1 3 33
M  V30 38 1 3 34
M  V30 39 1 5 35
M  V30 40 1 6 36
M  V30 41 1 7 37
M  V30 42 1 8 38
M  V30 43 1 11 39
M  V30 44 1 14 40
M  V30 45 1 15 41
M  V30 46 1 18 42
M  V30 47 1 19 43
M  V30 48 1 22 44
M  V30 49 1 22 45
M  V30 50 1 25 46
M  V30 51 1 26 47
M  V30 52 1 26 48
M  V30 53 1 27 49
M  V30 54 1 27 50
M  V30 55 1 28 51
M  V30 56 1 28 52
M  V30 57 1 29 53
M  V30 58 1 29 54
M  V30 59 1 30 55
M  V30 60 1 32 56
M  V30 END BOND
M  V30 END CTAB
M  END
>  <Dataset>  (191) 
ChEMBL_Kinases

>  <Ligand_Instance>  (191) 
nan

>  <PDB_ID>  (191) 
nan

>  <Standardized_SMILES>  (191) 
N#CCc1ccccc1-c1cnc2[nH]cc(-c3ccc(C(N)=O)c(C4CCCC4)c3)c2c1

>  <Name>  (191) 
nan

>  <Pocket>  (191) 
nan

>  <ATP_Site>  (191) 
nan

>  <Peripheral>  (191) 
nan

>  <Num_H_Atoms_ProtBoundConf>  (191) 
nan

>  <Num_Resolved_Atoms>  (191) 
nan

>  <Num_Not_Resolved_Atoms>  (191) 
nan

$$$$
CHEMBL4129991
     RDKit          3D

  0  0  0  0  0  0  0  0  0  0999 V3000
M  V30 BEGIN CTAB
M  V30 COUNTS 49 52 0 0 0
M  V30 BEGIN ATOM
M  V30 1 C -1.021338 3.835181 1.790304 0
M  V30 2 C 0.162427 3.158594 1.224343 0
M  V30 3 C 0.979922 3.848376 0.350976 0
M  V30 4 C 2.086709 3.214423 -0.180706 0
M  V30 5 C 2.422565 1.909363 0.119350 0
M  V30 6 C 3.591361 1.220913 -0.413160 0
M  V30 7 C 4.125422 1.478732 -1.664641 0
M  V30 8 C 5.229559 0.787243 -2.102392 0
M  V30 9 C 5.870753 -0.187259 -1.351002 0
M  V30 10 C 5.346322 -0.458139 -0.091256 0
M  V30 11 C 4.242131 0.249332 0.318857 0
M  V30 12 C 1.556155 1.289628 0.998112 0
M  V30 13 C 0.447696 1.832531 1.569040 0
M  V30 14 N -0.356142 1.099003 2.483317 0
M  V30 15 C -0.129661 -0.273822 2.777136 0
M  V30 16 N 0.792846 -0.830936 3.581907 0
M  V30 17 C 0.842725 -2.187079 3.748246 0
M  V30 18 C -0.079864 -2.965160 3.067750 0
M  V30 19 C -1.030608 -2.412147 2.240516 0
M  V30 20 C -2.037963 -3.161116 1.506096 0
M  V30 21 C -2.929305 -2.416025 0.729574 0
M  V30 22 C -3.932418 -2.987564 -0.012368 0
M  V30 23 C -4.111233 -4.345975 -0.027262 0
M  V30 24 C -5.131428 -5.073118 -0.773592 0
M  V30 25 N -5.950170 -4.229930 -1.578609 0
M  V30 26 O -5.380021 -6.301776 -0.803596 0
M  V30 27 C -3.223678 -5.074704 0.744433 0
M  V30 28 C -2.202935 -4.521792 1.502615 0
M  V30 29 N -1.012440 -1.052435 2.128251 0
M  V30 30 H -1.812178 3.084791 1.970750 0
M  V30 31 H -1.427042 4.534870 1.020286 0
M  V30 32 H -0.796335 4.418738 2.722363 0
M  V30 33 H 0.743893 4.874994 0.094160 0
M  V30 34 H 2.706602 3.769833 -0.854316 0
M  V30 35 H 3.677759 2.216199 -2.286558 0
M  V30 36 H 5.598481 1.039358 -3.096613 0
M  V30 37 H 6.737134 -0.702770 -1.738075 0
M  V30 38 H 5.810674 -1.217663 0.547999 0
M  V30 39 H 3.886039 -0.018559 1.321493 0
M  V30 40 H 1.782593 0.260055 1.261027 0
M  V30 41 H -1.155062 1.469284 3.010898 0
M  V30 42 H 1.601856 -2.584743 4.404144 0
M  V30 43 H -0.062756 -4.038739 3.181038 0
M  V30 44 H -2.888300 -1.319385 0.661517 0
M  V30 45 H -4.624388 -2.391178 -0.617038 0
M  V30 46 H -6.837367 -4.071803 -1.013092 0
M  V30 47 H -6.631253 -3.625753 -2.059171 0
M  V30 48 H -3.367222 -6.145394 0.730584 0
M  V30 49 H -1.517619 -5.103927 2.101967 0
M  V30 END ATOM
M  V30 BEGIN BOND
M  V30 1 1 1 2
M  V30 2 2 2 3
M  V30 3 1 3 4
M  V30 4 2 4 5
M  V30 5 1 5 6
M  V30 6 2 6 7
M  V30 7 1 7 8
M  V30 8 2 8 9
M  V30 9 1 9 10
M  V30 10 2 10 11
M  V30 11 1 5 12
M  V30 12 2 12 13
M  V30 13 1 13 14
M  V30 14 1 14 15
M  V30 15 2 15 16
M  V30 16 1 16 17
M  V30 17 2 17 18
M  V30 18 1 18 19
M  V30 19 1 19 20
M  V30 20 2 20 21
M  V30 21 1 21 22
M  V30 22 2 22 23
M  V30 23 1 23 24
M  V30 24 1 24 25
M  V30 25 2 24 26
M  V30 26 1 23 27
M  V30 27 2 27 28
M  V30 28 2 19 29
M  V30 29 1 13 2
M  V30 30 1 29 15
M  V30 31 1 11 6
M  V30 32 1 28 20
M  V30 33 1 1 30
M  V30 34 1 1 31
M  V30 35 1 1 32
M  V30 36 1 3 33
M  V30 37 1 4 34
M  V30 38 1 7 35
M  V30 39 1 8 36
M  V30 40 1 9 37
M  V30 41 1 10 38
M  V30 42 1 11 39
M  V30 43 1 12 40
M  V30 44 1 14 41
M  V30 45 1 17 42
M  V30 46 1 18 43
M  V30 47 1 21 44
M  V30 48 1 22 45
M  V30 49 1 25 46
M  V30 50 1 25 47
M  V30 51 1 27 48
M  V30 52 1 28 49
M  V30 END BOND
M  V30 END CTAB
M  END
>  <Dataset>  (192) 
ChEMBL_Kinases

>  <Ligand_Instance>  (192) 
nan

>  <PDB_ID>  (192) 
nan

>  <Standardized_SMILES>  (192) 
Cc1ccc(-c2ccccc2)cc1Nc1nccc(-c2ccc(C(N)=O)cc2)n1

>  <Name>  (192) 
nan

>  <Pocket>  (192) 
nan

>  <ATP_Site>  (192) 
nan

>  <Peripheral>  (192) 
nan

>  <Num_H_Atoms_ProtBoundConf>  (192) 
nan

>  <Num_Resolved_Atoms>  (192) 
nan

>  <Num_Not_Resolved_Atoms>  (192) 
nan

$$$$
CHEMBL4129941
     RDKit          3D

  0  0  0  0  0  0  0  0  0  0999 V3000
M  V30 BEGIN CTAB
M  V30 COUNTS 55 59 0 0 0
M  V30 BEGIN ATOM
M  V30 1 C -2.006240 -0.341890 2.453820 0
M  V30 2 C -0.716518 0.309475 2.138134 0
M  V30 3 C -0.155575 1.046901 3.175226 0
M  V30 4 C 1.036518 1.710842 3.027277 0
M  V30 5 C 1.644549 1.607168 1.800190 0
M  V30 6 C 2.935569 2.315572 1.621030 0
M  V30 7 N 4.077637 1.521547 1.937808 0
M  V30 8 C 5.253526 2.375588 1.714449 0
M  V30 9 C 6.470935 1.664712 2.282587 0
M  V30 10 O 6.240886 0.318042 2.476714 0
M  V30 11 C 5.238374 0.006218 3.356267 0
M  V30 12 C 4.154516 1.079579 3.314538 0
M  V30 13 C 1.067713 0.878219 0.810372 0
M  V30 14 C -0.121529 0.198172 0.912243 0
M  V30 15 C -0.658666 -0.561883 -0.193628 0
M  V30 16 C -1.712840 -1.349297 -0.471200 0
M  V30 17 C -1.709038 -1.833481 -1.757815 0
M  V30 18 C -2.579581 -2.654121 -2.442827 0
M  V30 19 C -3.775287 -3.200504 -1.816764 0
M  V30 20 C -4.917422 -3.064622 -2.612976 0
M  V30 21 C -6.164381 -3.511633 -2.228912 0
M  V30 22 C -6.295622 -4.123286 -0.999817 0
M  V30 23 C -7.543746 -4.624518 -0.501970 0
M  V30 24 N -8.555130 -5.028686 -0.082314 0
M  V30 25 C -5.175389 -4.267043 -0.197007 0
M  V30 26 C -3.935234 -3.815915 -0.592982 0
M  V30 27 C -2.331454 -2.993548 -3.772131 0
M  V30 28 C -1.183038 -2.444454 -4.286378 0
M  V30 29 N -0.338898 -1.642996 -3.606342 0
M  V30 30 C -0.568054 -1.308401 -2.322866 0
M  V30 31 N 0.006336 -0.581176 -1.382870 0
M  V30 32 H -2.830108 0.009804 1.789560 0
M  V30 33 H -1.977796 -1.436082 2.426413 0
M  V30 34 H -2.337543 -0.071698 3.501150 0
M  V30 35 H -0.638468 1.124746 4.138663 0
M  V30 36 H 1.442283 2.273369 3.848081 0
M  V30 37 H 2.972096 3.206333 2.311193 0
M  V30 38 H 3.069152 2.704481 0.601660 0
M  V30 39 H 5.133259 3.300267 2.319948 0
M  V30 40 H 5.375274 2.660813 0.666180 0
M  V30 41 H 7.257630 1.726368 1.487967 0
M  V30 42 H 6.911563 2.187640 3.153156 0
M  V30 43 H 5.567839 -0.236069 4.376101 0
M  V30 44 H 4.740221 -0.921161 2.959610 0
M  V30 45 H 3.194753 0.657476 3.674420 0
M  V30 46 H 4.402077 1.907581 4.010633 0
M  V30 47 H 1.647563 0.877409 -0.104254 0
M  V30 48 H -2.470924 -1.580445 0.216751 0
M  V30 49 H -4.913733 -2.592909 -3.604437 0
M  V30 50 H -7.042372 -3.402991 -2.849946 0
M  V30 51 H -5.225390 -4.739121 0.774643 0
M  V30 52 H -3.011439 -3.887576 -0.036697 0
M  V30 53 H -3.001326 -3.629579 -4.311724 0
M  V30 54 H -0.912508 -2.657858 -5.319115 0
M  V30 55 H 0.910060 -0.106317 -1.674560 0
M  V30 END ATOM
M  V30 BEGIN BOND
M  V30 1 1 1 2
M  V30 2 2 2 3
M  V30 3 1 3 4
M  V30 4 2 4 5
M  V30 5 1 5 6
M  V30 6 1 6 7
M  V30 7 1 7 8
M  V30 8 1 8 9
M  V30 9 1 9 10
M  V30 10 1 10 11
M  V30 11 1 11 12
M  V30 12 1 5 13
M  V30 13 2 13 14
M  V30 14 1 14 15
M  V30 15 2 15 16
M  V30 16 1 16 17
M  V30 17 2 17 18
M  V30 18 1 18 19
M  V30 19 2 19 20
M  V30 20 1 20 21
M  V30 21 2 21 22
M  V30 22 1 22 23
M  V30 23 3 23 24
M  V30 24 1 22 25
M  V30 25 2 25 26
M  V30 26 1 18 27
M  V30 27 2 27 28
M  V30 28 1 28 29
M  V30 29 2 29 30
M  V30 30 1 30 31
M  V30 31 1 14 2
M  V30 32 1 31 15
M  V30 33 1 12 7
M  V30 34 1 30 17
M  V30 35 1 26 19
M  V30 36 1 1 32
M  V30 37 1 1 33
M  V30 38 1 1 34
M  V30 39 1 3 35
M  V30 40 1 4 36
M  V30 41 1 6 37
M  V30 42 1 6 38
M  V30 43 1 8 39
M  V30 44 1 8 40
M  V30 45 1 9 41
M  V30 46 1 9 42
M  V30 47 1 11 43
M  V30 48 1 11 44
M  V30 49 1 12 45
M  V30 50 1 12 46
M  V30 51 1 13 47
M  V30 52 1 16 48
M  V30 53 1 20 49
M  V30 54 1 21 50
M  V30 55 1 25 51
M  V30 56 1 26 52
M  V30 57 1 27 53
M  V30 58 1 28 54
M  V30 59 1 31 55
M  V30 END BOND
M  V30 END CTAB
M  END
>  <Dataset>  (193) 
ChEMBL_Kinases

>  <Ligand_Instance>  (193) 
nan

>  <PDB_ID>  (193) 
nan

>  <Standardized_SMILES>  (193) 
Cc1ccc(CN2CCOCC2)cc1-c1cc2c(-c3ccc(C#N)cc3)ccnc2[nH]1

>  <Name>  (193) 
nan

>  <Pocket>  (193) 
nan

>  <ATP_Site>  (193) 
nan

>  <Peripheral>  (193) 
nan

>  <Num_H_Atoms_ProtBoundConf>  (193) 
nan

>  <Num_Resolved_Atoms>  (193) 
nan

>  <Num_Not_Resolved_Atoms>  (193) 
nan

$$$$
CHEMBL4790193
     RDKit          3D

  0  0  0  0  0  0  0  0  0  0999 V3000
M  V30 BEGIN CTAB
M  V30 COUNTS 65 68 0 0 0
M  V30 BEGIN ATOM
M  V30 1 C 5.989166 4.408579 5.892040 0
M  V30 2 N 4.934646 4.927954 5.029667 0
M  V30 3 C 4.086606 5.791504 5.839900 0
M  V30 4 C 4.161471 3.830746 4.468370 0
M  V30 5 C 3.095962 4.267408 3.544473 0
M  V30 6 C 2.664748 5.406393 3.080262 0
M  V30 7 C 1.564716 5.639383 2.153117 0
M  V30 8 O 1.317420 6.813766 1.836647 0
M  V30 9 N 0.767860 4.617363 1.599986 0
M  V30 10 C -0.322814 4.690999 0.707849 0
M  V30 11 C -0.839442 5.850936 0.178856 0
M  V30 12 C -1.925436 5.926520 -0.681013 0
M  V30 13 C -2.521934 4.701300 -1.018363 0
M  V30 14 C -2.031288 3.527479 -0.508281 0
M  V30 15 C -2.759248 2.328774 -0.925232 0
M  V30 16 O -3.815587 2.453175 -1.554819 0
M  V30 17 N -2.207318 1.073267 -0.587178 0
M  V30 18 C -2.463937 -0.317811 -0.719233 0
M  V30 19 C -2.971624 -1.259455 0.137317 0
M  V30 20 C -3.137461 -2.555017 -0.296254 0
M  V30 21 C -2.789750 -2.882823 -1.590198 0
M  V30 22 N -2.999636 -4.251419 -1.869764 0
M  V30 23 C -1.747391 -4.922916 -1.702103 0
M  V30 24 O -0.995636 -3.921107 -1.372951 0
M  V30 25 C -1.181996 -6.239343 -1.790000 0
M  V30 26 C 0.171881 -6.335700 -1.571882 0
M  V30 27 C 0.744379 -7.583714 -1.657785 0
M  V30 28 C -0.042083 -8.655206 -1.950198 0
M  V30 29 C -1.417838 -8.575539 -2.174883 0
M  V30 30 C -2.170119 -9.780517 -2.463946 0
M  V30 31 C -3.512621 -9.949347 -2.687713 0
M  V30 32 C -3.783891 -11.311280 -2.920180 0
M  V30 33 N -2.586114 -11.880021 -2.822415 0
M  V30 34 N -1.655425 -11.016349 -2.561828 0
M  V30 35 N -1.908004 -7.338830 -2.077039 0
M  V30 36 C -2.271179 -1.979870 -2.512051 0
M  V30 37 C -2.115964 -0.672633 -2.032715 0
M  V30 38 C -0.952264 3.539882 0.337049 0
M  V30 39 H 5.590816 4.411542 6.931736 0
M  V30 40 H 6.886366 5.034645 5.818178 0
M  V30 41 H 6.209341 3.344788 5.664345 0
M  V30 42 H 3.010536 5.498038 5.719102 0
M  V30 43 H 4.316466 5.589039 6.899814 0
M  V30 44 H 4.267670 6.865123 5.673152 0
M  V30 45 H 4.818943 3.105207 3.969832 0
M  V30 46 H 3.688281 3.301064 5.321749 0
M  V30 47 H 2.582127 3.367676 3.206660 0
M  V30 48 H 3.249553 6.221607 3.479471 0
M  V30 49 H 1.075653 3.663319 1.934104 0
M  V30 50 H -0.418284 6.791767 0.408447 0
M  V30 51 H -2.312722 6.850130 -1.082830 0
M  V30 52 H -3.380742 4.768645 -1.698854 0
M  V30 53 H -1.321359 0.919057 -0.063399 0
M  V30 54 H -3.183739 -0.828756 1.083561 0
M  V30 55 H -3.538021 -3.237194 0.437195 0
M  V30 56 H -3.708912 -4.996713 -2.156530 0
M  V30 57 H 0.813984 -5.475663 -1.334483 0
M  V30 58 H 1.812735 -7.691726 -1.489992 0
M  V30 59 H 0.478066 -9.599740 -2.001237 0
M  V30 60 H -4.271120 -9.183097 -2.694717 0
M  V30 61 H -4.745850 -11.710950 -3.121568 0
M  V30 62 H -0.644290 -11.224189 -2.440568 0
M  V30 63 H -2.025968 -2.316761 -3.505867 0
M  V30 64 H -1.706904 -0.053544 -2.824852 0
M  V30 65 H -0.596546 2.612351 0.714832 0
M  V30 END ATOM
M  V30 BEGIN BOND
M  V30 1 1 1 2
M  V30 2 1 2 3
M  V30 3 1 2 4
M  V30 4 1 4 5
M  V30 5 2 5 6
M  V30 6 1 6 7
M  V30 7 2 7 8
M  V30 8 1 7 9
M  V30 9 1 9 10
M  V30 10 2 10 11
M  V30 11 1 11 12
M  V30 12 2 12 13
M  V30 13 1 13 14
M  V30 14 1 14 15
M  V30 15 2 15 16
M  V30 16 1 15 17
M  V30 17 1 17 18
M  V30 18 2 18 19
M  V30 19 1 19 20
M  V30 20 2 20 21
M  V30 21 1 21 22
M  V30 22 1 22 23
M  V30 23 2 23 24
M  V30 24 1 23 25
M  V30 25 2 25 26
M  V30 26 1 26 27
M  V30 27 2 27 28
M  V30 28 1 28 29
M  V30 29 1 29 30
M  V30 30 2 30 31
M  V30 31 1 31 32
M  V30 32 2 32 33
M  V30 33 1 33 34
M  V30 34 2 29 35
M  V30 35 1 21 36
M  V30 36 2 36 37
M  V30 37 2 14 38
M  V30 38 1 38 10
M  V30 39 1 37 18
M  V30 40 1 35 25
M  V30 41 1 34 30
M  V30 42 1 1 39
M  V30 43 1 1 40
M  V30 44 1 1 41
M  V30 45 1 3 42
M  V30 46 1 3 43
M  V30 47 1 3 44
M  V30 48 1 4 45
M  V30 49 1 4 46
M  V30 50 1 5 47
M  V30 51 1 6 48
M  V30 52 1 9 49
M  V30 53 1 11 50
M  V30 54 1 12 51
M  V30 55 1 13 52
M  V30 56 1 17 53
M  V30 57 1 19 54
M  V30 58 1 20 55
M  V30 59 1 22 56
M  V30 60 1 26 57
M  V30 61 1 27 58
M  V30 62 1 28 59
M  V30 63 1 31 60
M  V30 64 1 32 61
M  V30 65 1 34 62
M  V30 66 1 36 63
M  V30 67 1 37 64
M  V30 68 1 38 65
M  V30 END BOND
M  V30 END CTAB
M  END
>  <Dataset>  (194) 
ChEMBL_Kinases

>  <Ligand_Instance>  (194) 
nan

>  <PDB_ID>  (194) 
nan

>  <Standardized_SMILES>  (194) 
CN(C)C/C=C/C(=O)Nc1cccc(C(=O)Nc2ccc(NC(=O)c3cccc(-c4ccn[nH]4)n3)cc2)c1

>  <Name>  (194) 
nan

>  <Pocket>  (194) 
nan

>  <ATP_Site>  (194) 
nan

>  <Peripheral>  (194) 
nan

>  <Num_H_Atoms_ProtBoundConf>  (194) 
nan

>  <Num_Resolved_Atoms>  (194) 
nan

>  <Num_Not_Resolved_Atoms>  (194) 
nan

$$$$
CHEMBL4790198
     RDKit          3D

  0  0  0  0  0  0  0  0  0  0999 V3000
M  V30 BEGIN CTAB
M  V30 COUNTS 37 40 0 0 0
M  V30 BEGIN ATOM
M  V30 1 O -1.115198 -2.486718 2.697315 0
M  V30 2 C -0.269779 -1.685685 2.276041 0
M  V30 3 C 1.057399 -2.018594 2.456050 0
M  V30 4 C 1.407856 -3.202322 3.083286 0
M  V30 5 C 2.755718 -3.492775 3.240900 0
M  V30 6 C 3.778882 -2.667952 2.807562 0
M  V30 7 F 5.062982 -3.079433 3.029023 0
M  V30 8 C 3.412226 -1.484309 2.180323 0
M  V30 9 C 2.078261 -1.200326 2.026177 0
M  V30 10 N 1.711514 -0.064273 1.424140 0
M  V30 11 C 2.409116 0.935391 0.897902 0
M  V30 12 S 3.980724 1.224360 0.749959 0
M  V30 13 N 1.576727 1.865880 0.403580 0
M  V30 14 N 0.309719 1.471300 0.608269 0
M  V30 15 C 0.424910 0.272773 1.242060 0
M  V30 16 N -0.585207 -0.529428 1.663437 0
M  V30 17 C -1.999179 -0.283585 1.528144 0
M  V30 18 C -2.590424 -0.829115 0.255359 0
M  V30 19 C -1.938704 -0.220359 -0.920073 0
M  V30 20 C -2.364565 0.941665 -1.543450 0
M  V30 21 C -1.706169 1.464792 -2.650808 0
M  V30 22 C -0.597405 0.809643 -3.144106 0
M  V30 23 C -0.117097 -0.362205 -2.564905 0
M  V30 24 C -0.815489 -0.822930 -1.474371 0
M  V30 25 H 0.653231 -3.910319 3.455603 0
M  V30 26 H 3.009541 -4.422043 3.733243 0
M  V30 27 H 4.245790 -0.889539 1.868120 0
M  V30 28 H 1.690230 2.788325 -0.083606 0
M  V30 29 H -2.559766 -0.640964 2.408366 0
M  V30 30 H -2.148370 0.819124 1.503952 0
M  V30 31 H -3.674467 -0.670714 0.285629 0
M  V30 32 H -2.411359 -1.935505 0.174061 0
M  V30 33 H -3.239898 1.412036 -1.112172 0
M  V30 34 H -2.072748 2.386795 -3.117531 0
M  V30 35 H -0.046597 1.188275 -4.017831 0
M  V30 36 H 0.750750 -0.905146 -2.924113 0
M  V30 37 H -0.465507 -1.732546 -1.002565 0
M  V30 END ATOM
M  V30 BEGIN BOND
M  V30 1 2 1 2
M  V30 2 1 2 3
M  V30 3 2 3 4
M  V30 4 1 4 5
M  V30 5 2 5 6
M  V30 6 1 6 7
M  V30 7 1 6 8
M  V30 8 2 8 9
M  V30 9 1 9 10
M  V30 10 1 10 11
M  V30 11 2 11 12
M  V30 12 1 11 13
M  V30 13 1 13 14
M  V30 14 2 14 15
M  V30 15 1 15 16
M  V30 16 1 16 17
M  V30 17 1 17 18
M  V30 18 1 18 19
M  V30 19 2 19 20
M  V30 20 1 20 21
M  V30 21 2 21 22
M  V30 22 1 22 23
M  V30 23 2 23 24
M  V30 24 1 16 2
M  V30 25 1 24 19
M  V30 26 1 9 3
M  V30 27 1 15 10
M  V30 28 1 4 25
M  V30 29 1 5 26
M  V30 30 1 8 27
M  V30 31 1 13 28
M  V30 32 1 17 29
M  V30 33 1 17 30
M  V30 34 1 18 31
M  V30 35 1 18 32
M  V30 36 1 20 33
M  V30 37 1 21 34
M  V30 38 1 22 35
M  V30 39 1 23 36
M  V30 40 1 24 37
M  V30 END BOND
M  V30 END CTAB
M  END
>  <Dataset>  (195) 
ChEMBL_Kinases

>  <Ligand_Instance>  (195) 
nan

>  <PDB_ID>  (195) 
nan

>  <Standardized_SMILES>  (195) 
O=c1c2ccc(F)cc2n2c(=S)[nH]nc2n1CCc1ccccc1

>  <Name>  (195) 
nan

>  <Pocket>  (195) 
nan

>  <ATP_Site>  (195) 
nan

>  <Peripheral>  (195) 
nan

>  <Num_H_Atoms_ProtBoundConf>  (195) 
nan

>  <Num_Resolved_Atoms>  (195) 
nan

>  <Num_Not_Resolved_Atoms>  (195) 
nan

$$$$
CHEMBL4790247
     RDKit          3D

  0  0  0  0  0  0  0  0  0  0999 V3000
M  V30 BEGIN CTAB
M  V30 COUNTS 60 63 0 0 0
M  V30 BEGIN ATOM
M  V30 1 C 5.174352 -1.369875 2.231473 0
M  V30 2 C 3.938661 -2.199988 2.112173 0
M  V30 3 C 2.756350 -1.293186 1.889188 0
M  V30 4 S 2.578760 -0.179373 3.272067 0
M  V30 5 O 2.276549 -1.012068 4.485248 0
M  V30 6 O 3.836409 0.568316 3.486603 0
M  V30 7 N 1.217164 0.843857 2.983031 0
M  V30 8 C 1.143401 1.736124 1.878610 0
M  V30 9 C 2.302295 2.127055 1.246803 0
M  V30 10 C 2.251462 2.998652 0.182391 0
M  V30 11 C 1.022499 3.490475 -0.264316 0
M  V30 12 F 1.087245 4.337076 -1.310824 0
M  V30 13 C -0.146674 3.108386 0.355362 0
M  V30 14 C -1.364619 3.688437 -0.164992 0
M  V30 15 O -1.170981 4.820579 -0.706108 0
M  V30 16 C -2.756794 3.338717 -0.245752 0
M  V30 17 N -3.760308 4.200324 -0.354341 0
M  V30 18 N -4.918721 3.537455 -0.453995 0
M  V30 19 C -4.732713 2.207361 -0.416891 0
M  V30 20 N -5.529251 1.130963 -0.490243 0
M  V30 21 C -5.051609 -0.124823 -0.441508 0
M  V30 22 C -3.694617 -0.331888 -0.312645 0
M  V30 23 C -3.050840 -1.658305 -0.248271 0
M  V30 24 C -3.494128 -2.794962 -0.890760 0
M  V30 25 C -2.804287 -3.991585 -0.741017 0
M  V30 26 C -1.674507 -4.068866 0.044796 0
M  V30 27 S -0.763069 -5.554895 0.266443 0
M  V30 28 O -1.665785 -6.759690 0.083582 0
M  V30 29 O -0.153077 -5.660174 1.621355 0
M  V30 30 N 0.524704 -5.642005 -0.900318 0
M  V30 31 C 0.669579 -4.566762 -1.809616 0
M  V30 32 C 1.780805 -4.666965 -2.799843 0
M  V30 33 O -0.107368 -3.569518 -1.783956 0
M  V30 34 C -1.186236 -2.943390 0.716640 0
M  V30 35 C -1.901925 -1.759818 0.544516 0
M  V30 36 C -2.890707 0.784797 -0.239187 0
M  V30 37 C -3.362390 2.099508 -0.285677 0
M  V30 38 C -0.058362 2.246959 1.406888 0
M  V30 39 F -1.127476 1.848983 2.093304 0
M  V30 40 H 5.075457 -0.425296 1.633605 0
M  V30 41 H 5.404428 -1.152670 3.297644 0
M  V30 42 H 6.074338 -1.921952 1.839232 0
M  V30 43 H 4.054017 -2.917434 1.260465 0
M  V30 44 H 3.784542 -2.827119 3.019262 0
M  V30 45 H 2.947347 -0.695460 0.984861 0
M  V30 46 H 1.818441 -1.858458 1.706869 0
M  V30 47 H 0.371990 0.855069 3.617360 0
M  V30 48 H 3.257621 1.762420 1.567529 0
M  V30 49 H 3.167663 3.281179 -0.280373 0
M  V30 50 H -5.820552 4.051048 -0.546962 0
M  V30 51 H -5.671184 -1.010676 -0.498101 0
M  V30 52 H -4.383400 -2.694262 -1.493043 0
M  V30 53 H -3.152806 -4.880879 -1.244430 0
M  V30 54 H 1.104984 -6.505184 -0.832889 0
M  V30 55 H 1.792497 -3.809768 -3.498120 0
M  V30 56 H 1.788928 -5.652510 -3.320283 0
M  V30 57 H 2.766895 -4.633273 -2.252139 0
M  V30 58 H -0.310344 -3.000419 1.326207 0
M  V30 59 H -1.478236 -0.917762 1.091409 0
M  V30 60 H -1.829744 0.642555 -0.153445 0
M  V30 END ATOM
M  V30 BEGIN BOND
M  V30 1 1 1 2
M  V30 2 1 2 3
M  V30 3 1 3 4
M  V30 4 2 4 5
M  V30 5 2 4 6
M  V30 6 1 4 7
M  V30 7 1 7 8
M  V30 8 2 8 9
M  V30 9 1 9 10
M  V30 10 2 10 11
M  V30 11 1 11 12
M  V30 12 1 11 13
M  V30 13 1 13 14
M  V30 14 2 14 15
M  V30 15 1 14 16
M  V30 16 2 16 17
M  V30 17 1 17 18
M  V30 18 1 18 19
M  V30 19 2 19 20
M  V30 20 1 20 21
M  V30 21 2 21 22
M  V30 22 1 22 23
M  V30 23 2 23 24
M  V30 24 1 24 25
M  V30 25 2 25 26
M  V30 26 1 26 27
M  V30 27 2 27 28
M  V30 28 2 27 29
M  V30 29 1 27 30
M  V30 30 1 30 31
M  V30 31 1 31 32
M  V30 32 2 31 33
M  V30 33 1 26 34
M  V30 34 2 34 35
M  V30 35 1 22 36
M  V30 36 2 36 37
M  V30 37 2 13 38
M  V30 38 1 38 39
M  V30 39 1 38 8
M  V30 40 1 37 16
M  V30 41 1 37 19
M  V30 42 1 35 23
M  V30 43 1 1 40
M  V30 44 1 1 41
M  V30 45 1 1 42
M  V30 46 1 2 43
M  V30 47 1 2 44
M  V30 48 1 3 45
M  V30 49 1 3 46
M  V30 50 1 7 47
M  V30 51 1 9 48
M  V30 52 1 10 49
M  V30 53 1 18 50
M  V30 54 1 21 51
M  V30 55 1 24 52
M  V30 56 1 25 53
M  V30 57 1 30 54
M  V30 58 1 32 55
M  V30 59 1 32 56
M  V30 60 1 32 57
M  V30 61 1 34 58
M  V30 62 1 35 59
M  V30 63 1 36 60
M  V30 END BOND
M  V30 END CTAB
M  END
>  <Dataset>  (196) 
ChEMBL_Kinases

>  <Ligand_Instance>  (196) 
nan

>  <PDB_ID>  (196) 
nan

>  <Standardized_SMILES>  (196) 
CCCS(=O)(=O)Nc1ccc(F)c(C(=O)c2n[nH]c3ncc(-c4ccc(S(=O)(=O)NC(C)=O)cc4)cc23)c1F

>  <Name>  (196) 
nan

>  <Pocket>  (196) 
nan

>  <ATP_Site>  (196) 
nan

>  <Peripheral>  (196) 
nan

>  <Num_H_Atoms_ProtBoundConf>  (196) 
nan

>  <Num_Resolved_Atoms>  (196) 
nan

>  <Num_Not_Resolved_Atoms>  (196) 
nan

$$$$
CHEMBL479028
     RDKit          3D

  0  0  0  0  0  0  0  0  0  0999 V3000
M  V30 BEGIN CTAB
M  V30 COUNTS 61 64 0 0 0
M  V30 BEGIN ATOM
M  V30 1 C -1.583871 4.173214 3.392199 0
M  V30 2 C -0.169993 4.037620 2.933158 0
M  V30 3 C 0.697292 5.088042 3.174073 0
M  V30 4 C 2.039170 5.043636 2.778363 0
M  V30 5 C 2.486510 3.906095 2.129678 0
M  V30 6 C 3.886217 3.861989 1.717082 0
M  V30 7 O 4.591642 4.864818 1.995773 0
M  V30 8 N 4.480566 2.783118 1.038349 0
M  V30 9 C 5.865233 2.792896 0.655111 0
M  V30 10 C 6.618225 1.620426 0.222170 0
M  V30 11 C 6.050713 2.512348 -0.862427 0
M  V30 12 C 1.596668 2.885259 1.908841 0
M  V30 13 C 0.269698 2.899897 2.286605 0
M  V30 14 C -0.632592 1.782322 2.022866 0
M  V30 15 C -1.912832 1.800740 1.511922 0
M  V30 16 C -2.601981 0.617061 1.341918 0
M  V30 17 C -2.084743 -0.622200 1.656876 0
M  V30 18 C -2.909768 -1.801746 1.430026 0
M  V30 19 O -4.046537 -1.609880 0.931400 0
M  V30 20 N -2.526043 -3.122849 1.727098 0
M  V30 21 C -3.307823 -4.317778 1.518624 0
M  V30 22 C -3.356424 -4.768396 0.118117 0
M  V30 23 C -4.304814 -4.379277 -0.791494 0
M  V30 24 C -4.293283 -4.841997 -2.094365 0
M  V30 25 C -3.327951 -5.708511 -2.518496 0
M  V30 26 C -2.339450 -6.153934 -1.684836 0
M  V30 27 N -1.275090 -7.046330 -1.970737 0
M  V30 28 S -0.289148 -6.987733 -3.384368 0
M  V30 29 C -1.216288 -7.225907 -4.873427 0
M  V30 30 O 0.837094 -7.974260 -3.286393 0
M  V30 31 O 0.325926 -5.621030 -3.455943 0
M  V30 32 C -2.397174 -5.655859 -0.379291 0
M  V30 33 C -0.804281 -0.655219 2.169270 0
M  V30 34 C -0.099640 0.542393 2.344077 0
M  V30 35 H -1.614056 4.713402 4.383575 0
M  V30 36 H -2.045291 3.177732 3.637297 0
M  V30 37 H -2.189023 4.772550 2.714245 0
M  V30 38 H 0.320719 5.979268 3.690523 0
M  V30 39 H 2.658707 5.902498 3.001150 0
M  V30 40 H 3.875014 1.948702 0.811951 0
M  V30 41 H 6.391391 3.719275 0.963220 0
M  V30 42 H 6.287603 0.590203 0.331674 0
M  V30 43 H 7.736540 1.716745 0.325861 0
M  V30 44 H 5.193538 2.045942 -1.399290 0
M  V30 45 H 6.711096 3.174254 -1.434489 0
M  V30 46 H 1.925930 1.989238 1.404841 0
M  V30 47 H -2.273547 2.785125 1.281677 0
M  V30 48 H -3.598804 0.749040 0.933854 0
M  V30 49 H -1.565239 -3.207858 2.141822 0
M  V30 50 H -2.906794 -5.112390 2.204524 0
M  V30 51 H -4.349082 -4.132017 1.922687 0
M  V30 52 H -5.073264 -3.707917 -0.502634 0
M  V30 53 H -5.034583 -4.549808 -2.841601 0
M  V30 54 H -3.275343 -6.103134 -3.539229 0
M  V30 55 H -1.076626 -7.804767 -1.255795 0
M  V30 56 H -1.600456 -6.252991 -5.247817 0
M  V30 57 H -2.110214 -7.862565 -4.675039 0
M  V30 58 H -0.590162 -7.747803 -5.654729 0
M  V30 59 H -1.638399 -5.967242 0.348857 0
M  V30 60 H -0.362438 -1.602964 2.428802 0
M  V30 61 H 0.909736 0.407893 2.757676 0
M  V30 END ATOM
M  V30 BEGIN BOND
M  V30 1 1 1 2
M  V30 2 2 2 3
M  V30 3 1 3 4
M  V30 4 2 4 5
M  V30 5 1 5 6
M  V30 6 2 6 7
M  V30 7 1 6 8
M  V30 8 1 8 9
M  V30 9 1 9 10
M  V30 10 1 10 11
M  V30 11 1 5 12
M  V30 12 2 12 13
M  V30 13 1 13 14
M  V30 14 2 14 15
M  V30 15 1 15 16
M  V30 16 2 16 17
M  V30 17 1 17 18
M  V30 18 2 18 19
M  V30 19 1 18 20
M  V30 20 1 20 21
M  V30 21 1 21 22
M  V30 22 2 22 23
M  V30 23 1 23 24
M  V30 24 2 24 25
M  V30 25 1 25 26
M  V30 26 1 26 27
M  V30 27 1 27 28
M  V30 28 1 28 29
M  V30 29 2 28 30
M  V30 30 2 28 31
M  V30 31 2 26 32
M  V30 32 1 17 33
M  V30 33 2 33 34
M  V30 34 1 13 2
M  V30 35 1 34 14
M  V30 36 1 11 9
M  V30 37 1 32 22
M  V30 38 1 1 35
M  V30 39 1 1 36
M  V30 40 1 1 37
M  V30 41 1 3 38
M  V30 42 1 4 39
M  V30 43 1 8 40
M  V30 44 1 9 41
M  V30 45 1 10 42
M  V30 46 1 10 43
M  V30 47 1 11 44
M  V30 48 1 11 45
M  V30 49 1 12 46
M  V30 50 1 15 47
M  V30 51 1 16 48
M  V30 52 1 20 49
M  V30 53 1 21 50
M  V30 54 1 21 51
M  V30 55 1 23 52
M  V30 56 1 24 53
M  V30 57 1 25 54
M  V30 58 1 27 55
M  V30 59 1 29 56
M  V30 60 1 29 57
M  V30 61 1 29 58
M  V30 62 1 32 59
M  V30 63 1 33 60
M  V30 64 1 34 61
M  V30 END BOND
M  V30 END CTAB
M  END
>  <Dataset>  (197) 
ChEMBL_Kinases

>  <Ligand_Instance>  (197) 
nan

>  <PDB_ID>  (197) 
nan

>  <Standardized_SMILES>  (197) 
Cc1ccc(C(=O)NC2CC2)cc1-c1ccc(C(=O)NCc2cccc(NS(C)(=O)=O)c2)cc1

>  <Name>  (197) 
nan

>  <Pocket>  (197) 
nan

>  <ATP_Site>  (197) 
nan

>  <Peripheral>  (197) 
nan

>  <Num_H_Atoms_ProtBoundConf>  (197) 
nan

>  <Num_Resolved_Atoms>  (197) 
nan

>  <Num_Not_Resolved_Atoms>  (197) 
nan

$$$$
CHEMBL4790284
     RDKit          3D

  0  0  0  0  0  0  0  0  0  0999 V3000
M  V30 BEGIN CTAB
M  V30 COUNTS 44 47 0 0 0
M  V30 BEGIN ATOM
M  V30 1 C 5.285470 -4.662218 2.242264 0
M  V30 2 C 4.202763 -3.882917 1.595962 0
M  V30 3 O 3.025917 -3.786138 2.062250 0
M  V30 4 N 4.377816 -3.157163 0.373600 0
M  V30 5 C 3.166140 -2.507829 -0.002626 0
M  V30 6 C 2.261079 -3.180892 -0.810990 0
M  V30 7 C 1.094116 -2.504998 -1.150320 0
M  V30 8 C 0.886561 -1.231361 -0.685446 0
M  V30 9 C 1.788092 -0.567053 0.116973 0
M  V30 10 C 2.962669 -1.208969 0.475996 0
M  V30 11 C 1.571076 0.706991 0.576787 0
M  V30 12 O 2.413898 1.291048 1.310107 0
M  V30 13 N 0.430746 1.326427 0.226520 0
M  V30 14 C 0.219634 2.661455 0.716908 0
M  V30 15 C -0.496637 2.666130 2.054917 0
M  V30 16 C -1.828727 2.025647 1.988911 0
M  V30 17 C -1.947819 0.657717 2.231274 0
M  V30 18 C -3.224042 0.127931 2.152153 0
M  V30 19 C -4.365249 0.859676 1.853063 0
M  V30 20 C -4.187701 2.200603 1.624034 0
M  V30 21 C -2.935839 2.785209 1.689346 0
M  V30 22 C -0.434128 0.658150 -0.557391 0
M  V30 23 N -1.621914 1.079460 -1.024379 0
M  V30 24 N -2.146307 0.098047 -1.762171 0
M  V30 25 C -1.272460 -0.921222 -1.741625 0
M  V30 26 S -1.664833 -2.262550 -2.570083 0
M  V30 27 N -0.213765 -0.579025 -0.998559 0
M  V30 28 H 6.087590 -4.058350 2.684427 0
M  V30 29 H 5.747212 -5.420050 1.580171 0
M  V30 30 H 4.789449 -5.203879 3.096181 0
M  V30 31 H 5.334546 -3.185294 -0.084223 0
M  V30 32 H 2.503722 -4.167486 -1.125697 0
M  V30 33 H 0.447486 -3.087675 -1.774203 0
M  V30 34 H 3.716410 -0.755665 1.100377 0
M  V30 35 H -0.476454 3.159684 -0.012483 0
M  V30 36 H 1.144508 3.247560 0.824562 0
M  V30 37 H -0.555241 3.678991 2.482600 0
M  V30 38 H 0.114078 2.082048 2.803941 0
M  V30 39 H -1.101263 0.026011 2.469977 0
M  V30 40 H -3.311409 -0.942009 2.342539 0
M  V30 41 H -5.338044 0.360745 1.810766 0
M  V30 42 H -5.088821 2.756988 1.391917 0
M  V30 43 H -2.886125 3.861187 1.492517 0
M  V30 44 H -3.076317 0.284219 -2.193255 0
M  V30 END ATOM
M  V30 BEGIN BOND
M  V30 1 1 1 2
M  V30 2 2 2 3
M  V30 3 1 2 4
M  V30 4 1 4 5
M  V30 5 2 5 6
M  V30 6 1 6 7
M  V30 7 2 7 8
M  V30 8 1 8 9
M  V30 9 2 9 10
M  V30 10 1 9 11
M  V30 11 2 11 12
M  V30 12 1 11 13
M  V30 13 1 13 14
M  V30 14 1 14 15
M  V30 15 1 15 16
M  V30 16 2 16 17
M  V30 17 1 17 18
M  V30 18 2 18 19
M  V30 19 1 19 20
M  V30 20 2 20 21
M  V30 21 1 13 22
M  V30 22 2 22 23
M  V30 23 1 23 24
M  V30 24 1 24 25
M  V30 25 2 25 26
M  V30 26 1 25 27
M  V30 27 1 10 5
M  V30 28 1 21 16
M  V30 29 1 27 22
M  V30 30 1 27 8
M  V30 31 1 1 28
M  V30 32 1 1 29
M  V30 33 1 1 30
M  V30 34 1 4 31
M  V30 35 1 6 32
M  V30 36 1 7 33
M  V30 37 1 10 34
M  V30 38 1 14 35
M  V30 39 1 14 36
M  V30 40 1 15 37
M  V30 41 1 15 38
M  V30 42 1 17 39
M  V30 43 1 18 40
M  V30 44 1 19 41
M  V30 45 1 20 42
M  V30 46 1 21 43
M  V30 47 1 24 44
M  V30 END BOND
M  V30 END CTAB
M  END
>  <Dataset>  (198) 
ChEMBL_Kinases

>  <Ligand_Instance>  (198) 
nan

>  <PDB_ID>  (198) 
nan

>  <Standardized_SMILES>  (198) 
CC(=O)Nc1ccc2c(c1)c(=O)n(CCc1ccccc1)c1n[nH]c(=S)n21

>  <Name>  (198) 
nan

>  <Pocket>  (198) 
nan

>  <ATP_Site>  (198) 
nan

>  <Peripheral>  (198) 
nan

>  <Num_H_Atoms_ProtBoundConf>  (198) 
nan

>  <Num_Resolved_Atoms>  (198) 
nan

>  <Num_Not_Resolved_Atoms>  (198) 
nan

$$$$
CHEMBL4790293
     RDKit          3D

  0  0  0  0  0  0  0  0  0  0999 V3000
M  V30 BEGIN CTAB
M  V30 COUNTS 52 55 0 0 0
M  V30 BEGIN ATOM
M  V30 1 N -0.431493 -5.527983 3.019881 0
M  V30 2 C 0.224245 -4.364588 2.473020 0
M  V30 3 N 1.532032 -4.333827 2.836252 0
M  V30 4 C 2.335923 -3.332460 2.435867 0
M  V30 5 C 1.794653 -2.338164 1.646179 0
M  V30 6 C 2.564657 -1.198260 1.147648 0
M  V30 7 C 3.927738 -1.206663 0.819453 0
M  V30 8 N 4.246187 0.031960 0.405398 0
M  V30 9 N 3.183658 0.816340 0.449836 0
M  V30 10 C 2.921128 2.200499 0.137738 0
M  V30 11 C 2.132681 2.326692 -1.169056 0
M  V30 12 C 1.468392 3.687624 -1.134361 0
M  V30 13 N 2.210538 4.661745 -0.374758 0
M  V30 14 C 2.298947 4.355825 1.026261 0
M  V30 15 C 2.053235 2.857939 1.210418 0
M  V30 16 C 2.120351 0.088977 0.905342 0
M  V30 17 C 0.470480 -2.344494 1.262614 0
M  V30 18 C -0.354247 -3.368875 1.671465 0
M  V30 19 O -1.686585 -3.674551 1.475262 0
M  V30 20 C -2.510889 -2.841526 0.701366 0
M  V30 21 C -3.672484 -2.288421 1.534384 0
M  V30 22 C -4.598666 -1.588979 0.586486 0
M  V30 23 C -4.004976 -1.323238 -0.768794 0
M  V30 24 C -3.571337 -2.562358 -1.487492 0
M  V30 25 C -3.071841 -3.587674 -0.512913 0
M  V30 26 H -0.002114 -6.465739 2.858854 0
M  V30 27 H -1.293196 -5.228612 3.526742 0
M  V30 28 H 3.390783 -3.227613 2.678521 0
M  V30 29 H 4.547056 -2.087940 0.908976 0
M  V30 30 H 3.846847 2.768128 0.026332 0
M  V30 31 H 1.320074 1.557345 -1.221361 0
M  V30 32 H 2.799051 2.213890 -2.043717 0
M  V30 33 H 0.445102 3.613842 -0.704261 0
M  V30 34 H 1.371344 4.109457 -2.166593 0
M  V30 35 H 3.095436 4.948359 -0.823649 0
M  V30 36 H 1.644351 4.951655 1.677981 0
M  V30 37 H 3.372652 4.491017 1.304047 0
M  V30 38 H 0.967596 2.671244 1.027963 0
M  V30 39 H 2.316626 2.555505 2.229439 0
M  V30 40 H 1.076318 0.338562 1.090724 0
M  V30 41 H -0.064757 -1.639063 0.658386 0
M  V30 42 H -2.014805 -1.951531 0.276571 0
M  V30 43 H -4.180016 -3.142015 2.064077 0
M  V30 44 H -3.235988 -1.558741 2.254246 0
M  V30 45 H -4.883644 -0.590655 1.005089 0
M  V30 46 H -5.491783 -2.244386 0.440868 0
M  V30 47 H -4.854299 -0.900476 -1.381973 0
M  V30 48 H -3.213371 -0.547919 -0.677922 0
M  V30 49 H -2.686582 -2.300171 -2.135393 0
M  V30 50 H -4.408507 -2.988500 -2.113756 0
M  V30 51 H -2.204263 -4.152399 -0.917911 0
M  V30 52 H -3.877898 -4.235327 -0.156087 0
M  V30 END ATOM
M  V30 BEGIN BOND
M  V30 1 1 1 2
M  V30 2 2 2 3
M  V30 3 1 3 4
M  V30 4 2 4 5
M  V30 5 1 5 6
M  V30 6 1 6 7
M  V30 7 2 7 8
M  V30 8 1 8 9
M  V30 9 1 9 10
M  V30 10 1 10 11
M  V30 11 1 11 12
M  V30 12 1 12 13
M  V30 13 1 13 14
M  V30 14 1 14 15
M  V30 15 1 9 16
M  V30 16 1 5 17
M  V30 17 2 17 18
M  V30 18 1 18 19
M  V30 19 1 19 20
M  V30 20 1 20 21
M  V30 21 1 21 22
M  V30 22 1 22 23
M  V30 23 1 23 24
M  V30 24 1 24 25
M  V30 25 1 18 2
M  V30 26 1 25 20
M  V30 27 2 16 6
M  V30 28 1 15 10
M  V30 29 1 1 26
M  V30 30 1 1 27
M  V30 31 1 4 28
M  V30 32 1 7 29
M  V30 33 1 10 30
M  V30 34 1 11 31
M  V30 35 1 11 32
M  V30 36 1 12 33
M  V30 37 1 12 34
M  V30 38 1 13 35
M  V30 39 1 14 36
M  V30 40 1 14 37
M  V30 41 1 15 38
M  V30 42 1 15 39
M  V30 43 1 16 40
M  V30 44 1 17 41
M  V30 45 1 20 42
M  V30 46 1 21 43
M  V30 47 1 21 44
M  V30 48 1 22 45
M  V30 49 1 22 46
M  V30 50 1 23 47
M  V30 51 1 23 48
M  V30 52 1 24 49
M  V30 53 1 24 50
M  V30 54 1 25 51
M  V30 55 1 25 52
M  V30 END BOND
M  V30 END CTAB
M  END
>  <Dataset>  (199) 
ChEMBL_Kinases

>  <Ligand_Instance>  (199) 
nan

>  <PDB_ID>  (199) 
nan

>  <Standardized_SMILES>  (199) 
Nc1ncc(-c2cnn(C3CCNCC3)c2)cc1OC1CCCCC1

>  <Name>  (199) 
nan

>  <Pocket>  (199) 
nan

>  <ATP_Site>  (199) 
nan

>  <Peripheral>  (199) 
nan

>  <Num_H_Atoms_ProtBoundConf>  (199) 
nan

>  <Num_Resolved_Atoms>  (199) 
nan

>  <Num_Not_Resolved_Atoms>  (199) 
nan

$$$$
CHEMBL4790097
     RDKit          3D

  0  0  0  0  0  0  0  0  0  0999 V3000
M  V30 BEGIN CTAB
M  V30 COUNTS 60 64 0 0 0
M  V30 BEGIN ATOM
M  V30 1 C -0.085952 -3.574000 5.399644 0
M  V30 2 O 0.671426 -4.676855 5.001495 0
M  V30 3 C 1.268096 -4.800572 3.755466 0
M  V30 4 C 1.203294 -3.874846 2.750536 0
M  V30 5 C 1.850926 -4.140370 1.561977 0
M  V30 6 C 1.795885 -3.160709 0.476002 0
M  V30 7 C 1.726547 -1.844715 0.883650 0
M  V30 8 N 1.674483 -0.911000 -0.080306 0
M  V30 9 C 1.684708 -1.159443 -1.396544 0
M  V30 10 C 1.633681 -0.241826 -2.372302 0
M  V30 11 N 1.559572 1.172450 -2.307889 0
M  V30 12 C 2.815180 1.896055 -2.280357 0
M  V30 13 C 2.855633 2.919718 -1.198265 0
M  V30 14 C 1.699738 2.834200 -0.229789 0
M  V30 15 C 0.366155 2.816823 -0.935908 0
M  V30 16 C -0.687724 2.232670 -0.030189 0
M  V30 17 N -1.989056 2.215698 -0.714148 0
M  V30 18 C -3.168573 1.701915 -0.063878 0
M  V30 19 O -2.941198 1.285578 1.119440 0
M  V30 20 N -4.421822 1.686153 -0.719008 0
M  V30 21 C -5.523826 1.152765 0.021367 0
M  V30 22 C -6.915251 1.671394 -0.171507 0
M  V30 23 C -6.548402 0.318238 -0.727902 0
M  V30 24 C 0.436475 2.090467 -2.260528 0
M  V30 25 S 1.674638 -1.077045 -3.895643 0
M  V30 26 N 1.767488 -2.786503 -3.137579 0
M  V30 27 C 1.753473 -2.466708 -1.802787 0
M  V30 28 C 1.809664 -3.477810 -0.866971 0
M  V30 29 C 2.575410 -5.281810 1.287381 0
M  V30 30 C 2.639980 -6.214852 2.302134 0
M  V30 31 C 1.987972 -5.930940 3.478396 0
M  V30 32 N 2.102548 -6.934409 4.473803 0
M  V30 33 H 0.108707 -3.422640 6.489213 0
M  V30 34 H -1.155617 -3.795923 5.261084 0
M  V30 35 H 0.201906 -2.628228 4.893545 0
M  V30 36 H 0.643023 -2.963759 2.926853 0
M  V30 37 H 1.712671 -1.535888 1.936268 0
M  V30 38 H 3.690010 1.231823 -2.222604 0
M  V30 39 H 2.885850 2.425750 -3.270603 0
M  V30 40 H 3.788509 2.792515 -0.612874 0
M  V30 41 H 2.873378 3.963284 -1.568984 0
M  V30 42 H 1.791512 3.687477 0.472419 0
M  V30 43 H 1.829358 1.912228 0.373583 0
M  V30 44 H 0.079826 3.865797 -1.152139 0
M  V30 45 H -0.832050 2.947314 0.817741 0
M  V30 46 H -0.414433 1.234016 0.320205 0
M  V30 47 H -2.146644 2.566994 -1.697961 0
M  V30 48 H -4.534351 2.042961 -1.686088 0
M  V30 49 H -5.292910 0.783950 1.052133 0
M  V30 50 H -7.619928 1.661401 0.684489 0
M  V30 51 H -7.023448 2.533361 -0.859340 0
M  V30 52 H -6.978205 -0.590519 -0.230327 0
M  V30 53 H -6.507509 0.292155 -1.851298 0
M  V30 54 H -0.518770 1.536703 -2.372089 0
M  V30 55 H 0.487459 2.811844 -3.100681 0
M  V30 56 H 1.865161 -4.527461 -1.038671 0
M  V30 57 H 3.063860 -5.439230 0.336726 0
M  V30 58 H 3.194066 -7.119413 2.132072 0
M  V30 59 H 1.185300 -7.416860 4.713187 0
M  V30 60 H 2.308777 -7.634325 5.199222 0
M  V30 END ATOM
M  V30 BEGIN BOND
M  V30 1 1 1 2
M  V30 2 1 2 3
M  V30 3 2 3 4
M  V30 4 1 4 5
M  V30 5 1 5 6
M  V30 6 1 6 7
M  V30 7 2 7 8
M  V30 8 1 8 9
M  V30 9 2 9 10
M  V30 10 1 10 11
M  V30 11 1 11 12
M  V30 12 1 12 13
M  V30 13 1 13 14
M  V30 14 1 14 15
M  V30 15 1 15 16
M  V30 16 1 16 17
M  V30 17 1 17 18
M  V30 18 2 18 19
M  V30 19 1 18 20
M  V30 20 1 20 21
M  V30 21 1 21 22
M  V30 22 1 22 23
M  V30 23 1 15 24
M  V30 24 1 10 25
M  V30 25 1 25 26
M  V30 26 2 26 27
M  V30 27 1 27 28
M  V30 28 2 5 29
M  V30 29 1 29 30
M  V30 30 2 30 31
M  V30 31 1 31 32
M  V30 32 1 31 3
M  V30 33 2 28 6
M  V30 34 1 27 9
M  V30 35 1 24 11
M  V30 36 1 23 21
M  V30 37 1 1 33
M  V30 38 1 1 34
M  V30 39 1 1 35
M  V30 40 1 4 36
M  V30 41 1 7 37
M  V30 42 1 12 38
M  V30 43 1 12 39
M  V30 44 1 13 40
M  V30 45 1 13 41
M  V30 46 1 14 42
M  V30 47 1 14 43
M  V30 48 1 15 44
M  V30 49 1 16 45
M  V30 50 1 16 46
M  V30 51 1 17 47
M  V30 52 1 20 48
M  V30 53 1 21 49
M  V30 54 1 22 50
M  V30 55 1 22 51
M  V30 56 1 23 52
M  V30 57 1 23 53
M  V30 58 1 24 54
M  V30 59 1 24 55
M  V30 60 1 28 56
M  V30 61 1 29 57
M  V30 62 1 30 58
M  V30 63 1 32 59
M  V30 64 1 32 60
M  V30 END BOND
M  V30 END CTAB
M  END
>  <Dataset>  (200) 
ChEMBL_Kinases

>  <Ligand_Instance>  (200) 
nan

>  <PDB_ID>  (200) 
nan

>  <Standardized_SMILES>  (200) 
COc1cc(-c2cnc3c(N4CCCC(CNC(=O)NC5CC5)C4)snc3c2)ccc1N

>  <Name>  (200) 
nan

>  <Pocket>  (200) 
nan

>  <ATP_Site>  (200) 
nan

>  <Peripheral>  (200) 
nan

>  <Num_H_Atoms_ProtBoundConf>  (200) 
nan

>  <Num_Resolved_Atoms>  (200) 
nan

>  <Num_Not_Resolved_Atoms>  (200) 
nan

$$$$
CHEMBL4159491
     RDKit          3D

  0  0  0  0  0  0  0  0  0  0999 V3000
M  V30 BEGIN CTAB
M  V30 COUNTS 60 64 0 0 0
M  V30 BEGIN ATOM
M  V30 1 C 3.604851 1.563177 6.354664 0
M  V30 2 C 3.461096 0.382803 5.450462 0
M  V30 3 O 2.621179 0.558647 4.353178 0
M  V30 4 C 2.831561 1.510544 3.384828 0
M  V30 5 O 3.890503 2.152003 3.692987 0
M  V30 6 C 1.913245 1.626352 2.282329 0
M  V30 7 C 0.847768 2.464894 2.476980 0
M  V30 8 C 0.644297 3.200083 3.750723 0
M  V30 9 N -0.027476 2.604687 1.456184 0
M  V30 10 C 0.140652 1.943021 0.287309 0
M  V30 11 N -0.720974 2.022276 -0.844602 0
M  V30 12 N -1.698020 1.041970 -0.657164 0
M  V30 13 C -1.723805 -0.345921 -1.042971 0
M  V30 14 O -0.631799 -0.534968 -1.619270 0
M  V30 15 C -2.919218 -1.097978 -0.686491 0
M  V30 16 C -3.634805 -0.713919 0.428565 0
M  V30 17 C -4.740240 -1.435630 0.736216 0
M  V30 18 C -5.184622 -2.502660 0.023817 0
M  V30 19 C -4.483979 -2.900698 -1.092103 0
M  V30 20 C -4.955987 -3.988133 -1.798430 0
M  V30 21 O -6.001586 -4.569420 -1.398681 0
M  V30 22 C -4.240775 -4.368428 -2.908334 0
M  V30 23 C -4.690234 -5.458895 -3.639086 0
M  V30 24 C -3.999134 -5.859575 -4.746789 0
M  V30 25 C -2.856266 -5.146071 -5.099752 0
M  V30 26 C -2.403345 -4.048377 -4.364650 0
M  V30 27 C -3.113389 -3.646059 -3.237172 0
M  V30 28 N -2.684065 -2.590296 -2.522918 0
M  V30 29 C -3.345296 -2.177064 -1.430191 0
M  V30 30 N 1.205272 1.136949 0.160868 0
M  V30 31 C 2.133373 0.931712 1.120410 0
M  V30 32 C 3.244859 0.041251 0.825311 0
M  V30 33 C 3.811881 0.347521 -0.419777 0
M  V30 34 C 4.877847 -0.336002 -0.962152 0
M  V30 35 C 5.440756 -1.382682 -0.269982 0
M  V30 36 F 6.485172 -2.082477 -0.758897 0
M  V30 37 C 4.886684 -1.684479 0.949536 0
M  V30 38 C 3.821730 -1.009288 1.502885 0
M  V30 39 H 2.651767 2.124218 6.435765 0
M  V30 40 H 4.461678 2.228714 6.126112 0
M  V30 41 H 3.828047 1.168306 7.387211 0
M  V30 42 H 3.023026 -0.458303 6.059618 0
M  V30 43 H 4.486445 0.028554 5.201880 0
M  V30 44 H 1.033642 4.239931 3.695164 0
M  V30 45 H -0.456087 3.242465 3.994917 0
M  V30 46 H 1.124618 2.716032 4.605780 0
M  V30 47 H -0.615315 2.691865 -1.639201 0
M  V30 48 H -2.460874 1.576345 -0.137490 0
M  V30 49 H -3.317123 0.142730 1.040264 0
M  V30 50 H -5.305178 -1.141762 1.605935 0
M  V30 51 H -6.080361 -3.027366 0.337973 0
M  V30 52 H -5.576366 -5.998693 -3.349832 0
M  V30 53 H -4.348394 -6.708738 -5.317384 0
M  V30 54 H -2.367648 -5.530779 -5.990470 0
M  V30 55 H -1.504615 -3.547222 -4.705586 0
M  V30 56 H -1.823261 -2.093608 -2.834440 0
M  V30 57 H 3.477162 1.150715 -1.089708 0
M  V30 58 H 5.327020 -0.114630 -1.917577 0
M  V30 59 H 5.254957 -2.488407 1.574480 0
M  V30 60 H 3.335820 -1.194199 2.443620 0
M  V30 END ATOM
M  V30 BEGIN BOND
M  V30 1 1 1 2
M  V30 2 1 2 3
M  V30 3 1 3 4
M  V30 4 2 4 5
M  V30 5 1 4 6
M  V30 6 2 6 7
M  V30 7 1 7 8
M  V30 8 1 7 9
M  V30 9 2 9 10
M  V30 10 1 10 11
M  V30 11 1 11 12
M  V30 12 1 12 13
M  V30 13 2 13 14
M  V30 14 1 13 15
M  V30 15 2 15 16
M  V30 16 1 16 17
M  V30 17 2 17 18
M  V30 18 1 18 19
M  V30 19 1 19 20
M  V30 20 2 20 21
M  V30 21 1 20 22
M  V30 22 2 22 23
M  V30 23 1 23 24
M  V30 24 2 24 25
M  V30 25 1 25 26
M  V30 26 2 26 27
M  V30 27 1 27 28
M  V30 28 1 28 29
M  V30 29 1 10 30
M  V30 30 2 30 31
M  V30 31 1 31 32
M  V30 32 2 32 33
M  V30 33 1 33 34
M  V30 34 2 34 35
M  V30 35 1 35 36
M  V30 36 1 35 37
M  V30 37 2 37 38
M  V30 38 1 31 6
M  V30 39 1 38 32
M  V30 40 1 29 15
M  V30 41 2 29 19
M  V30 42 1 27 22
M  V30 43 1 1 39
M  V30 44 1 1 40
M  V30 45 1 1 41
M  V30 46 1 2 42
M  V30 47 1 2 43
M  V30 48 1 8 44
M  V30 49 1 8 45
M  V30 50 1 8 46
M  V30 51 1 11 47
M  V30 52 1 12 48
M  V30 53 1 16 49
M  V30 54 1 17 50
M  V30 55 1 18 51
M  V30 56 1 23 52
M  V30 57 1 24 53
M  V30 58 1 25 54
M  V30 59 1 26 55
M  V30 60 1 28 56
M  V30 61 1 33 57
M  V30 62 1 34 58
M  V30 63 1 37 59
M  V30 64 1 38 60
M  V30 END BOND
M  V30 END CTAB
M  END
>  <Dataset>  (201) 
ChEMBL_Kinases

>  <Ligand_Instance>  (201) 
nan

>  <PDB_ID>  (201) 
nan

>  <Standardized_SMILES>  (201) 
CCOC(=O)c1c(C)nc(NNC(=O)c2cccc3c(=O)c4ccccc4[nH]c23)nc1-c1ccc(F)cc1

>  <Name>  (201) 
nan

>  <Pocket>  (201) 
nan

>  <ATP_Site>  (201) 
nan

>  <Peripheral>  (201) 
nan

>  <Num_H_Atoms_ProtBoundConf>  (201) 
nan

>  <Num_Resolved_Atoms>  (201) 
nan

>  <Num_Not_Resolved_Atoms>  (201) 
nan

$$$$
CHEMBL4789824
     RDKit          3D

  0  0  0  0  0  0  0  0  0  0999 V3000
M  V30 BEGIN CTAB
M  V30 COUNTS 54 58 0 0 0
M  V30 BEGIN ATOM
M  V30 1 O 1.168762 -3.318005 2.045542 0
M  V30 2 C 0.699412 -2.717095 1.047633 0
M  V30 3 N 1.285936 -1.466904 0.726666 0
M  V30 4 C 2.366802 -0.821419 1.433173 0
M  V30 5 C 2.095935 -0.528326 2.873882 0
M  V30 6 C 0.966989 0.369366 3.064637 0
M  V30 7 N 0.948674 1.675835 2.555684 0
M  V30 8 C 1.493758 2.628509 3.368831 0
M  V30 9 O 1.993949 2.328854 4.502313 0
M  V30 10 C 1.551112 3.987882 3.039512 0
M  V30 11 C 2.127794 4.888251 3.935891 0
M  V30 12 C 2.132378 6.196310 3.515819 0
M  V30 13 F 2.691525 7.097336 4.375243 0
M  V30 14 C 1.629499 6.653639 2.326012 0
M  V30 15 C 1.066029 5.727856 1.465149 0
M  V30 16 C 1.037312 4.408380 1.839152 0
M  V30 17 N 0.506561 3.486545 1.045573 0
M  V30 18 C -0.064700 3.590025 -0.160341 0
M  V30 19 S -0.355827 4.818048 -1.159174 0
M  V30 20 N -0.451880 2.365062 -0.550527 0
M  V30 21 N -0.118630 1.504041 0.415968 0
M  V30 22 C 0.483573 2.214885 1.416714 0
M  V30 23 C -0.406557 -3.301633 0.264304 0
M  V30 24 C -1.017710 -2.709668 -0.845000 0
M  V30 25 C -2.041305 -3.416032 -1.459021 0
M  V30 26 C -2.485591 -4.647076 -1.048297 0
M  V30 27 C -3.607217 -5.274066 -1.833810 0
M  V30 28 N -2.960379 -6.041994 -2.884977 0
M  V30 29 C -2.527035 -7.290560 -2.969028 0
M  V30 30 C -1.975331 -7.544651 -4.202823 0
M  V30 31 N -2.074914 -6.387834 -4.917289 0
M  V30 32 C -2.671433 -5.502165 -4.097931 0
M  V30 33 C -1.891472 -5.237538 0.041447 0
M  V30 34 C -0.873909 -4.545722 0.659341 0
M  V30 35 H 0.884310 -0.994024 -0.109669 0
M  V30 36 H 2.693573 0.107539 0.879915 0
M  V30 37 H 3.265263 -1.498736 1.303136 0
M  V30 38 H 3.022315 -0.275930 3.439856 0
M  V30 39 H 1.807139 -1.515481 3.353148 0
M  V30 40 H 0.043956 -0.155869 2.655210 0
M  V30 41 H 0.718161 0.419289 4.170704 0
M  V30 42 H 2.536992 4.566516 4.886588 0
M  V30 43 H 1.676698 7.721905 2.073823 0
M  V30 44 H 0.692239 6.148157 0.552834 0
M  V30 45 H -0.926398 1.984040 -1.396610 0
M  V30 46 H -0.654902 -1.742475 -1.151261 0
M  V30 47 H -2.467290 -2.886624 -2.319213 0
M  V30 48 H -4.210076 -4.467651 -2.267225 0
M  V30 49 H -4.213742 -5.933990 -1.176027 0
M  V30 50 H -2.610967 -7.993051 -2.155060 0
M  V30 51 H -1.532479 -8.444064 -4.604880 0
M  V30 52 H -2.870070 -4.501389 -4.420068 0
M  V30 53 H -2.250677 -6.198456 0.347945 0
M  V30 54 H -0.435197 -5.053295 1.515283 0
M  V30 END ATOM
M  V30 BEGIN BOND
M  V30 1 2 1 2
M  V30 2 1 2 3
M  V30 3 1 3 4
M  V30 4 1 4 5
M  V30 5 1 5 6
M  V30 6 1 6 7
M  V30 7 1 7 8
M  V30 8 2 8 9
M  V30 9 1 8 10
M  V30 10 2 10 11
M  V30 11 1 11 12
M  V30 12 1 12 13
M  V30 13 2 12 14
M  V30 14 1 14 15
M  V30 15 2 15 16
M  V30 16 1 16 17
M  V30 17 1 17 18
M  V30 18 2 18 19
M  V30 19 1 18 20
M  V30 20 1 20 21
M  V30 21 2 21 22
M  V30 22 1 2 23
M  V30 23 2 23 24
M  V30 24 1 24 25
M  V30 25 2 25 26
M  V30 26 1 26 27
M  V30 27 1 27 28
M  V30 28 1 28 29
M  V30 29 2 29 30
M  V30 30 1 30 31
M  V30 31 2 31 32
M  V30 32 1 26 33
M  V30 33 2 33 34
M  V30 34 1 22 7
M  V30 35 1 34 23
M  V30 36 1 16 10
M  V30 37 1 22 17
M  V30 38 1 32 28
M  V30 39 1 3 35
M  V30 40 1 4 36
M  V30 41 1 4 37
M  V30 42 1 5 38
M  V30 43 1 5 39
M  V30 44 1 6 40
M  V30 45 1 6 41
M  V30 46 1 11 42
M  V30 47 1 14 43
M  V30 48 1 15 44
M  V30 49 1 20 45
M  V30 50 1 24 46
M  V30 51 1 25 47
M  V30 52 1 27 48
M  V30 53 1 27 49
M  V30 54 1 29 50
M  V30 55 1 30 51
M  V30 56 1 32 52
M  V30 57 1 33 53
M  V30 58 1 34 54
M  V30 END BOND
M  V30 END CTAB
M  END
>  <Dataset>  (202) 
ChEMBL_Kinases

>  <Ligand_Instance>  (202) 
nan

>  <PDB_ID>  (202) 
nan

>  <Standardized_SMILES>  (202) 
O=C(NCCCn1c(=O)c2cc(F)ccc2n2c(=S)[nH]nc12)c1ccc(Cn2ccnc2)cc1

>  <Name>  (202) 
nan

>  <Pocket>  (202) 
nan

>  <ATP_Site>  (202) 
nan

>  <Peripheral>  (202) 
nan

>  <Num_H_Atoms_ProtBoundConf>  (202) 
nan

>  <Num_Resolved_Atoms>  (202) 
nan

>  <Num_Not_Resolved_Atoms>  (202) 
nan

$$$$
CHEMBL4789854
     RDKit          3D

  0  0  0  0  0  0  0  0  0  0999 V3000
M  V30 BEGIN CTAB
M  V30 COUNTS 49 52 0 0 0
M  V30 BEGIN ATOM
M  V30 1 C 2.858038 -3.693040 3.173745 0
M  V30 2 O 2.833517 -2.768991 2.150440 0
M  V30 3 C 1.820022 -2.287367 1.383693 0
M  V30 4 O 1.362191 -3.109864 2.184249 0
M  V30 5 C 1.991796 -1.304592 0.337688 0
M  V30 6 C 3.293855 -0.866732 0.160363 0
M  V30 7 N 3.433454 0.016896 -0.813146 0
M  V30 8 C 2.426087 0.457949 -1.566862 0
M  V30 9 N 2.760614 1.409324 -2.559439 0
M  V30 10 C 2.443697 2.610050 -1.870268 0
M  V30 11 C 1.159178 3.098697 -2.146226 0
M  V30 12 N 0.675291 4.224187 -1.579343 0
M  V30 13 C 1.416733 4.925915 -0.718926 0
M  V30 14 C 0.936801 6.119635 -0.099051 0
M  V30 15 N 0.531342 7.080557 0.414825 0
M  V30 16 C 2.673619 4.468403 -0.434711 0
M  V30 17 N 3.162569 3.360298 -0.987166 0
M  V30 18 C 1.147825 0.007411 -1.369248 0
M  V30 19 C 0.872807 -0.929175 -0.367108 0
M  V30 20 N -0.446832 -1.325889 -0.201921 0
M  V30 21 C -1.277478 -2.125051 0.617758 0 CFG=1
M  V30 22 C -1.462971 -1.584075 2.040007 0
M  V30 23 C -2.174701 -2.616858 2.863723 0 CFG=1
M  V30 24 C -3.507788 -1.986378 3.311143 0
M  V30 25 C -4.314223 -2.093058 2.026171 0
M  V30 26 C -3.504000 -3.034666 1.130450 0 CFG=1
M  V30 27 C -2.697940 -2.289371 0.100310 0
M  V30 28 N -2.710601 -3.721547 2.099027 0
M  V30 29 H 3.941635 -3.733175 3.519957 0
M  V30 30 H 2.552032 -4.698223 2.808078 0
M  V30 31 H 2.289371 -3.368840 4.062025 0
M  V30 32 H 4.104519 -1.220209 0.763829 0
M  V30 33 H 3.128697 1.199536 -3.499863 0
M  V30 34 H 0.391556 2.680179 -2.820528 0
M  V30 35 H 3.365387 4.944671 0.241674 0
M  V30 36 H 0.402597 0.432245 -2.041780 0
M  V30 37 H -1.127656 -0.917403 -0.907543 0
M  V30 38 H -0.832843 -3.145541 0.633822 0
M  V30 39 H -0.559626 -1.177066 2.484496 0
M  V30 40 H -2.116328 -0.670003 1.860298 0
M  V30 41 H -1.603763 -2.976345 3.723356 0
M  V30 42 H -3.885672 -2.621568 4.120501 0
M  V30 43 H -3.367589 -0.927911 3.614215 0
M  V30 44 H -4.491718 -1.107604 1.554444 0
M  V30 45 H -5.237377 -2.639403 2.289552 0
M  V30 46 H -4.183591 -3.787393 0.663448 0
M  V30 47 H -3.129691 -1.249920 0.037486 0
M  V30 48 H -2.716712 -2.757380 -0.900780 0
M  V30 49 H -2.033227 -4.408769 1.758735 0
M  V30 END ATOM
M  V30 BEGIN BOND
M  V30 1 1 1 2
M  V30 2 1 2 3
M  V30 3 2 3 4
M  V30 4 1 3 5
M  V30 5 2 5 6
M  V30 6 1 6 7
M  V30 7 2 7 8
M  V30 8 1 8 9
M  V30 9 1 9 10
M  V30 10 2 10 11
M  V30 11 1 11 12
M  V30 12 2 12 13
M  V30 13 1 13 14
M  V30 14 3 14 15
M  V30 15 1 13 16
M  V30 16 2 16 17
M  V30 17 1 8 18
M  V30 18 2 18 19
M  V30 19 1 19 20
M  V30 20 1 20 21
M  V30 21 1 21 22
M  V30 22 1 22 23
M  V30 23 1 23 24
M  V30 24 1 24 25
M  V30 25 1 25 26
M  V30 26 1 26 27
M  V30 27 1 26 28
M  V30 28 1 19 5
M  V30 29 1 27 21
M  V30 30 1 17 10
M  V30 31 1 28 23
M  V30 32 1 1 29
M  V30 33 1 1 30
M  V30 34 1 1 31
M  V30 35 1 6 32
M  V30 36 1 9 33
M  V30 37 1 11 34
M  V30 38 1 16 35
M  V30 39 1 18 36
M  V30 40 1 20 37
M  V30 41 1 21 38 CFG=1
M  V30 42 1 22 39
M  V30 43 1 22 40
M  V30 44 1 23 41 CFG=1
M  V30 45 1 24 42
M  V30 46 1 24 43
M  V30 47 1 25 44
M  V30 48 1 25 45
M  V30 49 1 26 46 CFG=3
M  V30 50 1 27 47
M  V30 51 1 27 48
M  V30 52 1 28 49
M  V30 END BOND
M  V30 END CTAB
M  END
>  <Dataset>  (203) 
ChEMBL_Kinases

>  <Ligand_Instance>  (203) 
nan

>  <PDB_ID>  (203) 
nan

>  <Standardized_SMILES>  (203) 
COC(=O)c1cnc(Nc2cnc(C#N)cn2)cc1N[C@H]1C[C@H]2CC[C@@H](C1)N2

>  <Name>  (203) 
nan

>  <Pocket>  (203) 
nan

>  <ATP_Site>  (203) 
nan

>  <Peripheral>  (203) 
nan

>  <Num_H_Atoms_ProtBoundConf>  (203) 
nan

>  <Num_Resolved_Atoms>  (203) 
nan

>  <Num_Not_Resolved_Atoms>  (203) 
nan

$$$$
CHEMBL4159419
     RDKit          3D

  0  0  0  0  0  0  0  0  0  0999 V3000
M  V30 BEGIN CTAB
M  V30 COUNTS 52 55 0 0 0
M  V30 BEGIN ATOM
M  V30 1 C 2.381020 -6.434149 1.830812 0
M  V30 2 O 2.327000 -6.109206 0.472376 0
M  V30 3 C 2.364564 -4.821819 -0.045598 0
M  V30 4 C 2.461808 -3.680700 0.724347 0
M  V30 5 C 2.486217 -2.478374 0.045344 0
M  V30 6 C 2.422391 -2.322499 -1.324494 0
M  V30 7 N 2.455833 -1.009526 -1.869292 0
M  V30 8 C 2.560026 0.163981 -1.113013 0
M  V30 9 N 3.674071 0.855954 -0.737908 0
M  V30 10 C 3.587247 1.974905 -0.000634 0
M  V30 11 C 2.367874 2.505131 0.430969 0
M  V30 12 C 1.291145 1.785453 0.035412 0
M  V30 13 C -0.072095 2.266610 0.450038 0
M  V30 14 S -0.230499 3.751589 1.437485 0
M  V30 15 C -2.145144 3.562422 1.456101 0
M  V30 16 S -3.571356 4.467760 2.159146 0
M  V30 17 C -3.893176 3.802511 3.827654 0
M  V30 18 C -4.339578 2.396127 3.671007 0
M  V30 19 C -3.300080 1.459884 3.689532 0
M  V30 20 C -3.642934 0.123133 3.548455 0
M  V30 21 C -4.953371 -0.309421 3.392858 0
M  V30 22 N -5.923885 0.640214 3.381715 0
M  V30 23 C -5.628790 1.937150 3.515100 0
M  V30 24 N -2.245163 2.626267 0.848322 0
M  V30 25 C -1.368260 1.835624 0.263423 0
M  V30 26 C -1.440604 0.574121 -0.561030 0
M  V30 27 N 1.358046 0.667182 -0.700440 0
M  V30 28 C 2.325653 -3.487462 -2.063460 0
M  V30 29 O 2.261998 -3.323866 -3.443431 0
M  V30 30 C 2.160688 -4.410857 -4.337236 0
M  V30 31 C 2.298249 -4.713197 -1.417465 0
M  V30 32 H 1.889936 -5.604387 2.415216 0
M  V30 33 H 1.797521 -7.347702 2.081957 0
M  V30 34 H 3.413279 -6.498685 2.243625 0
M  V30 35 H 2.513193 -3.768820 1.781223 0
M  V30 36 H 2.563196 -1.592734 0.671226 0
M  V30 37 H 2.394473 -0.982759 -2.923545 0
M  V30 38 H 4.529115 2.463433 0.253159 0
M  V30 39 H 2.345148 3.406468 1.021321 0
M  V30 40 H -2.994161 3.880010 4.451740 0
M  V30 41 H -4.703482 4.442047 4.245697 0
M  V30 42 H -2.248223 1.728559 3.808389 0
M  V30 43 H -2.849897 -0.613523 3.560528 0
M  V30 44 H -5.113907 -1.380323 3.290538 0
M  V30 45 H -6.389351 2.701820 3.507181 0
M  V30 46 H -0.874531 -0.243164 -0.057754 0
M  V30 47 H -1.155953 0.729062 -1.599924 0
M  V30 48 H -2.506339 0.211114 -0.562005 0
M  V30 49 H 3.175607 -4.890562 -4.395396 0
M  V30 50 H 1.867083 -4.053533 -5.334335 0
M  V30 51 H 1.462328 -5.195741 -3.964956 0
M  V30 52 H 2.220408 -5.582063 -2.076286 0
M  V30 END ATOM
M  V30 BEGIN BOND
M  V30 1 1 1 2
M  V30 2 1 2 3
M  V30 3 2 3 4
M  V30 4 1 4 5
M  V30 5 2 5 6
M  V30 6 1 6 7
M  V30 7 1 7 8
M  V30 8 2 8 9
M  V30 9 1 9 10
M  V30 10 2 10 11
M  V30 11 1 11 12
M  V30 12 1 12 13
M  V30 13 1 13 14
M  V30 14 1 14 15
M  V30 15 1 15 16
M  V30 16 1 16 17
M  V30 17 1 17 18
M  V30 18 2 18 19
M  V30 19 1 19 20
M  V30 20 2 20 21
M  V30 21 1 21 22
M  V30 22 2 22 23
M  V30 23 2 15 24
M  V30 24 1 24 25
M  V30 25 1 25 26
M  V30 26 2 12 27
M  V30 27 1 6 28
M  V30 28 1 28 29
M  V30 29 1 29 30
M  V30 30 2 28 31
M  V30 31 1 31 3
M  V30 32 1 27 8
M  V30 33 2 25 13
M  V30 34 1 23 18
M  V30 35 1 1 32
M  V30 36 1 1 33
M  V30 37 1 1 34
M  V30 38 1 4 35
M  V30 39 1 5 36
M  V30 40 1 7 37
M  V30 41 1 10 38
M  V30 42 1 11 39
M  V30 43 1 17 40
M  V30 44 1 17 41
M  V30 45 1 19 42
M  V30 46 1 20 43
M  V30 47 1 21 44
M  V30 48 1 23 45
M  V30 49 1 26 46
M  V30 50 1 26 47
M  V30 51 1 26 48
M  V30 52 1 30 49
M  V30 53 1 30 50
M  V30 54 1 30 51
M  V30 55 1 31 52
M  V30 END BOND
M  V30 END CTAB
M  END
>  <Dataset>  (204) 
ChEMBL_Kinases

>  <Ligand_Instance>  (204) 
nan

>  <PDB_ID>  (204) 
nan

>  <Standardized_SMILES>  (204) 
COc1ccc(Nc2nccc(-c3sc(SCc4cccnc4)nc3C)n2)c(OC)c1

>  <Name>  (204) 
nan

>  <Pocket>  (204) 
nan

>  <ATP_Site>  (204) 
nan

>  <Peripheral>  (204) 
nan

>  <Num_H_Atoms_ProtBoundConf>  (204) 
nan

>  <Num_Resolved_Atoms>  (204) 
nan

>  <Num_Not_Resolved_Atoms>  (204) 
nan

$$$$
CHEMBL4159403
     RDKit          3D

  0  0  0  0  0  0  0  0  0  0999 V3000
M  V30 BEGIN CTAB
M  V30 COUNTS 45 48 0 0 0
M  V30 BEGIN ATOM
M  V30 1 C -2.093236 -5.375919 4.018888 0
M  V30 2 O -1.526893 -5.974864 2.889923 0
M  V30 3 C -0.989923 -5.332442 1.803073 0
M  V30 4 C -0.942549 -3.953910 1.689644 0
M  V30 5 C -0.373950 -3.426828 0.540972 0
M  V30 6 C -0.362431 -1.967783 0.498730 0
M  V30 7 C 0.648796 -1.326117 -0.158675 0
M  V30 8 N 0.671599 0.003304 -0.205053 0
M  V30 9 C -0.210889 0.840371 0.335164 0
M  V30 10 C -0.346760 2.216085 0.389014 0
M  V30 11 N 0.498263 3.183200 -0.170045 0
M  V30 12 C 0.228012 4.602400 -0.032836 0
M  V30 13 C 1.462635 5.397781 0.235304 0
M  V30 14 C 2.606207 4.554740 0.735346 0
M  V30 15 C 3.807107 5.393423 0.772741 0
M  V30 16 N 4.764572 6.066492 0.809316 0
M  V30 17 C 2.884373 3.343392 -0.112052 0
M  V30 18 C 1.685804 2.889147 -0.915081 0
M  V30 19 S -1.788322 2.596523 1.295445 0
M  V30 20 N -2.318292 0.964486 1.670547 0
M  V30 21 C -1.207442 0.164538 0.984012 0
M  V30 22 C -1.334051 -1.199595 1.097111 0
M  V30 23 C 0.129648 -4.231489 -0.459445 0
M  V30 24 C 0.088543 -5.615726 -0.358477 0
M  V30 25 C -0.482091 -6.125767 0.793980 0
M  V30 26 N -0.526155 -7.552460 0.900632 0
M  V30 27 H -1.337122 -5.178584 4.790142 0
M  V30 28 H -2.846431 -6.109686 4.423035 0
M  V30 29 H -2.686137 -4.462241 3.788703 0
M  V30 30 H -1.358552 -3.404122 2.517763 0
M  V30 31 H 1.461290 -1.833559 -0.662349 0
M  V30 32 H -0.238158 4.953787 -0.997786 0
M  V30 33 H -0.522850 4.791993 0.767686 0
M  V30 34 H 1.248904 6.149220 1.022146 0
M  V30 35 H 1.812645 5.985373 -0.638721 0
M  V30 36 H 2.345938 4.264627 1.792232 0
M  V30 37 H 3.145830 2.517361 0.612304 0
M  V30 38 H 3.781636 3.464668 -0.752958 0
M  V30 39 H 1.835898 1.834644 -1.166401 0
M  V30 40 H 1.677407 3.527869 -1.836115 0
M  V30 41 H -2.102729 -1.742441 1.598453 0
M  V30 42 H 0.556201 -3.743177 -1.323087 0
M  V30 43 H 0.478068 -6.252121 -1.132321 0
M  V30 44 H 0.115121 -8.365630 1.003120 0
M  V30 45 H -1.510699 -7.903966 0.866122 0
M  V30 END ATOM
M  V30 BEGIN BOND
M  V30 1 1 1 2
M  V30 2 1 2 3
M  V30 3 2 3 4
M  V30 4 1 4 5
M  V30 5 1 5 6
M  V30 6 1 6 7
M  V30 7 2 7 8
M  V30 8 1 8 9
M  V30 9 2 9 10
M  V30 10 1 10 11
M  V30 11 1 11 12
M  V30 12 1 12 13
M  V30 13 1 13 14
M  V30 14 1 14 15
M  V30 15 3 15 16
M  V30 16 1 14 17
M  V30 17 1 17 18
M  V30 18 1 10 19
M  V30 19 1 19 20
M  V30 20 2 20 21
M  V30 21 1 21 22
M  V30 22 2 5 23
M  V30 23 1 23 24
M  V30 24 2 24 25
M  V30 25 1 25 26
M  V30 26 1 25 3
M  V30 27 2 22 6
M  V30 28 1 21 9
M  V30 29 1 18 11
M  V30 30 1 1 27
M  V30 31 1 1 28
M  V30 32 1 1 29
M  V30 33 1 4 30
M  V30 34 1 7 31
M  V30 35 1 12 32
M  V30 36 1 12 33
M  V30 37 1 13 34
M  V30 38 1 13 35
M  V30 39 1 14 36
M  V30 40 1 17 37
M  V30 41 1 17 38
M  V30 42 1 18 39
M  V30 43 1 18 40
M  V30 44 1 22 41
M  V30 45 1 23 42
M  V30 46 1 24 43
M  V30 47 1 26 44
M  V30 48 1 26 45
M  V30 END BOND
M  V30 END CTAB
M  END
>  <Dataset>  (205) 
ChEMBL_Kinases

>  <Ligand_Instance>  (205) 
nan

>  <PDB_ID>  (205) 
nan

>  <Standardized_SMILES>  (205) 
COc1cc(-c2cnc3c(N4CCC(C#N)CC4)snc3c2)ccc1N

>  <Name>  (205) 
nan

>  <Pocket>  (205) 
nan

>  <ATP_Site>  (205) 
nan

>  <Peripheral>  (205) 
nan

>  <Num_H_Atoms_ProtBoundConf>  (205) 
nan

>  <Num_Resolved_Atoms>  (205) 
nan

>  <Num_Not_Resolved_Atoms>  (205) 
nan

$$$$
CHEMBL4159348
     RDKit          3D

  0  0  0  0  0  0  0  0  0  0999 V3000
M  V30 BEGIN CTAB
M  V30 COUNTS 49 51 0 0 0
M  V30 BEGIN ATOM
M  V30 1 C 0.449567 -2.194087 3.126835 0
M  V30 2 C 0.573149 -2.243644 1.648557 0
M  V30 3 C 1.171784 -3.322751 0.871697 0
M  V30 4 C 1.703963 -4.434608 1.338200 0
M  V30 5 C 2.314548 -5.542486 0.600179 0
M  V30 6 C 3.630313 -5.215170 -0.156267 0
M  V30 7 C 2.391530 -5.489887 -0.937379 0
M  V30 8 C 0.064875 -1.165268 1.074352 0
M  V30 9 C -0.538734 -0.074857 1.839698 0 CFG=1
M  V30 10 C 0.492910 1.002894 2.178188 0 CFG=2
M  V30 11 O 0.357295 1.480573 3.460338 0
M  V30 12 C 0.237726 2.123045 1.197049 0 CFG=1
M  V30 13 C 0.263274 3.475983 1.879563 0
M  V30 14 O 1.147951 2.175360 0.158909 0
M  V30 15 C -1.130790 1.858078 0.648100 0 CFG=1
M  V30 16 C -1.133300 1.777613 -0.856847 0 CFG=2
M  V30 17 O -0.734821 2.958562 -1.463353 0
M  V30 18 C -2.533796 1.480913 -1.321283 0 CFG=1
M  V30 19 O -2.466530 1.249953 -2.698897 0
M  V30 20 C -3.134842 0.263487 -0.681788 0
M  V30 21 C -2.671385 -0.025616 0.694300 0
M  V30 22 N -1.562723 0.644934 1.195970 0
M  V30 23 H 1.065876 -3.000434 3.565478 0
M  V30 24 H 0.805101 -1.231027 3.543160 0
M  V30 25 H -0.593929 -2.366222 3.478798 0
M  V30 26 H 1.184639 -3.206139 -0.197939 0
M  V30 27 H 1.692971 -4.553588 2.410713 0
M  V30 28 H 2.252660 -6.574277 1.040396 0
M  V30 29 H 4.386919 -6.013686 -0.198099 0
M  V30 30 H 3.990778 -4.181692 -0.113733 0
M  V30 31 H 1.867899 -4.657751 -1.411718 0
M  V30 32 H 2.272948 -6.485477 -1.442600 0
M  V30 33 H 0.084219 -1.059582 -0.021084 0
M  V30 34 H -0.933215 -0.474588 2.793545 0
M  V30 35 H 1.524423 0.613762 2.055404 0
M  V30 36 H 1.018911 1.143847 4.088743 0
M  V30 37 H -0.508391 3.548944 2.663183 0
M  V30 38 H 0.031997 4.214382 1.064389 0
M  V30 39 H 1.253579 3.745037 2.252663 0
M  V30 40 H 1.998385 1.728672 0.344749 0
M  V30 41 H -1.837176 2.662151 0.995740 0
M  V30 42 H -0.468066 0.975375 -1.177334 0
M  V30 43 H -0.782511 2.812190 -2.432001 0
M  V30 44 H -3.180290 2.383588 -1.198975 0
M  V30 45 H -2.193725 0.301175 -2.789362 0
M  V30 46 H -2.952741 -0.633737 -1.343465 0
M  V30 47 H -4.243543 0.389489 -0.730140 0
M  V30 48 H -2.504392 -1.135474 0.809154 0
M  V30 49 H -3.532388 0.164589 1.399818 0
M  V30 END ATOM
M  V30 BEGIN BOND
M  V30 1 1 1 2
M  V30 2 1 2 3
M  V30 3 2 3 4
M  V30 4 1 4 5
M  V30 5 1 5 6
M  V30 6 1 6 7
M  V30 7 2 2 8
M  V30 8 1 8 9
M  V30 9 1 9 10
M  V30 10 1 10 11
M  V30 11 1 10 12
M  V30 12 1 12 13
M  V30 13 1 12 14 CFG=3
M  V30 14 1 12 15
M  V30 15 1 15 16
M  V30 16 1 16 17
M  V30 17 1 16 18
M  V30 18 1 18 19
M  V30 19 1 18 20
M  V30 20 1 20 21
M  V30 21 1 21 22
M  V30 22 1 7 5
M  V30 23 1 22 9
M  V30 24 1 22 15
M  V30 25 1 1 23
M  V30 26 1 1 24
M  V30 27 1 1 25
M  V30 28 1 3 26
M  V30 29 1 4 27
M  V30 30 1 5 28
M  V30 31 1 6 29
M  V30 32 1 6 30
M  V30 33 1 7 31
M  V30 34 1 7 32
M  V30 35 1 8 33
M  V30 36 1 9 34 CFG=1
M  V30 37 1 10 35 CFG=1
M  V30 38 1 11 36
M  V30 39 1 13 37
M  V30 40 1 13 38
M  V30 41 1 13 39
M  V30 42 1 14 40
M  V30 43 1 15 41 CFG=3
M  V30 44 1 16 42 CFG=1
M  V30 45 1 17 43
M  V30 46 1 18 44 CFG=3
M  V30 47 1 19 45
M  V30 48 1 20 46
M  V30 49 1 20 47
M  V30 50 1 21 48
M  V30 51 1 21 49
M  V30 END BOND
M  V30 END CTAB
M  END
>  <Dataset>  (206) 
ChEMBL_Kinases

>  <Ligand_Instance>  (206) 
nan

>  <PDB_ID>  (206) 
nan

>  <Standardized_SMILES>  (206) 
CC(/C=C/C1CC1)=C\[C@H]1[C@H](O)[C@@](C)(O)[C@H]2[C@H](O)[C@@H](O)CCN12

>  <Name>  (206) 
nan

>  <Pocket>  (206) 
nan

>  <ATP_Site>  (206) 
nan

>  <Peripheral>  (206) 
nan

>  <Num_H_Atoms_ProtBoundConf>  (206) 
nan

>  <Num_Resolved_Atoms>  (206) 
nan

>  <Num_Not_Resolved_Atoms>  (206) 
nan

$$$$
CHEMBL4159335
     RDKit          3D

  0  0  0  0  0  0  0  0  0  0999 V3000
M  V30 BEGIN CTAB
M  V30 COUNTS 49 51 0 0 0
M  V30 BEGIN ATOM
M  V30 1 C -4.164466 -4.772685 2.764533 0
M  V30 2 O -4.617138 -4.430579 1.469796 0
M  V30 3 C -4.009659 -3.456642 0.692957 0
M  V30 4 C -2.912553 -2.717438 1.079801 0
M  V30 5 C -2.432584 -1.786467 0.182987 0
M  V30 6 C -2.921392 -1.508047 -1.056109 0
M  V30 7 N -2.384804 -0.540885 -1.927891 0
M  V30 8 C -1.283333 0.340585 -1.798953 0
M  V30 9 N -1.012383 1.172113 -2.807612 0
M  V30 10 C 0.019970 2.018386 -2.721671 0
M  V30 11 C 0.824996 2.057698 -1.604433 0
M  V30 12 C 0.538662 1.200072 -0.574392 0
M  V30 13 C 1.422377 1.258244 0.630460 0
M  V30 14 S 2.800655 2.477169 0.641039 0
M  V30 15 C 3.349236 1.933191 2.346803 0
M  V30 16 S 4.747538 2.544921 3.386419 0
M  V30 17 C 6.213184 1.558163 2.986533 0
M  V30 18 C 6.039834 0.112592 3.413556 0
M  V30 19 C 7.395052 2.149580 3.692827 0
M  V30 20 N 2.587672 1.135742 2.545492 0
M  V30 21 C 1.580816 0.658867 1.853544 0
M  V30 22 C 0.614490 -0.413214 2.193754 0
M  V30 23 N -0.491952 0.386820 -0.713596 0
M  V30 24 C -4.033758 -2.284500 -1.400874 0
M  V30 25 O -4.624873 -2.094581 -2.641076 0
M  V30 26 C -5.745460 -2.843948 -3.044450 0
M  V30 27 C -4.556724 -3.226930 -0.549991 0
M  V30 28 H -3.261336 -5.389004 2.640952 0
M  V30 29 H -4.988463 -5.282325 3.318561 0
M  V30 30 H -3.916183 -3.791675 3.250741 0
M  V30 31 H -2.482317 -2.896844 2.054492 0
M  V30 32 H -1.579218 -1.252706 0.559569 0
M  V30 33 H -2.923860 -0.480113 -2.846862 0
M  V30 34 H 0.185101 2.664060 -3.571288 0
M  V30 35 H 1.614499 2.775156 -1.657465 0
M  V30 36 H 6.389911 1.543825 1.885466 0
M  V30 37 H 6.780042 -0.480563 2.840695 0
M  V30 38 H 5.029991 -0.245866 3.140650 0
M  V30 39 H 6.235476 -0.065566 4.478789 0
M  V30 40 H 7.235314 3.242636 3.878954 0
M  V30 41 H 7.524224 1.688557 4.710902 0
M  V30 42 H 8.319876 2.055871 3.108056 0
M  V30 43 H 0.849052 -0.918941 3.138046 0
M  V30 44 H 0.650591 -1.233371 1.417693 0
M  V30 45 H -0.421908 -0.044457 2.275439 0
M  V30 46 H -6.562320 -2.859427 -2.275185 0
M  V30 47 H -5.406989 -3.875565 -3.295305 0
M  V30 48 H -6.205514 -2.399002 -3.964320 0
M  V30 49 H -5.416472 -3.790359 -0.882436 0
M  V30 END ATOM
M  V30 BEGIN BOND
M  V30 1 1 1 2
M  V30 2 1 2 3
M  V30 3 2 3 4
M  V30 4 1 4 5
M  V30 5 2 5 6
M  V30 6 1 6 7
M  V30 7 1 7 8
M  V30 8 2 8 9
M  V30 9 1 9 10
M  V30 10 2 10 11
M  V30 11 1 11 12
M  V30 12 1 12 13
M  V30 13 1 13 14
M  V30 14 1 14 15
M  V30 15 1 15 16
M  V30 16 1 16 17
M  V30 17 1 17 18
M  V30 18 1 17 19
M  V30 19 2 15 20
M  V30 20 1 20 21
M  V30 21 1 21 22
M  V30 22 2 12 23
M  V30 23 1 6 24
M  V30 24 1 24 25
M  V30 25 1 25 26
M  V30 26 2 24 27
M  V30 27 1 27 3
M  V30 28 1 23 8
M  V30 29 2 21 13
M  V30 30 1 1 28
M  V30 31 1 1 29
M  V30 32 1 1 30
M  V30 33 1 4 31
M  V30 34 1 5 32
M  V30 35 1 7 33
M  V30 36 1 10 34
M  V30 37 1 11 35
M  V30 38 1 17 36
M  V30 39 1 18 37
M  V30 40 1 18 38
M  V30 41 1 18 39
M  V30 42 1 19 40
M  V30 43 1 19 41
M  V30 44 1 19 42
M  V30 45 1 22 43
M  V30 46 1 22 44
M  V30 47 1 22 45
M  V30 48 1 26 46
M  V30 49 1 26 47
M  V30 50 1 26 48
M  V30 51 1 27 49
M  V30 END BOND
M  V30 END CTAB
M  END
>  <Dataset>  (207) 
ChEMBL_Kinases

>  <Ligand_Instance>  (207) 
nan

>  <PDB_ID>  (207) 
nan

>  <Standardized_SMILES>  (207) 
COc1ccc(Nc2nccc(-c3sc(SC(C)C)nc3C)n2)c(OC)c1

>  <Name>  (207) 
nan

>  <Pocket>  (207) 
nan

>  <ATP_Site>  (207) 
nan

>  <Peripheral>  (207) 
nan

>  <Num_H_Atoms_ProtBoundConf>  (207) 
nan

>  <Num_Resolved_Atoms>  (207) 
nan

>  <Num_Not_Resolved_Atoms>  (207) 
nan

$$$$
CHEMBL4159279
     RDKit          3D

  0  0  0  0  0  0  0  0  0  0999 V3000
M  V30 BEGIN CTAB
M  V30 COUNTS 74 79 0 0 0
M  V30 BEGIN ATOM
M  V30 1 C 5.588037 0.147204 1.687993 0
M  V30 2 N 4.976499 -0.112870 0.395938 0
M  V30 3 C 5.941818 -0.840867 -0.407331 0
M  V30 4 C 4.684830 1.114283 -0.288071 0 CFG=2
M  V30 5 C 3.745574 2.028562 0.433875 0
M  V30 6 C 2.374638 1.480606 0.659752 0
M  V30 7 C 1.764907 0.935463 -0.613525 0 CFG=1
M  V30 8 C 1.323121 2.116301 -1.446860 0
M  V30 9 C 2.759377 0.085329 -1.357276 0 CFG=1
M  V30 10 C 2.157191 -0.389733 -2.648909 0
M  V30 11 C 0.777333 -0.903383 -2.548668 0
M  V30 12 C -0.147528 -0.213896 -1.601777 0 CFG=2
M  V30 13 C 0.599164 0.051443 -0.309107 0 CFG=2
M  V30 14 C -0.302288 0.557402 0.784025 0
M  V30 15 C -1.274429 -0.555673 1.124973 0
M  V30 16 C -2.097256 -0.791107 -0.085728 0 CFG=2
M  V30 17 C -2.914632 0.409980 -0.419986 0
M  V30 18 C -2.864286 -2.092610 -0.074755 0 CFG=1
M  V30 19 C -3.805921 -2.272497 0.990076 0
M  V30 20 C -4.916898 -1.481492 1.213591 0
M  V30 21 C -5.796725 -1.694991 2.255309 0
M  V30 22 C -5.576317 -2.735598 3.120715 0
M  V30 23 C -6.438201 -2.993934 4.191823 0
M  V30 24 C -6.125184 -4.065680 5.002766 0
M  V30 25 N -5.059307 -4.869839 4.834921 0
M  V30 26 C -4.190007 -4.657725 3.804469 0
M  V30 27 C -4.499947 -3.586989 2.991693 0
M  V30 28 C -3.669292 -3.307057 1.927519 0
M  V30 29 C -3.367916 -2.123145 -1.484235 0
M  V30 30 C -2.269476 -1.433787 -2.299124 0
M  V30 31 C -1.220082 -1.179173 -1.280736 0 CFG=1
M  V30 32 C 4.061449 0.766563 -1.622164 0
M  V30 33 H 4.853699 0.508660 2.410453 0
M  V30 34 H 6.023557 -0.784993 2.104015 0
M  V30 35 H 6.458370 0.847963 1.538284 0
M  V30 36 H 5.478261 -1.560567 -1.099442 0
M  V30 37 H 6.554110 -0.163577 -1.046850 0
M  V30 38 H 6.664652 -1.415903 0.214142 0
M  V30 39 H 5.605586 1.675243 -0.498631 0
M  V30 40 H 4.140783 2.305755 1.449587 0
M  V30 41 H 3.745222 2.992302 -0.131154 0
M  V30 42 H 1.738749 2.326095 0.999909 0
M  V30 43 H 2.431385 0.715898 1.461161 0
M  V30 44 H 1.313604 1.920579 -2.529675 0
M  V30 45 H 2.009919 2.996315 -1.292730 0
M  V30 46 H 0.331375 2.475910 -1.121994 0
M  V30 47 H 2.959890 -0.812800 -0.720112 0
M  V30 48 H 2.815469 -1.238266 -2.995269 0
M  V30 49 H 2.272323 0.372246 -3.448964 0
M  V30 50 H 0.792389 -1.999457 -2.345829 0
M  V30 51 H 0.310393 -0.810856 -3.569055 0
M  V30 52 H -0.538544 0.727187 -2.046874 0
M  V30 53 H 0.982832 -0.935276 0.024739 0
M  V30 54 H 0.366793 0.792838 1.639041 0
M  V30 55 H -0.853366 1.469560 0.549067 0
M  V30 56 H -0.724353 -1.442399 1.477155 0
M  V30 57 H -1.953864 -0.213156 1.937138 0
M  V30 58 H -2.229209 1.153444 -0.923541 0
M  V30 59 H -3.280894 0.936995 0.480517 0
M  V30 60 H -3.718557 0.247827 -1.156506 0
M  V30 61 H -2.062287 -2.886066 -0.007482 0
M  V30 62 H -5.121294 -0.664787 0.563731 0
M  V30 63 H -6.659526 -1.060120 2.407727 0
M  V30 64 H -7.301681 -2.366812 4.352848 0
M  V30 65 H -6.812333 -4.251930 5.836434 0
M  V30 66 H -3.314145 -5.260941 3.607268 0
M  V30 67 H -2.791847 -3.955387 1.775278 0
M  V30 68 H -3.413349 -3.179220 -1.820111 0
M  V30 69 H -4.346396 -1.658562 -1.645865 0
M  V30 70 H -2.639947 -0.488955 -2.723969 0
M  V30 71 H -1.937901 -2.088650 -3.130480 0
M  V30 72 H -0.731841 -2.132869 -0.959701 0
M  V30 73 H 4.716161 0.032556 -2.128241 0
M  V30 74 H 3.883777 1.667881 -2.225742 0
M  V30 END ATOM
M  V30 BEGIN BOND
M  V30 1 1 1 2
M  V30 2 1 2 3
M  V30 3 1 2 4
M  V30 4 1 4 5
M  V30 5 1 5 6
M  V30 6 1 6 7
M  V30 7 1 7 8 CFG=3
M  V30 8 1 7 9
M  V30 9 1 9 10
M  V30 10 1 10 11
M  V30 11 1 11 12
M  V30 12 1 12 13
M  V30 13 1 13 14
M  V30 14 1 14 15
M  V30 15 1 15 16
M  V30 16 1 16 17 CFG=3
M  V30 17 1 16 18
M  V30 18 1 18 19
M  V30 19 2 19 20
M  V30 20 1 20 21
M  V30 21 2 21 22
M  V30 22 1 22 23
M  V30 23 2 23 24
M  V30 24 1 24 25
M  V30 25 2 25 26
M  V30 26 1 26 27
M  V30 27 2 27 28
M  V30 28 1 18 29
M  V30 29 1 29 30
M  V30 30 1 30 31
M  V30 31 1 9 32
M  V30 32 1 32 4
M  V30 33 1 13 7
M  V30 34 1 31 16
M  V30 35 1 31 12
M  V30 36 1 28 19
M  V30 37 1 27 22
M  V30 38 1 1 33
M  V30 39 1 1 34
M  V30 40 1 1 35
M  V30 41 1 3 36
M  V30 42 1 3 37
M  V30 43 1 3 38
M  V30 44 1 4 39 CFG=3
M  V30 45 1 5 40
M  V30 46 1 5 41
M  V30 47 1 6 42
M  V30 48 1 6 43
M  V30 49 1 8 44
M  V30 50 1 8 45
M  V30 51 1 8 46
M  V30 52 1 9 47 CFG=1
M  V30 53 1 10 48
M  V30 54 1 10 49
M  V30 55 1 11 50
M  V30 56 1 11 51
M  V30 57 1 12 52 CFG=3
M  V30 58 1 13 53 CFG=1
M  V30 59 1 14 54
M  V30 60 1 14 55
M  V30 61 1 15 56
M  V30 62 1 15 57
M  V30 63 1 17 58
M  V30 64 1 17 59
M  V30 65 1 17 60
M  V30 66 1 18 61 CFG=3
M  V30 67 1 20 62
M  V30 68 1 21 63
M  V30 69 1 23 64
M  V30 70 1 24 65
M  V30 71 1 26 66
M  V30 72 1 28 67
M  V30 73 1 29 68
M  V30 74 1 29 69
M  V30 75 1 30 70
M  V30 76 1 30 71
M  V30 77 1 31 72 CFG=1
M  V30 78 1 32 73
M  V30 79 1 32 74
M  V30 END BOND
M  V30 END CTAB
M  END
>  <Dataset>  (208) 
ChEMBL_Kinases

>  <Ligand_Instance>  (208) 
nan

>  <PDB_ID>  (208) 
nan

>  <Standardized_SMILES>  (208) 
CN(C)[C@@H]1CC[C@@]2(C)[C@@H](CC[C@@H]3[C@@H]2CC[C@]2(C)[C@@H](c4ccc5ccncc5c4)CC[C@@H]32)C1

>  <Name>  (208) 
nan

>  <Pocket>  (208) 
nan

>  <ATP_Site>  (208) 
nan

>  <Peripheral>  (208) 
nan

>  <Num_H_Atoms_ProtBoundConf>  (208) 
nan

>  <Num_Resolved_Atoms>  (208) 
nan

>  <Num_Not_Resolved_Atoms>  (208) 
nan

$$$$
CHEMBL4159193
     RDKit          3D

  0  0  0  0  0  0  0  0  0  0999 V3000
M  V30 BEGIN CTAB
M  V30 COUNTS 31 33 0 0 0
M  V30 BEGIN ATOM
M  V30 1 C -0.219362 -5.146589 3.916755 0
M  V30 2 O 0.429043 -4.740128 2.701421 0
M  V30 3 C 0.229539 -3.445068 2.240226 0
M  V30 4 C -0.569150 -2.534811 2.907494 0
M  V30 5 C -0.699601 -1.271573 2.361050 0
M  V30 6 C -0.050804 -0.939055 1.188649 0
M  V30 7 C 0.759166 -1.855652 0.508137 0
M  V30 8 C 0.897605 -3.132490 1.050542 0
M  V30 9 N 1.262697 -1.270769 -0.593910 0
M  V30 10 C 0.820496 0.004855 -0.678233 0
M  V30 11 C 1.001551 1.064256 -1.573790 0
M  V30 12 C 1.876292 0.832981 -2.754800 0
M  V30 13 N 0.407194 2.257447 -1.380566 0
M  V30 14 C -0.393241 2.511781 -0.324989 0
M  V30 15 C -1.051152 3.830915 -0.110174 0
M  V30 16 C -0.563002 1.459424 0.549429 0
M  V30 17 C 0.008692 0.210004 0.423393 0
M  V30 18 H -1.309980 -4.886679 3.779157 0
M  V30 19 H -0.196064 -6.249401 4.017275 0
M  V30 20 H 0.176436 -4.603648 4.801090 0
M  V30 21 H -1.058050 -2.831602 3.818158 0
M  V30 22 H -1.314555 -0.537096 2.855054 0
M  V30 23 H 1.518678 -3.857849 0.541982 0
M  V30 24 H 1.891013 -1.691950 -1.292231 0
M  V30 25 H 1.435345 -0.021543 -3.343380 0
M  V30 26 H 1.880288 1.747660 -3.386437 0
M  V30 27 H 2.899266 0.498716 -2.483911 0
M  V30 28 H -0.347123 4.653257 0.069305 0
M  V30 29 H -1.755349 3.706526 0.741350 0
M  V30 30 H -1.605043 4.086914 -1.051932 0
M  V30 31 H -1.206191 1.626854 1.419349 0
M  V30 END ATOM
M  V30 BEGIN BOND
M  V30 1 1 1 2
M  V30 2 1 2 3
M  V30 3 2 3 4
M  V30 4 1 4 5
M  V30 5 2 5 6
M  V30 6 1 6 7
M  V30 7 2 7 8
M  V30 8 1 7 9
M  V30 9 1 9 10
M  V30 10 2 10 11
M  V30 11 1 11 12
M  V30 12 1 11 13
M  V30 13 2 13 14
M  V30 14 1 14 15
M  V30 15 1 14 16
M  V30 16 2 16 17
M  V30 17 1 8 3
M  V30 18 1 17 10
M  V30 19 1 17 6
M  V30 20 1 1 18
M  V30 21 1 1 19
M  V30 22 1 1 20
M  V30 23 1 4 21
M  V30 24 1 5 22
M  V30 25 1 8 23
M  V30 26 1 9 24
M  V30 27 1 12 25
M  V30 28 1 12 26
M  V30 29 1 12 27
M  V30 30 1 15 28
M  V30 31 1 15 29
M  V30 32 1 15 30
M  V30 33 1 16 31
M  V30 END BOND
M  V30 END CTAB
M  END
>  <Dataset>  (209) 
ChEMBL_Kinases

>  <Ligand_Instance>  (209) 
nan

>  <PDB_ID>  (209) 
nan

>  <Standardized_SMILES>  (209) 
COc1ccc2c(c1)[nH]c1c(C)nc(C)cc12

>  <Name>  (209) 
nan

>  <Pocket>  (209) 
nan

>  <ATP_Site>  (209) 
nan

>  <Peripheral>  (209) 
nan

>  <Num_H_Atoms_ProtBoundConf>  (209) 
nan

>  <Num_Resolved_Atoms>  (209) 
nan

>  <Num_Not_Resolved_Atoms>  (209) 
nan

$$$$
CHEMBL4159185
     RDKit          3D

  0  0  0  0  0  0  0  0  0  0999 V3000
M  V30 BEGIN CTAB
M  V30 COUNTS 57 61 0 0 0
M  V30 BEGIN ATOM
M  V30 1 C 4.662939 -2.948402 1.553444 0
M  V30 2 C 4.092610 -1.574027 1.584794 0
M  V30 3 N 4.727148 -0.465248 1.998368 0
M  V30 4 N 3.946875 0.598285 1.891627 0
M  V30 5 C 4.351213 1.923247 2.256060 0
M  V30 6 C 5.723486 2.111932 2.509896 0
M  V30 7 C 6.132296 3.407421 2.871524 0
M  V30 8 C 5.276855 4.520276 2.996598 0
M  V30 9 C 4.029456 4.090343 2.704945 0
M  V30 10 C 3.412959 2.965012 2.351461 0
M  V30 11 C 2.782423 0.149722 1.395971 0
M  V30 12 O 1.668520 0.915695 1.121619 0
M  V30 13 C 0.468698 0.440096 0.615913 0
M  V30 14 C -0.293153 -0.026113 1.680397 0
M  V30 15 C -1.574389 -0.571002 1.483439 0
M  V30 16 C -2.034066 -0.618569 0.183995 0
M  V30 17 C -3.368774 -1.167225 -0.089618 0
M  V30 18 N -4.036851 -1.264065 -1.241072 0
M  V30 19 C -5.242005 -1.794300 -1.113856 0
M  V30 20 C -6.315864 -2.114921 -1.910097 0
M  V30 21 C -7.489854 -2.690379 -1.394847 0
M  V30 22 N -8.532374 -2.980523 -2.295901 0 CHG=1 VAL=4
M  V30 23 O -8.437561 -2.738167 -3.509448 0
M  V30 24 O -9.728022 -3.541287 -1.939040 0 CHG=-1 VAL=1
M  V30 25 C -7.476539 -2.905494 -0.039351 0
M  V30 26 C -6.427586 -2.602543 0.800824 0
M  V30 27 C -5.295187 -2.034732 0.229320 0
M  V30 28 N -4.186145 -1.671692 0.885266 0
M  V30 29 C -1.283153 -0.155191 -0.898358 0
M  V30 30 C -0.029051 0.373378 -0.665952 0
M  V30 31 C 2.823359 -1.213971 1.184093 0
M  V30 32 C 1.793930 -2.107548 0.669727 0
M  V30 33 N 2.112545 -2.290075 -0.558446 0
M  V30 34 N 1.411254 -3.085081 -1.474731 0
M  V30 35 C 1.352156 -2.128824 -2.566858 0
M  V30 36 N 0.703644 -2.476034 -3.812979 0
M  V30 37 O 1.385978 -1.206412 -3.398041 0
M  V30 38 H 3.826679 -3.661066 1.817065 0
M  V30 39 H 4.910427 -3.239837 0.505158 0
M  V30 40 H 5.484695 -3.117061 2.250892 0
M  V30 41 H 6.435174 1.306263 2.432589 0
M  V30 42 H 7.220401 3.472560 3.055532 0
M  V30 43 H 5.681204 5.462138 3.275441 0
M  V30 44 H 3.307390 4.942828 2.789491 0
M  V30 45 H 2.369053 2.832599 2.160140 0
M  V30 46 H -0.031987 -0.039664 2.752017 0
M  V30 47 H -2.190476 -0.942503 2.306464 0
M  V30 48 H -6.245620 -1.913387 -2.974302 0
M  V30 49 H -8.420973 -3.359276 0.302149 0
M  V30 50 H -6.644520 -2.857370 1.822287 0
M  V30 51 H -3.998365 -1.760101 1.906664 0
M  V30 52 H -1.609284 -0.175158 -1.920760 0
M  V30 53 H 0.674760 0.773804 -1.387053 0
M  V30 54 H 0.914038 -2.616358 1.011622 0
M  V30 55 H 0.954002 -3.992494 -1.687933 0
M  V30 56 H 0.173578 -3.382626 -3.840920 0
M  V30 57 H 0.144071 -3.370628 -3.946143 0
M  V30 END ATOM
M  V30 BEGIN BOND
M  V30 1 1 1 2
M  V30 2 2 2 3
M  V30 3 1 3 4
M  V30 4 1 4 5
M  V30 5 2 5 6
M  V30 6 1 6 7
M  V30 7 2 7 8
M  V30 8 1 8 9
M  V30 9 2 9 10
M  V30 10 1 4 11
M  V30 11 1 11 12
M  V30 12 1 12 13
M  V30 13 2 13 14
M  V30 14 1 14 15
M  V30 15 2 15 16
M  V30 16 1 16 17
M  V30 17 2 17 18
M  V30 18 1 18 19
M  V30 19 2 19 20
M  V30 20 1 20 21
M  V30 21 1 21 22
M  V30 22 2 22 23
M  V30 23 1 22 24
M  V30 24 2 21 25
M  V30 25 1 25 26
M  V30 26 2 26 27
M  V30 27 1 27 28
M  V30 28 1 16 29
M  V30 29 2 29 30
M  V30 30 2 11 31
M  V30 31 1 31 32
M  V30 32 2 32 33
M  V30 33 1 33 34
M  V30 34 1 34 35
M  V30 35 1 35 36
M  V30 36 2 35 37
M  V30 37 1 31 2
M  V30 38 1 10 5
M  V30 39 1 30 13
M  V30 40 1 28 17
M  V30 41 1 27 19
M  V30 42 1 1 38
M  V30 43 1 1 39
M  V30 44 1 1 40
M  V30 45 1 6 41
M  V30 46 1 7 42
M  V30 47 1 8 43
M  V30 48 1 9 44
M  V30 49 1 10 45
M  V30 50 1 14 46
M  V30 51 1 15 47
M  V30 52 1 20 48
M  V30 53 1 25 49
M  V30 54 1 26 50
M  V30 55 1 28 51
M  V30 56 1 29 52
M  V30 57 1 30 53
M  V30 58 1 32 54
M  V30 59 1 34 55
M  V30 60 1 36 56
M  V30 61 1 36 57
M  V30 END BOND
M  V30 END CTAB
M  END
>  <Dataset>  (210) 
ChEMBL_Kinases

>  <Ligand_Instance>  (210) 
nan

>  <PDB_ID>  (210) 
nan

>  <Standardized_SMILES>  (210) 
Cc1nn(-c2ccccc2)c(Oc2ccc(-c3nc4cc([N+](=O)[O-])ccc4[nH]3)cc2)c1/C=N/NC(N)=O

>  <Name>  (210) 
nan

>  <Pocket>  (210) 
nan

>  <ATP_Site>  (210) 
nan

>  <Peripheral>  (210) 
nan

>  <Num_H_Atoms_ProtBoundConf>  (210) 
nan

>  <Num_Resolved_Atoms>  (210) 
nan

>  <Num_Not_Resolved_Atoms>  (210) 
nan

$$$$
CHEMBL415770
     RDKit          3D

  0  0  0  0  0  0  0  0  0  0999 V3000
M  V30 BEGIN CTAB
M  V30 COUNTS 44 47 0 0 0
M  V30 BEGIN ATOM
M  V30 1 C 1.218288 -2.697406 1.582585 0
M  V30 2 C 2.096693 -1.466536 1.643000 0
M  V30 3 N 1.891360 -0.642766 0.511968 0
M  V30 4 C 2.567746 -0.944404 -0.643289 0
M  V30 5 C 3.496848 -2.055463 -0.953919 0
M  V30 6 N 3.947823 -3.067186 -0.222154 0
M  V30 7 O 4.750508 -3.777153 -0.914253 0
M  V30 8 N 4.864140 -3.284078 -2.097363 0
M  V30 9 C 4.092891 -2.189015 -2.188426 0
M  V30 10 N 4.007059 -1.421665 -3.381083 0
M  V30 11 N 2.275478 -0.006227 -1.580045 0
M  V30 12 C 1.429146 0.899245 -1.064778 0
M  V30 13 C 0.928154 2.026790 -1.656794 0
M  V30 14 N 0.137489 2.788924 -0.849736 0
M  V30 15 C -0.088857 2.386619 0.437555 0
M  V30 16 C 0.424490 1.222759 1.048960 0
M  V30 17 C -0.008125 0.896777 2.425906 0
M  V30 18 N -1.256044 0.228061 2.546746 0
M  V30 19 C -1.585611 -0.830316 1.706868 0
M  V30 20 C -2.987463 -0.911026 1.191827 0
M  V30 21 N -3.968993 -0.131144 1.850011 0
M  V30 22 C -3.542301 0.160734 3.211673 0
M  V30 23 C -2.332821 1.053686 3.033355 0
M  V30 24 C 1.220966 0.468746 0.218639 0
M  V30 25 H 0.636846 -2.875031 2.523717 0
M  V30 26 H 0.480830 -2.648006 0.758750 0
M  V30 27 H 1.796062 -3.636211 1.346987 0
M  V30 28 H 3.144698 -1.896441 1.671027 0
M  V30 29 H 1.857562 -1.049686 2.630001 0
M  V30 30 H 4.230446 -0.386124 -3.370302 0
M  V30 31 H 3.735227 -1.798948 -4.295132 0
M  V30 32 H 1.097545 2.344591 -2.652481 0
M  V30 33 H -0.736677 3.065792 1.004030 0
M  V30 34 H -0.271436 1.952170 2.823950 0
M  V30 35 H 0.768646 0.663325 3.153593 0
M  V30 36 H -0.876449 -0.804759 0.829050 0
M  V30 37 H -1.400423 -1.782272 2.234136 0
M  V30 38 H -2.981088 -0.619181 0.119521 0
M  V30 39 H -3.371147 -1.974634 1.178557 0
M  V30 40 H -4.037236 0.810638 1.356686 0
M  V30 41 H -3.257478 -0.794233 3.695444 0
M  V30 42 H -4.338009 0.687231 3.787561 0
M  V30 43 H -2.010841 1.546419 3.965103 0
M  V30 44 H -2.648056 1.816586 2.260136 0
M  V30 END ATOM
M  V30 BEGIN BOND
M  V30 1 1 1 2
M  V30 2 1 2 3
M  V30 3 1 3 4
M  V30 4 1 4 5
M  V30 5 2 5 6
M  V30 6 1 6 7
M  V30 7 1 7 8
M  V30 8 2 8 9
M  V30 9 1 9 10
M  V30 10 2 4 11
M  V30 11 1 11 12
M  V30 12 2 12 13
M  V30 13 1 13 14
M  V30 14 2 14 15
M  V30 15 1 15 16
M  V30 16 1 16 17
M  V30 17 1 17 18
M  V30 18 1 18 19
M  V30 19 1 19 20
M  V30 20 1 20 21
M  V30 21 1 21 22
M  V30 22 1 22 23
M  V30 23 2 16 24
M  V30 24 1 24 3
M  V30 25 1 9 5
M  V30 26 1 24 12
M  V30 27 1 23 18
M  V30 28 1 1 25
M  V30 29 1 1 26
M  V30 30 1 1 27
M  V30 31 1 2 28
M  V30 32 1 2 29
M  V30 33 1 10 30
M  V30 34 1 10 31
M  V30 35 1 13 32
M  V30 36 1 15 33
M  V30 37 1 17 34
M  V30 38 1 17 35
M  V30 39 1 19 36
M  V30 40 1 19 37
M  V30 41 1 20 38
M  V30 42 1 20 39
M  V30 43 1 21 40
M  V30 44 1 22 41
M  V30 45 1 22 42
M  V30 46 1 23 43
M  V30 47 1 23 44
M  V30 END BOND
M  V30 END CTAB
M  END
>  <Dataset>  (211) 
ChEMBL_Kinases

>  <Ligand_Instance>  (211) 
nan

>  <PDB_ID>  (211) 
nan

>  <Standardized_SMILES>  (211) 
CCn1c(-c2nonc2N)nc2cncc(CN3CCNCC3)c21

>  <Name>  (211) 
nan

>  <Pocket>  (211) 
nan

>  <ATP_Site>  (211) 
nan

>  <Peripheral>  (211) 
nan

>  <Num_H_Atoms_ProtBoundConf>  (211) 
nan

>  <Num_Resolved_Atoms>  (211) 
nan

>  <Num_Not_Resolved_Atoms>  (211) 
nan

$$$$
CHEMBL413558
     RDKit          3D

  0  0  0  0  0  0  0  0  0  0999 V3000
M  V30 BEGIN CTAB
M  V30 COUNTS 59 61 0 0 0
M  V30 BEGIN ATOM
M  V30 1 C 6.488357 -4.292499 5.848331 0
M  V30 2 O 5.477336 -4.994572 5.149492 0
M  V30 3 C 4.396203 -4.331191 4.598951 0
M  V30 4 C 4.227056 -2.952685 4.690113 0
M  V30 5 C 3.152860 -2.282317 4.144664 0
M  V30 6 C 2.189332 -3.003406 3.471530 0
M  V30 7 C 0.988821 -2.479012 2.830793 0
M  V30 8 O 0.121894 -3.159890 2.219993 0
M  V30 9 N 0.738802 -1.102109 2.874528 0
M  V30 10 C -0.225838 -0.184315 2.429026 0
M  V30 11 C -0.210312 0.477149 1.215131 0
M  V30 12 C -1.199096 1.352573 0.876326 0
M  V30 13 N -1.223375 2.056349 -0.363706 0
M  V30 14 C -1.867505 1.501503 -1.488407 0
M  V30 15 O -2.393165 0.374430 -1.291606 0
M  V30 16 C -1.884692 2.232386 -2.751345 0
M  V30 17 C -1.321124 3.465706 -3.002912 0
M  V30 18 C -1.427362 4.023615 -4.262395 0
M  V30 19 C -2.084436 3.391853 -5.302214 0
M  V30 20 C -2.654948 2.154300 -5.065742 0
M  V30 21 N -3.344174 1.453214 -6.093811 0
M  V30 22 C -3.942620 0.141711 -5.824573 0
M  V30 23 C -3.457772 2.037053 -7.420121 0
M  V30 24 C -2.546424 1.602818 -3.809583 0
M  V30 25 C -2.246706 1.600253 1.744943 0
M  V30 26 C -2.335229 0.979868 2.976422 0
M  V30 27 C -1.296939 0.096451 3.267415 0
M  V30 28 C -1.369259 -0.593826 4.604684 0
M  V30 29 C 2.343717 -4.369991 3.373274 0
M  V30 30 C 3.425331 -5.038748 3.923363 0
M  V30 31 O 3.589112 -6.413667 3.829583 0
M  V30 32 C 2.616014 -7.168023 3.146095 0
M  V30 33 H 7.166689 -4.975048 6.367846 0
M  V30 34 H 7.118882 -3.687836 5.132774 0
M  V30 35 H 6.043421 -3.521756 6.521478 0
M  V30 36 H 4.973946 -2.379016 5.213873 0
M  V30 37 H 2.994047 -1.228825 4.196713 0
M  V30 38 H 1.348902 -0.380431 3.338453 0
M  V30 39 H 0.601372 0.278755 0.553776 0
M  V30 40 H -0.739370 2.980951 -0.357552 0
M  V30 41 H -0.817248 3.925247 -2.164149 0
M  V30 42 H -0.949235 4.995658 -4.353028 0
M  V30 43 H -2.140208 3.868567 -6.267787 0
M  V30 44 H -4.556842 0.126983 -4.924939 0
M  V30 45 H -4.586830 -0.133041 -6.685548 0
M  V30 46 H -3.118982 -0.615382 -5.832549 0
M  V30 47 H -2.509992 2.175983 -7.939431 0
M  V30 48 H -3.887488 3.052798 -7.257584 0
M  V30 49 H -4.215433 1.467638 -7.993953 0
M  V30 50 H -3.010214 0.625543 -3.664856 0
M  V30 51 H -3.043120 2.299268 1.483211 0
M  V30 52 H -3.127503 1.132125 3.696804 0
M  V30 53 H -1.634540 0.078666 5.418284 0
M  V30 54 H -0.470155 -1.209734 4.771226 0
M  V30 55 H -2.220060 -1.330177 4.508579 0
M  V30 56 H 1.633068 -5.005782 2.862228 0
M  V30 57 H 2.683245 -6.925954 2.065171 0
M  V30 58 H 1.583916 -6.935475 3.519445 0
M  V30 59 H 2.824741 -8.269644 3.262820 0
M  V30 END ATOM
M  V30 BEGIN BOND
M  V30 1 1 1 2
M  V30 2 1 2 3
M  V30 3 2 3 4
M  V30 4 1 4 5
M  V30 5 2 5 6
M  V30 6 1 6 7
M  V30 7 2 7 8
M  V30 8 1 7 9
M  V30 9 1 9 10
M  V30 10 2 10 11
M  V30 11 1 11 12
M  V30 12 1 12 13
M  V30 13 1 13 14
M  V30 14 2 14 15
M  V30 15 1 14 16
M  V30 16 2 16 17
M  V30 17 1 17 18
M  V30 18 2 18 19
M  V30 19 1 19 20
M  V30 20 1 20 21
M  V30 21 1 21 22
M  V30 22 1 21 23
M  V30 23 2 20 24
M  V30 24 2 12 25
M  V30 25 1 25 26
M  V30 26 2 26 27
M  V30 27 1 27 28
M  V30 28 1 6 29
M  V30 29 2 29 30
M  V30 30 1 30 31
M  V30 31 1 31 32
M  V30 32 1 30 3
M  V30 33 1 27 10
M  V30 34 1 24 16
M  V30 35 1 1 33
M  V30 36 1 1 34
M  V30 37 1 1 35
M  V30 38 1 4 36
M  V30 39 1 5 37
M  V30 40 1 9 38
M  V30 41 1 11 39
M  V30 42 1 13 40
M  V30 43 1 17 41
M  V30 44 1 18 42
M  V30 45 1 19 43
M  V30 46 1 22 44
M  V30 47 1 22 45
M  V30 48 1 22 46
M  V30 49 1 23 47
M  V30 50 1 23 48
M  V30 51 1 23 49
M  V30 52 1 24 50
M  V30 53 1 25 51
M  V30 54 1 26 52
M  V30 55 1 28 53
M  V30 56 1 28 54
M  V30 57 1 28 55
M  V30 58 1 29 56
M  V30 59 1 32 57
M  V30 60 1 32 58
M  V30 61 1 32 59
M  V30 END BOND
M  V30 END CTAB
M  END
>  <Dataset>  (212) 
ChEMBL_Kinases

>  <Ligand_Instance>  (212) 
nan

>  <PDB_ID>  (212) 
nan

>  <Standardized_SMILES>  (212) 
COc1ccc(C(=O)Nc2cc(NC(=O)c3cccc(N(C)C)c3)ccc2C)cc1OC

>  <Name>  (212) 
nan

>  <Pocket>  (212) 
nan

>  <ATP_Site>  (212) 
nan

>  <Peripheral>  (212) 
nan

>  <Num_H_Atoms_ProtBoundConf>  (212) 
nan

>  <Num_Resolved_Atoms>  (212) 
nan

>  <Num_Not_Resolved_Atoms>  (212) 
nan

$$$$
CHEMBL415324
     RDKit          3D

  0  0  0  0  0  0  0  0  0  0999 V3000
M  V30 BEGIN CTAB
M  V30 COUNTS 41 42 0 0 0
M  V30 BEGIN ATOM
M  V30 1 C -0.649817 -7.083354 1.677376 0
M  V30 2 O -0.381591 -6.217203 2.765984 0
M  V30 3 C -0.243747 -4.866537 2.467215 0
M  V30 4 C -0.366630 -4.418429 1.167647 0
M  V30 5 C -0.223040 -3.075356 0.917011 0
M  V30 6 C 0.038638 -2.121469 1.875976 0
M  V30 7 C 0.185517 -0.706141 1.580218 0
M  V30 8 C 0.091312 -0.157104 0.388792 0
M  V30 9 C 0.256070 1.285536 0.194493 0
M  V30 10 O 0.493065 2.017032 1.188859 0
M  V30 11 N 0.144514 1.828784 -1.115093 0
M  V30 12 C 0.286715 3.213438 -1.415200 0
M  V30 13 C -0.839648 4.044814 -1.393018 0
M  V30 14 C -0.735448 5.401982 -1.681293 0
M  V30 15 C 0.516519 5.939549 -1.997677 0
M  V30 16 C 1.649680 5.137086 -2.026767 0
M  V30 17 C 1.496238 3.797738 -1.733824 0
M  V30 18 C 2.701673 2.968357 -1.769621 0
M  V30 19 O 3.846062 3.424372 -2.051757 0
M  V30 20 O 2.702795 1.615107 -1.499727 0
M  V30 21 C 0.155206 -2.586301 3.146432 0
M  V30 22 C 0.020025 -3.924613 3.452411 0
M  V30 23 O 0.132982 -4.429068 4.734648 0
M  V30 24 C 0.394865 -3.677620 5.886475 0
M  V30 25 H -1.594446 -6.776255 1.189237 0
M  V30 26 H 0.175993 -6.942029 0.933583 0
M  V30 27 H -0.645012 -8.133465 2.032323 0
M  V30 28 H -0.574874 -5.133150 0.362403 0
M  V30 29 H -0.330806 -2.792092 -0.118708 0
M  V30 30 H 0.390133 -0.016911 2.383959 0
M  V30 31 H -0.112816 -0.801632 -0.453923 0
M  V30 32 H -0.052623 1.246808 -1.967309 0
M  V30 33 H -1.790264 3.589424 -1.143363 0
M  V30 34 H -1.652386 5.974716 -1.642461 0
M  V30 35 H 0.501432 7.000916 -2.206988 0
M  V30 36 H 2.592723 5.595787 -2.275810 0
M  V30 37 H 3.336798 0.996651 -1.988608 0
M  V30 38 H 0.362259 -1.870899 3.942691 0
M  V30 39 H 0.894304 -2.715079 5.721487 0
M  V30 40 H 0.971266 -4.275967 6.643330 0
M  V30 41 H -0.590803 -3.453475 6.383677 0
M  V30 END ATOM
M  V30 BEGIN BOND
M  V30 1 1 1 2
M  V30 2 1 2 3
M  V30 3 2 3 4
M  V30 4 1 4 5
M  V30 5 2 5 6
M  V30 6 1 6 7
M  V30 7 2 7 8
M  V30 8 1 8 9
M  V30 9 2 9 10
M  V30 10 1 9 11
M  V30 11 1 11 12
M  V30 12 2 12 13
M  V30 13 1 13 14
M  V30 14 2 14 15
M  V30 15 1 15 16
M  V30 16 2 16 17
M  V30 17 1 17 18
M  V30 18 2 18 19
M  V30 19 1 18 20
M  V30 20 1 6 21
M  V30 21 2 21 22
M  V30 22 1 22 23
M  V30 23 1 23 24
M  V30 24 1 22 3
M  V30 25 1 17 12
M  V30 26 1 1 25
M  V30 27 1 1 26
M  V30 28 1 1 27
M  V30 29 1 4 28
M  V30 30 1 5 29
M  V30 31 1 7 30
M  V30 32 1 8 31
M  V30 33 1 11 32
M  V30 34 1 13 33
M  V30 35 1 14 34
M  V30 36 1 15 35
M  V30 37 1 16 36
M  V30 38 1 20 37
M  V30 39 1 21 38
M  V30 40 1 24 39
M  V30 41 1 24 40
M  V30 42 1 24 41
M  V30 END BOND
M  V30 END CTAB
M  END
>  <Dataset>  (213) 
ChEMBL_Kinases

>  <Ligand_Instance>  (213) 
nan

>  <PDB_ID>  (213) 
nan

>  <Standardized_SMILES>  (213) 
COc1ccc(/C=C/C(=O)Nc2ccccc2C(=O)O)cc1OC

>  <Name>  (213) 
TRANILAST

>  <Pocket>  (213) 
nan

>  <ATP_Site>  (213) 
nan

>  <Peripheral>  (213) 
nan

>  <Num_H_Atoms_ProtBoundConf>  (213) 
nan

>  <Num_Resolved_Atoms>  (213) 
nan

>  <Num_Not_Resolved_Atoms>  (213) 
nan

$$$$
CHEMBL415220
     RDKit          3D

  0  0  0  0  0  0  0  0  0  0999 V3000
M  V30 BEGIN CTAB
M  V30 COUNTS 69 73 0 0 0
M  V30 BEGIN ATOM
M  V30 1 C 4.153831 3.428748 5.268855 0
M  V30 2 C 4.710230 2.114183 4.792268 0
M  V30 3 N 5.789869 1.465191 5.279005 0
M  V30 4 N 5.976325 0.341166 4.613277 0
M  V30 5 C 5.012003 0.230963 3.667591 0
M  V30 6 C 4.738514 -0.725161 2.715081 0
M  V30 7 C 3.649973 -0.517618 1.894051 0
M  V30 8 C 2.816463 0.580068 1.959966 0
M  V30 9 C 1.710981 0.634668 1.014200 0
M  V30 10 C 1.928648 0.053846 -0.215085 0
M  V30 11 N 0.964125 0.045998 -1.180074 0
M  V30 12 C -0.227127 0.616896 -0.933487 0
M  V30 13 C -0.553533 1.223998 0.251428 0
M  V30 14 O -1.594791 1.847811 0.760023 0
M  V30 15 C -2.838966 2.272461 0.593605 0
M  V30 16 C -4.026185 1.440007 0.433849 0 CFG=1
M  V30 17 N -5.221881 2.310654 0.199459 0
M  V30 18 C -4.159824 0.142276 -0.171466 0
M  V30 19 C -3.790948 -0.166233 -1.530917 0
M  V30 20 C -4.213102 0.485241 -2.663463 0
M  V30 21 C -3.937603 0.092128 -3.970490 0
M  V30 22 C -3.173218 -1.057629 -4.112363 0
M  V30 23 C -2.691178 -1.805069 -3.017322 0
M  V30 24 O -2.022568 -2.817550 -3.565389 0
M  V30 25 C -1.337427 -3.937579 -3.314940 0
M  V30 26 C -0.152301 -3.961398 -2.436451 0
M  V30 27 N -0.365891 -3.593280 -1.070799 0
M  V30 28 C -1.197757 -4.517489 -0.349808 0
M  V30 29 C -0.586947 -4.751042 1.007836 0
M  V30 30 O -0.339059 -3.570590 1.702050 0
M  V30 31 C 0.473456 -2.705519 0.975801 0
M  V30 32 C 0.842099 -3.270757 -0.364327 0
M  V30 33 C -3.024181 -1.317964 -1.786416 0
M  V30 34 C 0.453799 1.221531 1.237056 0
M  V30 35 C 3.108061 1.517162 2.914630 0
M  V30 36 C 4.186002 1.357074 3.761614 0
M  V30 37 H 3.429443 3.272648 6.086774 0
M  V30 38 H 3.629478 3.955270 4.440040 0
M  V30 39 H 5.011124 4.038416 5.625808 0
M  V30 40 H 6.728332 -0.382878 4.751447 0
M  V30 41 H 5.373115 -1.598044 2.637329 0
M  V30 42 H 3.485573 -1.314587 1.156562 0
M  V30 43 H 2.821403 -0.439922 -0.565273 0
M  V30 44 H -1.036175 0.676923 -1.623604 0
M  V30 45 H -3.072359 2.954069 1.519044 0
M  V30 46 H -2.878662 3.148313 -0.196137 0
M  V30 47 H -4.290114 1.196301 1.585297 0
M  V30 48 H -6.031068 1.686163 0.357414 0
M  V30 49 H -5.243694 3.045801 0.940640 0
M  V30 50 H -3.678932 -0.641152 0.509201 0
M  V30 51 H -5.267863 -0.167695 -0.094938 0
M  V30 52 H -4.800546 1.362116 -2.414777 0
M  V30 53 H -4.365035 0.748229 -4.687507 0
M  V30 54 H -3.064592 -1.200287 -5.206618 0
M  V30 55 H -2.076397 -4.764195 -3.045301 0
M  V30 56 H -0.981188 -4.341099 -4.340378 0
M  V30 57 H 0.332771 -4.957729 -2.455993 0
M  V30 58 H 0.594147 -3.248184 -2.857249 0
M  V30 59 H -2.254698 -4.269243 -0.333727 0
M  V30 60 H -1.109330 -5.491686 -0.896354 0
M  V30 61 H -1.407398 -5.251822 1.605835 0
M  V30 62 H 0.238243 -5.470025 1.020845 0
M  V30 63 H -0.098673 -1.771177 0.797471 0
M  V30 64 H 1.382541 -2.412020 1.546908 0
M  V30 65 H 1.369766 -4.245127 -0.140465 0
M  V30 66 H 1.497970 -2.674213 -0.971033 0
M  V30 67 H -2.605787 -1.961233 -1.029075 0
M  V30 68 H 0.452174 1.628263 2.247519 0
M  V30 69 H 2.465375 2.376837 2.975775 0
M  V30 END ATOM
M  V30 BEGIN BOND
M  V30 1 1 1 2
M  V30 2 2 2 3
M  V30 3 1 3 4
M  V30 4 1 4 5
M  V30 5 2 5 6
M  V30 6 1 6 7
M  V30 7 2 7 8
M  V30 8 1 8 9
M  V30 9 2 9 10
M  V30 10 1 10 11
M  V30 11 2 11 12
M  V30 12 1 12 13
M  V30 13 1 13 14
M  V30 14 1 14 15
M  V30 15 1 15 16
M  V30 16 1 16 17
M  V30 17 1 16 18
M  V30 18 1 18 19
M  V30 19 2 19 20
M  V30 20 1 20 21
M  V30 21 2 21 22
M  V30 22 1 22 23
M  V30 23 1 23 24
M  V30 24 1 24 25
M  V30 25 1 25 26
M  V30 26 1 26 27
M  V30 27 1 27 28
M  V30 28 1 28 29
M  V30 29 1 29 30
M  V30 30 1 30 31
M  V30 31 1 31 32
M  V30 32 2 23 33
M  V30 33 2 13 34
M  V30 34 1 8 35
M  V30 35 2 35 36
M  V30 36 1 36 2
M  V30 37 1 36 5
M  V30 38 1 34 9
M  V30 39 1 33 19
M  V30 40 1 32 27
M  V30 41 1 1 37
M  V30 42 1 1 38
M  V30 43 1 1 39
M  V30 44 1 4 40
M  V30 45 1 6 41
M  V30 46 1 7 42
M  V30 47 1 10 43
M  V30 48 1 12 44
M  V30 49 1 15 45
M  V30 50 1 15 46
M  V30 51 1 16 47 CFG=1
M  V30 52 1 17 48
M  V30 53 1 17 49
M  V30 54 1 18 50
M  V30 55 1 18 51
M  V30 56 1 20 52
M  V30 57 1 21 53
M  V30 58 1 22 54
M  V30 59 1 25 55
M  V30 60 1 25 56
M  V30 61 1 26 57
M  V30 62 1 26 58
M  V30 63 1 28 59
M  V30 64 1 28 60
M  V30 65 1 29 61
M  V30 66 1 29 62
M  V30 67 1 31 63
M  V30 68 1 31 64
M  V30 69 1 32 65
M  V30 70 1 32 66
M  V30 71 1 33 67
M  V30 72 1 34 68
M  V30 73 1 35 69
M  V30 END BOND
M  V30 END CTAB
M  END
>  <Dataset>  (214) 
ChEMBL_Kinases

>  <Ligand_Instance>  (214) 
nan

>  <PDB_ID>  (214) 
nan

>  <Standardized_SMILES>  (214) 
Cc1n[nH]c2ccc(-c3cncc(OC[C@@H](N)Cc4cccc(OCCN5CCOCC5)c4)c3)cc12

>  <Name>  (214) 
nan

>  <Pocket>  (214) 
nan

>  <ATP_Site>  (214) 
nan

>  <Peripheral>  (214) 
nan

>  <Num_H_Atoms_ProtBoundConf>  (214) 
nan

>  <Num_Resolved_Atoms>  (214) 
nan

>  <Num_Not_Resolved_Atoms>  (214) 
nan

$$$$
CHEMBL415169
     RDKit          3D

  0  0  0  0  0  0  0  0  0  0999 V3000
M  V30 BEGIN CTAB
M  V30 COUNTS 75 78 0 0 0
M  V30 BEGIN ATOM
M  V30 1 C 0.500176 -2.917875 4.904083 0
M  V30 2 C 0.816024 -1.670244 4.139541 0
M  V30 3 C 1.455583 -0.662564 4.822131 0
M  V30 4 C 1.772686 0.510385 4.173707 0
M  V30 5 C 1.446959 0.667030 2.844252 0
M  V30 6 C 1.764727 1.886135 2.112207 0
M  V30 7 O 1.432877 1.978424 0.921584 0
M  V30 8 N 2.442172 2.976000 2.711153 0
M  V30 9 C 2.786520 4.215762 2.035646 0
M  V30 10 C 1.650143 5.132641 1.862101 0
M  V30 11 C 1.446423 6.023789 2.918116 0
M  V30 12 C 0.395339 6.913208 2.814222 0
M  V30 13 C -0.480819 7.010367 1.762881 0
M  V30 14 C -0.255555 6.115544 0.730675 0
M  V30 15 C 0.788259 5.203363 0.790549 0
M  V30 16 C 0.807756 -0.386946 2.230899 0
M  V30 17 C 0.458567 -1.587196 2.810658 0
M  V30 18 N -0.184991 -2.656034 2.181953 0
M  V30 19 C -0.639966 -2.756032 0.841357 0
M  V30 20 N -1.221794 -3.867486 0.380829 0
M  V30 21 C -1.676753 -4.032354 -0.867203 0
M  V30 22 N -2.279669 -5.256804 -1.262701 0
M  V30 23 C -2.402279 -6.351797 -0.306896 0 CFG=1
M  V30 24 C -1.054687 -6.793803 0.199753 0
M  V30 25 C -1.240845 -6.944544 1.671996 0
M  V30 26 N -2.507218 -6.405002 2.054694 0
M  V30 27 C -3.206142 -5.950747 0.886747 0
M  V30 28 N -1.559403 -3.031184 -1.753467 0
M  V30 29 C -0.989182 -1.904825 -1.348742 0
M  V30 30 N -0.762876 -0.712192 -2.131955 0
M  V30 31 C -1.863755 0.232868 -2.114857 0
M  V30 32 C 0.435671 -0.449901 -2.875315 0
M  V30 33 C 0.288887 -0.458058 -4.358688 0
M  V30 34 C -0.196472 -1.766566 -4.911678 0
M  V30 35 C -0.589967 0.678245 -4.819851 0
M  V30 36 C 1.659902 -0.212471 -5.002383 0
M  V30 37 N -0.553760 -1.800445 -0.087235 0
M  V30 38 H -0.583666 -3.177388 4.762361 0
M  V30 39 H 1.161914 -3.719165 4.569959 0
M  V30 40 H 0.623909 -2.763437 5.994737 0
M  V30 41 H 1.707894 -0.796502 5.870035 0
M  V30 42 H 2.274505 1.276878 4.745169 0
M  V30 43 H 2.741500 2.945883 3.709139 0
M  V30 44 H 3.209340 3.908861 1.030605 0
M  V30 45 H 3.609391 4.754979 2.528149 0
M  V30 46 H 2.055663 6.060302 3.804374 0
M  V30 47 H 0.217210 7.622289 3.632113 0
M  V30 48 H -1.276924 7.728344 1.750514 0
M  V30 49 H -0.911099 6.135988 -0.133407 0
M  V30 50 H 0.969413 4.505353 -0.012882 0
M  V30 51 H 0.571776 -0.222245 1.192353 0
M  V30 52 H -0.363217 -3.506944 2.764830 0
M  V30 53 H -2.636227 -5.377962 -2.235019 0
M  V30 54 H -2.852165 -7.239834 -0.800587 0
M  V30 55 H -0.262669 -6.063333 -0.009399 0
M  V30 56 H -0.712996 -7.752094 -0.263119 0
M  V30 57 H -1.225986 -8.031370 1.919941 0
M  V30 58 H -0.384888 -6.481621 2.214560 0
M  V30 59 H -2.333684 -5.590176 2.687662 0
M  V30 60 H -4.217010 -6.437645 0.836883 0
M  V30 61 H -3.394847 -4.859792 0.937108 0
M  V30 62 H -2.189101 0.304280 -1.035224 0
M  V30 63 H -2.751998 -0.160474 -2.651477 0
M  V30 64 H -1.571896 1.250943 -2.384920 0
M  V30 65 H 0.881411 0.555596 -2.611914 0
M  V30 66 H 1.255264 -1.159546 -2.627565 0
M  V30 67 H 0.481923 -2.581322 -4.635056 0
M  V30 68 H -0.109198 -1.663942 -6.030265 0
M  V30 69 H -1.262261 -1.978479 -4.729695 0
M  V30 70 H -1.658186 0.524613 -4.669221 0
M  V30 71 H -0.457150 0.865731 -5.918798 0
M  V30 72 H -0.226522 1.622928 -4.333306 0
M  V30 73 H 1.698131 -0.548494 -6.042105 0
M  V30 74 H 1.987137 0.838216 -4.844856 0
M  V30 75 H 2.408888 -0.839223 -4.441594 0
M  V30 END ATOM
M  V30 BEGIN BOND
M  V30 1 1 1 2
M  V30 2 2 2 3
M  V30 3 1 3 4
M  V30 4 2 4 5
M  V30 5 1 5 6
M  V30 6 2 6 7
M  V30 7 1 6 8
M  V30 8 1 8 9
M  V30 9 1 9 10
M  V30 10 2 10 11
M  V30 11 1 11 12
M  V30 12 2 12 13
M  V30 13 1 13 14
M  V30 14 2 14 15
M  V30 15 1 5 16
M  V30 16 2 16 17
M  V30 17 1 17 18
M  V30 18 1 18 19
M  V30 19 2 19 20
M  V30 20 1 20 21
M  V30 21 1 21 22
M  V30 22 1 22 23
M  V30 23 1 23 24
M  V30 24 1 24 25
M  V30 25 1 25 26
M  V30 26 1 26 27
M  V30 27 2 21 28
M  V30 28 1 28 29
M  V30 29 1 29 30
M  V30 30 1 30 31
M  V30 31 1 30 32
M  V30 32 1 32 33
M  V30 33 1 33 34
M  V30 34 1 33 35
M  V30 35 1 33 36
M  V30 36 2 29 37
M  V30 37 1 17 2
M  V30 38 1 37 19
M  V30 39 1 15 10
M  V30 40 1 27 23
M  V30 41 1 1 38
M  V30 42 1 1 39
M  V30 43 1 1 40
M  V30 44 1 3 41
M  V30 45 1 4 42
M  V30 46 1 8 43
M  V30 47 1 9 44
M  V30 48 1 9 45
M  V30 49 1 11 46
M  V30 50 1 12 47
M  V30 51 1 13 48
M  V30 52 1 14 49
M  V30 53 1 15 50
M  V30 54 1 16 51
M  V30 55 1 18 52
M  V30 56 1 22 53
M  V30 57 1 23 54 CFG=3
M  V30 58 1 24 55
M  V30 59 1 24 56
M  V30 60 1 25 57
M  V30 61 1 25 58
M  V30 62 1 26 59
M  V30 63 1 27 60
M  V30 64 1 27 61
M  V30 65 1 31 62
M  V30 66 1 31 63
M  V30 67 1 31 64
M  V30 68 1 32 65
M  V30 69 1 32 66
M  V30 70 1 34 67
M  V30 71 1 34 68
M  V30 72 1 34 69
M  V30 73 1 35 70
M  V30 74 1 35 71
M  V30 75 1 35 72
M  V30 76 1 36 73
M  V30 77 1 36 74
M  V30 78 1 36 75
M  V30 END BOND
M  V30 END CTAB
M  END
>  <Dataset>  (215) 
ChEMBL_Kinases

>  <Ligand_Instance>  (215) 
nan

>  <PDB_ID>  (215) 
nan

>  <Standardized_SMILES>  (215) 
Cc1ccc(C(=O)NCc2ccccc2)cc1Nc1nc(N[C@H]2CCNC2)nc(N(C)CC(C)(C)C)n1

>  <Name>  (215) 
nan

>  <Pocket>  (215) 
nan

>  <ATP_Site>  (215) 
nan

>  <Peripheral>  (215) 
nan

>  <Num_H_Atoms_ProtBoundConf>  (215) 
nan

>  <Num_Resolved_Atoms>  (215) 
nan

>  <Num_Not_Resolved_Atoms>  (215) 
nan

$$$$
CHEMBL4789908
     RDKit          3D

  0  0  0  0  0  0  0  0  0  0999 V3000
M  V30 BEGIN CTAB
M  V30 COUNTS 38 40 0 0 0
M  V30 BEGIN ATOM
M  V30 1 C 0.106965 -3.465912 1.727184 0
M  V30 2 C -0.397584 -2.328905 0.888627 0
M  V30 3 C -0.298829 -2.698131 -0.567863 0
M  V30 4 N -0.765108 -1.646972 -1.442811 0
M  V30 5 C -2.177405 -1.399873 -1.384694 0
M  V30 6 C -0.361062 -1.969387 -2.799418 0
M  V30 7 N 0.157705 -1.050318 1.220844 0
M  V30 8 C 1.362973 -0.601475 0.785449 0
M  V30 9 O 2.045411 -1.350622 0.036018 0
M  V30 10 C 1.840384 0.642185 1.147254 0
M  V30 11 C 3.084470 1.086240 0.688102 0
M  V30 12 C 3.542780 2.350353 1.069335 0
M  V30 13 F 4.741837 2.728825 0.602851 0
M  V30 14 C 2.794926 3.180674 1.893709 0
M  V30 15 C 1.567515 2.742382 2.346214 0
M  V30 16 C 1.134592 1.497206 1.961004 0
M  V30 17 N -0.040605 1.045286 2.377584 0
M  V30 18 C -0.983392 1.586300 3.164367 0
M  V30 19 S -1.085106 3.015866 3.933367 0
M  V30 20 N -2.010474 0.737038 3.300589 0
M  V30 21 N -1.707922 -0.354363 2.589047 0
M  V30 22 C -0.482516 -0.168856 2.011682 0
M  V30 23 H -0.675394 -3.888654 2.417939 0
M  V30 24 H 0.918005 -3.117828 2.396308 0
M  V30 25 H 0.444972 -4.327675 1.124623 0
M  V30 26 H -1.500727 -2.258453 1.108210 0
M  V30 27 H -0.989189 -3.577256 -0.719356 0
M  V30 28 H 0.698324 -3.025851 -0.884060 0
M  V30 29 H -2.766148 -2.222473 -0.926629 0
M  V30 30 H -2.394993 -0.400405 -0.923722 0
M  V30 31 H -2.570986 -1.320488 -2.429115 0
M  V30 32 H -0.218406 -3.047088 -2.969559 0
M  V30 33 H 0.549463 -1.384723 -3.087222 0
M  V30 34 H -1.147848 -1.631054 -3.531752 0
M  V30 35 H 3.683001 0.471393 0.053244 0
M  V30 36 H 3.223301 4.152802 2.141947 0
M  V30 37 H 1.074925 3.438981 2.963417 0
M  V30 38 H -2.923132 0.740098 3.799467 0
M  V30 END ATOM
M  V30 BEGIN BOND
M  V30 1 1 1 2
M  V30 2 1 2 3
M  V30 3 1 3 4
M  V30 4 1 4 5
M  V30 5 1 4 6
M  V30 6 1 2 7
M  V30 7 1 7 8
M  V30 8 2 8 9
M  V30 9 1 8 10
M  V30 10 2 10 11
M  V30 11 1 11 12
M  V30 12 1 12 13
M  V30 13 2 12 14
M  V30 14 1 14 15
M  V30 15 2 15 16
M  V30 16 1 16 17
M  V30 17 1 17 18
M  V30 18 2 18 19
M  V30 19 1 18 20
M  V30 20 1 20 21
M  V30 21 2 21 22
M  V30 22 1 22 7
M  V30 23 1 16 10
M  V30 24 1 22 17
M  V30 25 1 1 23
M  V30 26 1 1 24
M  V30 27 1 1 25
M  V30 28 1 2 26
M  V30 29 1 3 27
M  V30 30 1 3 28
M  V30 31 1 5 29
M  V30 32 1 5 30
M  V30 33 1 5 31
M  V30 34 1 6 32
M  V30 35 1 6 33
M  V30 36 1 6 34
M  V30 37 1 11 35
M  V30 38 1 14 36
M  V30 39 1 15 37
M  V30 40 1 20 38
M  V30 END BOND
M  V30 END CTAB
M  END
>  <Dataset>  (216) 
ChEMBL_Kinases

>  <Ligand_Instance>  (216) 
nan

>  <PDB_ID>  (216) 
nan

>  <Standardized_SMILES>  (216) 
CC(CN(C)C)n1c(=O)c2cc(F)ccc2n2c(=S)[nH]nc12

>  <Name>  (216) 
nan

>  <Pocket>  (216) 
nan

>  <ATP_Site>  (216) 
nan

>  <Peripheral>  (216) 
nan

>  <Num_H_Atoms_ProtBoundConf>  (216) 
nan

>  <Num_Resolved_Atoms>  (216) 
nan

>  <Num_Not_Resolved_Atoms>  (216) 
nan

$$$$
CHEMBL479
     RDKit          3D

  0  0  0  0  0  0  0  0  0  0999 V3000
M  V30 BEGIN CTAB
M  V30 COUNTS 51 54 0 0 0
M  V30 BEGIN ATOM
M  V30 1 C 2.527664 -4.290944 4.401459 0
M  V30 2 S 3.355253 -3.229980 3.173463 0
M  V30 3 C 2.507884 -3.424605 1.612203 0
M  V30 4 C 2.967323 -4.417548 0.779748 0
M  V30 5 C 2.330998 -4.590143 -0.432637 0
M  V30 6 C 1.297702 -3.789808 -0.750803 0
M  V30 7 C 0.767977 -2.776042 0.007129 0
M  V30 8 C 1.441226 -2.651347 1.203276 0
M  V30 9 N -0.331093 -1.940653 -0.312911 0
M  V30 10 C -0.674059 -0.905388 0.635955 0
M  V30 11 C 0.280249 0.271175 0.568209 0
M  V30 12 C -0.016244 1.361393 1.545133 0
M  V30 13 C 1.003440 2.495290 1.391957 0
M  V30 14 C 0.882173 3.310903 2.664982 0
M  V30 15 C -0.395136 3.043797 3.394902 0
M  V30 16 C -1.585206 2.819328 2.509689 0
M  V30 17 N -1.302398 1.957937 1.386655 0
M  V30 18 C -1.507771 2.686059 0.174456 0
M  V30 19 C -1.032236 -2.088952 -1.527393 0
M  V30 20 C -2.102772 -1.280371 -1.840984 0
M  V30 21 C -2.854177 -1.342739 -2.993703 0
M  V30 22 C -2.529819 -2.291002 -3.940411 0
M  V30 23 C -1.468243 -3.133522 -3.690649 0
M  V30 24 C -0.783527 -2.992249 -2.515336 0
M  V30 25 S 0.568154 -4.139132 -2.340779 0
M  V30 26 H 1.415603 -4.105176 4.386777 0
M  V30 27 H 2.652038 -5.338552 4.043435 0
M  V30 28 H 2.976322 -4.117138 5.400990 0
M  V30 29 H 3.799419 -5.042938 1.064506 0
M  V30 30 H 2.721998 -5.381904 -1.059017 0
M  V30 31 H 1.191475 -1.931383 1.968256 0
M  V30 32 H -0.667272 -1.368412 1.653264 0
M  V30 33 H -1.677494 -0.466379 0.511119 0
M  V30 34 H 0.233784 0.741577 -0.462045 0
M  V30 35 H 1.317311 -0.068755 0.652630 0
M  V30 36 H 0.061846 0.988548 2.582367 0
M  V30 37 H 2.006213 2.059147 1.248948 0
M  V30 38 H 0.731067 3.132694 0.536147 0
M  V30 39 H 1.041141 4.390584 2.438548 0
M  V30 40 H 1.736910 2.961925 3.308195 0
M  V30 41 H -0.295368 2.240392 4.179677 0
M  V30 42 H -0.614571 3.969667 3.998959 0
M  V30 43 H -2.389578 2.399275 3.180589 0
M  V30 44 H -1.961207 3.822239 2.191654 0
M  V30 45 H -0.808599 2.486371 -0.635630 0
M  V30 46 H -2.549933 2.478609 -0.207889 0
M  V30 47 H -1.522513 3.794860 0.384013 0
M  V30 48 H -2.464527 -0.493331 -1.196770 0
M  V30 49 H -3.689940 -0.707951 -3.232931 0
M  V30 50 H -3.096290 -2.370789 -4.857492 0
M  V30 51 H -1.247497 -3.861344 -4.457250 0
M  V30 END ATOM
M  V30 BEGIN BOND
M  V30 1 1 1 2
M  V30 2 1 2 3
M  V30 3 2 3 4
M  V30 4 1 4 5
M  V30 5 2 5 6
M  V30 6 1 6 7
M  V30 7 2 7 8
M  V30 8 1 7 9
M  V30 9 1 9 10
M  V30 10 1 10 11
M  V30 11 1 11 12
M  V30 12 1 12 13
M  V30 13 1 13 14
M  V30 14 1 14 15
M  V30 15 1 15 16
M  V30 16 1 16 17
M  V30 17 1 17 18
M  V30 18 1 9 19
M  V30 19 2 19 20
M  V30 20 1 20 21
M  V30 21 2 21 22
M  V30 22 1 22 23
M  V30 23 2 23 24
M  V30 24 1 24 25
M  V30 25 1 8 3
M  V30 26 1 17 12
M  V30 27 1 24 19
M  V30 28 1 25 6
M  V30 29 1 1 26
M  V30 30 1 1 27
M  V30 31 1 1 28
M  V30 32 1 4 29
M  V30 33 1 5 30
M  V30 34 1 8 31
M  V30 35 1 10 32
M  V30 36 1 10 33
M  V30 37 1 11 34
M  V30 38 1 11 35
M  V30 39 1 12 36
M  V30 40 1 13 37
M  V30 41 1 13 38
M  V30 42 1 14 39
M  V30 43 1 14 40
M  V30 44 1 15 41
M  V30 45 1 15 42
M  V30 46 1 16 43
M  V30 47 1 16 44
M  V30 48 1 18 45
M  V30 49 1 18 46
M  V30 50 1 18 47
M  V30 51 1 20 48
M  V30 52 1 21 49
M  V30 53 1 22 50
M  V30 54 1 23 51
M  V30 END BOND
M  V30 END CTAB
M  END
>  <Dataset>  (217) 
ChEMBL_Kinases

>  <Ligand_Instance>  (217) 
nan

>  <PDB_ID>  (217) 
nan

>  <Standardized_SMILES>  (217) 
CSc1ccc2c(c1)N(CCC1CCCCN1C)c1ccccc1S2

>  <Name>  (217) 
THIORIDAZINE

>  <Pocket>  (217) 
nan

>  <ATP_Site>  (217) 
nan

>  <Peripheral>  (217) 
nan

>  <Num_H_Atoms_ProtBoundConf>  (217) 
nan

>  <Num_Resolved_Atoms>  (217) 
nan

>  <Num_Not_Resolved_Atoms>  (217) 
nan

$$$$
CHEMBL414139
     RDKit          3D

  0  0  0  0  0  0  0  0  0  0999 V3000
M  V30 BEGIN CTAB
M  V30 COUNTS 68 72 0 0 0
M  V30 BEGIN ATOM
M  V30 1 C 1.102967 -0.451548 2.777716 0
M  V30 2 O 1.506669 -1.385520 1.784126 0
M  V30 3 C 0.619639 -2.263663 1.225243 0
M  V30 4 C -0.711123 -2.343722 1.549411 0
M  V30 5 C -1.546462 -3.276899 0.923176 0
M  V30 6 C -2.881620 -3.297170 1.309623 0
M  V30 7 N -3.321356 -2.378185 2.300956 0
M  V30 8 C -3.865818 -1.123549 1.850336 0
M  V30 9 C -3.987452 -0.893486 0.476345 0
M  V30 10 C -4.510015 0.305704 0.041220 0
M  V30 11 C -4.915522 1.283342 0.923285 0
M  V30 12 O -5.453876 2.525434 0.654297 0
M  V30 13 C -4.706781 3.670530 0.474762 0
M  V30 14 C -4.313317 4.556369 1.451973 0
M  V30 15 C -3.569601 5.688817 1.240126 0
M  V30 16 C -3.195986 5.944037 -0.058807 0
M  V30 17 C -3.557639 5.099350 -1.071594 0
M  V30 18 C -4.309363 3.959731 -0.836373 0
M  V30 19 C -4.790396 1.045365 2.293030 0
M  V30 20 C -4.268830 -0.151181 2.741206 0
M  V30 21 C -3.755761 -4.200280 0.728271 0
M  V30 22 C -5.124791 -4.253191 1.096036 0
M  V30 23 N -6.258383 -4.283798 1.412136 0
M  V30 24 C -3.200221 -5.032319 -0.221471 0
M  V30 25 N -1.902121 -4.987454 -0.573976 0
M  V30 26 C -1.036408 -4.134203 -0.036038 0
M  V30 27 C 0.306060 -4.067016 -0.376108 0
M  V30 28 C 1.131847 -3.130547 0.256429 0
M  V30 29 O 2.475841 -3.058246 -0.079149 0
M  V30 30 C 3.004252 -3.923847 -1.059300 0
M  V30 31 C 4.485730 -3.708879 -1.291735 0
M  V30 32 C 4.749882 -2.276816 -1.745903 0
M  V30 33 N 4.316548 -1.307469 -0.729199 0
M  V30 34 C 4.604874 0.005567 -1.316668 0
M  V30 35 C 6.040510 0.408954 -1.145776 0
M  V30 36 O 6.460721 0.393824 0.172987 0
M  V30 37 C 5.444551 -0.109299 1.001921 0
M  V30 38 C 5.146830 -1.499684 0.467496 0
M  V30 39 H 0.730183 -0.934861 3.688348 0
M  V30 40 H 0.324375 0.239872 2.395000 0
M  V30 41 H 1.966159 0.177714 3.088487 0
M  V30 42 H -1.048284 -1.645875 2.305367 0
M  V30 43 H -3.282709 -2.533668 3.338289 0
M  V30 44 H -3.692814 -1.607002 -0.270578 0
M  V30 45 H -4.656173 0.607319 -0.987574 0
M  V30 46 H -4.666980 4.251581 2.435928 0
M  V30 47 H -3.303051 6.334371 2.076682 0
M  V30 48 H -2.613596 6.822000 -0.251716 0
M  V30 49 H -3.285807 5.262409 -2.103727 0
M  V30 50 H -4.602895 3.277964 -1.645153 0
M  V30 51 H -5.080623 1.750316 3.074267 0
M  V30 52 H -4.163547 -0.356611 3.795139 0
M  V30 53 H -3.906503 -5.740950 -0.669894 0
M  V30 54 H 0.682300 -4.744963 -1.127858 0
M  V30 55 H 2.818363 -4.994900 -0.871565 0
M  V30 56 H 2.516255 -3.730941 -2.059600 0
M  V30 57 H 5.108933 -3.966391 -0.426809 0
M  V30 58 H 4.805641 -4.347205 -2.139483 0
M  V30 59 H 4.146114 -2.053122 -2.635491 0
M  V30 60 H 5.826813 -2.088496 -1.876816 0
M  V30 61 H 3.926858 0.794872 -0.937333 0
M  V30 62 H 4.417055 -0.040651 -2.408123 0
M  V30 63 H 6.723842 -0.110116 -1.841856 0
M  V30 64 H 6.085749 1.490594 -1.463034 0
M  V30 65 H 4.556197 0.553494 0.986400 0
M  V30 66 H 5.827535 -0.143571 2.042463 0
M  V30 67 H 4.668676 -2.102927 1.239320 0
M  V30 68 H 6.140633 -1.950172 0.175677 0
M  V30 END ATOM
M  V30 BEGIN BOND
M  V30 1 1 1 2
M  V30 2 1 2 3
M  V30 3 2 3 4
M  V30 4 1 4 5
M  V30 5 2 5 6
M  V30 6 1 6 7
M  V30 7 1 7 8
M  V30 8 2 8 9
M  V30 9 1 9 10
M  V30 10 2 10 11
M  V30 11 1 11 12
M  V30 12 1 12 13
M  V30 13 2 13 14
M  V30 14 1 14 15
M  V30 15 2 15 16
M  V30 16 1 16 17
M  V30 17 2 17 18
M  V30 18 1 11 19
M  V30 19 2 19 20
M  V30 20 1 6 21
M  V30 21 1 21 22
M  V30 22 3 22 23
M  V30 23 2 21 24
M  V30 24 1 24 25
M  V30 25 2 25 26
M  V30 26 1 26 27
M  V30 27 2 27 28
M  V30 28 1 28 29
M  V30 29 1 29 30
M  V30 30 1 30 31
M  V30 31 1 31 32
M  V30 32 1 32 33
M  V30 33 1 33 34
M  V30 34 1 34 35
M  V30 35 1 35 36
M  V30 36 1 36 37
M  V30 37 1 37 38
M  V30 38 1 28 3
M  V30 39 1 38 33
M  V30 40 1 26 5
M  V30 41 1 20 8
M  V30 42 1 18 13
M  V30 43 1 1 39
M  V30 44 1 1 40
M  V30 45 1 1 41
M  V30 46 1 4 42
M  V30 47 1 7 43
M  V30 48 1 9 44
M  V30 49 1 10 45
M  V30 50 1 14 46
M  V30 51 1 15 47
M  V30 52 1 16 48
M  V30 53 1 17 49
M  V30 54 1 18 50
M  V30 55 1 19 51
M  V30 56 1 20 52
M  V30 57 1 24 53
M  V30 58 1 27 54
M  V30 59 1 30 55
M  V30 60 1 30 56
M  V30 61 1 31 57
M  V30 62 1 31 58
M  V30 63 1 32 59
M  V30 64 1 32 60
M  V30 65 1 34 61
M  V30 66 1 34 62
M  V30 67 1 35 63
M  V30 68 1 35 64
M  V30 69 1 37 65
M  V30 70 1 37 66
M  V30 71 1 38 67
M  V30 72 1 38 68
M  V30 END BOND
M  V30 END CTAB
M  END
>  <Dataset>  (218) 
ChEMBL_Kinases

>  <Ligand_Instance>  (218) 
nan

>  <PDB_ID>  (218) 
nan

>  <Standardized_SMILES>  (218) 
COc1cc2c(Nc3ccc(Oc4ccccc4)cc3)c(C#N)cnc2cc1OCCCN1CCOCC1

>  <Name>  (218) 
nan

>  <Pocket>  (218) 
nan

>  <ATP_Site>  (218) 
nan

>  <Peripheral>  (218) 
nan

>  <Num_H_Atoms_ProtBoundConf>  (218) 
nan

>  <Num_Resolved_Atoms>  (218) 
nan

>  <Num_Not_Resolved_Atoms>  (218) 
nan

$$$$
CHEMBL413783
     RDKit          3D

  0  0  0  0  0  0  0  0  0  0999 V3000
M  V30 BEGIN CTAB
M  V30 COUNTS 56 58 0 0 0
M  V30 BEGIN ATOM
M  V30 1 C 3.097580 -3.958477 -0.650535 0
M  V30 2 C 3.421109 -2.791435 0.203974 0
M  V30 3 C 4.612164 -2.715781 0.881174 0
M  V30 4 C 4.938750 -1.647492 1.679551 0
M  V30 5 C 4.026783 -0.629083 1.790322 0
M  V30 6 C 4.387024 0.496039 2.639445 0
M  V30 7 N 3.647122 1.660284 2.920791 0
M  V30 8 O 5.496435 0.486956 3.229364 0
M  V30 9 C 2.836545 -0.721465 1.103587 0
M  V30 10 C 2.458143 -1.779143 0.284287 0
M  V30 11 N 1.224029 -1.774092 -0.388803 0
M  V30 12 C 0.127227 -0.895198 -0.371379 0
M  V30 13 N 0.002766 0.143663 0.467057 0
M  V30 14 C -1.019873 1.007639 0.490199 0
M  V30 15 N -1.177052 2.098696 1.380396 0
M  V30 16 C -0.433852 2.480252 2.531159 0
M  V30 17 C -0.605794 1.636098 3.745313 0
M  V30 18 C -0.222290 0.188273 3.573802 0
M  V30 19 C -1.989477 1.767476 4.351695 0
M  V30 20 N -1.959849 0.751858 -0.428432 0
M  V30 21 C -1.897951 -0.266597 -1.293980 0
M  V30 22 N -2.953730 -0.442652 -2.227329 0
M  V30 23 C -2.937881 -1.536016 -3.193949 0 CFG=1
M  V30 24 C -2.904402 -2.891728 -2.565723 0
M  V30 25 C -4.355186 -3.306388 -2.557249 0
M  V30 26 N -5.075276 -2.406733 -3.403787 0
M  V30 27 C -4.147496 -1.534654 -4.066583 0
M  V30 28 N -0.851555 -1.099038 -1.271143 0
M  V30 29 H 2.214532 -4.451772 -0.168808 0
M  V30 30 H 3.919537 -4.699802 -0.568618 0
M  V30 31 H 2.964258 -3.745094 -1.706904 0
M  V30 32 H 5.280062 -3.554224 0.746339 0
M  V30 33 H 5.889750 -1.639099 2.190539 0
M  V30 34 H 3.136455 1.878626 3.809764 0
M  V30 35 H 3.361712 2.563433 2.491366 0
M  V30 36 H 2.209266 0.142534 1.262945 0
M  V30 37 H 1.161981 -2.628619 -1.022424 0
M  V30 38 H -1.992413 2.750202 1.155243 0
M  V30 39 H 0.654532 2.456902 2.268411 0
M  V30 40 H -0.655545 3.521631 2.818035 0
M  V30 41 H 0.091527 2.067220 4.522947 0
M  V30 42 H -0.197345 -0.335635 4.576953 0
M  V30 43 H 0.790515 0.147092 3.143155 0
M  V30 44 H -0.997610 -0.336047 3.006810 0
M  V30 45 H -2.491523 0.787758 4.202809 0
M  V30 46 H -1.968674 1.973552 5.438427 0
M  V30 47 H -2.566689 2.507363 3.785792 0
M  V30 48 H -3.771209 0.202097 -2.251075 0
M  V30 49 H -2.041416 -1.381669 -3.859593 0
M  V30 50 H -2.383793 -3.615314 -3.238070 0
M  V30 51 H -2.419525 -2.928218 -1.584084 0
M  V30 52 H -4.479243 -4.360988 -2.880450 0
M  V30 53 H -4.756628 -3.174626 -1.517265 0
M  V30 54 H -5.683149 -2.871485 -4.117346 0
M  V30 55 H -3.863388 -1.905070 -5.076013 0
M  V30 56 H -4.526488 -0.497878 -4.159265 0
M  V30 END ATOM
M  V30 BEGIN BOND
M  V30 1 1 1 2
M  V30 2 2 2 3
M  V30 3 1 3 4
M  V30 4 2 4 5
M  V30 5 1 5 6
M  V30 6 1 6 7
M  V30 7 2 6 8
M  V30 8 1 5 9
M  V30 9 2 9 10
M  V30 10 1 10 11
M  V30 11 1 11 12
M  V30 12 2 12 13
M  V30 13 1 13 14
M  V30 14 1 14 15
M  V30 15 1 15 16
M  V30 16 1 16 17
M  V30 17 1 17 18
M  V30 18 1 17 19
M  V30 19 2 14 20
M  V30 20 1 20 21
M  V30 21 1 21 22
M  V30 22 1 22 23
M  V30 23 1 23 24
M  V30 24 1 24 25
M  V30 25 1 25 26
M  V30 26 1 26 27
M  V30 27 2 21 28
M  V30 28 1 10 2
M  V30 29 1 28 12
M  V30 30 1 27 23
M  V30 31 1 1 29
M  V30 32 1 1 30
M  V30 33 1 1 31
M  V30 34 1 3 32
M  V30 35 1 4 33
M  V30 36 1 7 34
M  V30 37 1 7 35
M  V30 38 1 9 36
M  V30 39 1 11 37
M  V30 40 1 15 38
M  V30 41 1 16 39
M  V30 42 1 16 40
M  V30 43 1 17 41
M  V30 44 1 18 42
M  V30 45 1 18 43
M  V30 46 1 18 44
M  V30 47 1 19 45
M  V30 48 1 19 46
M  V30 49 1 19 47
M  V30 50 1 22 48
M  V30 51 1 23 49 CFG=3
M  V30 52 1 24 50
M  V30 53 1 24 51
M  V30 54 1 25 52
M  V30 55 1 25 53
M  V30 56 1 26 54
M  V30 57 1 27 55
M  V30 58 1 27 56
M  V30 END BOND
M  V30 END CTAB
M  END
>  <Dataset>  (219) 
ChEMBL_Kinases

>  <Ligand_Instance>  (219) 
nan

>  <PDB_ID>  (219) 
nan

>  <Standardized_SMILES>  (219) 
Cc1ccc(C(N)=O)cc1Nc1nc(NCC(C)C)nc(N[C@H]2CCNC2)n1

>  <Name>  (219) 
nan

>  <Pocket>  (219) 
nan

>  <ATP_Site>  (219) 
nan

>  <Peripheral>  (219) 
nan

>  <Num_H_Atoms_ProtBoundConf>  (219) 
nan

>  <Num_Resolved_Atoms>  (219) 
nan

>  <Num_Not_Resolved_Atoms>  (219) 
nan

$$$$
CHEMBL413779
     RDKit          3D

  0  0  0  0  0  0  0  0  0  0999 V3000
M  V30 BEGIN CTAB
M  V30 COUNTS 50 52 0 0 0
M  V30 BEGIN ATOM
M  V30 1 N 7.370069 1.818302 0.959055 0
M  V30 2 C 6.780461 0.869706 0.677591 0
M  V30 3 C 6.073263 -0.308715 0.318140 0
M  V30 4 N 6.292485 -1.432481 -0.370705 0
M  V30 5 C 5.275983 -2.314460 -0.450612 0
M  V30 6 C 4.022334 -2.195769 0.099407 0
M  V30 7 N 3.794731 -1.067026 0.793596 0
M  V30 8 C 4.836585 -0.177539 0.867480 0
M  V30 9 O 3.912287 0.457198 1.564645 0
M  V30 10 C 3.436496 1.741986 1.661276 0
M  V30 11 C 2.234939 1.778610 2.642690 0
M  V30 12 C 1.252624 0.755455 2.211986 0
M  V30 13 C -0.012832 0.751761 3.024694 0
M  V30 14 C -0.846543 -0.492435 2.543316 0
M  V30 15 O -0.894039 -0.342776 1.164310 0
M  V30 16 C -1.468183 -1.143545 0.212985 0
M  V30 17 C -2.716851 -0.730989 -0.181056 0
M  V30 18 C -3.518868 -1.337857 -1.112647 0
M  V30 19 O -4.746841 -1.090207 -1.626255 0
M  V30 20 C -5.592891 -0.062159 -1.281574 0
M  V30 21 C -6.094745 -0.092042 0.132410 0
M  V30 22 O -6.943473 1.019458 0.328742 0
M  V30 23 C -3.008704 -2.483199 -1.713449 0
M  V30 24 Cl -3.855459 -3.446162 -2.949352 0
M  V30 25 C -1.736014 -2.942595 -1.342553 0
M  V30 26 C -0.963824 -2.274129 -0.379087 0
M  V30 27 N 0.282789 -2.931442 -0.180415 0
M  V30 28 C 1.612482 -2.581583 -0.110903 0
M  V30 29 O 1.279830 -1.445186 -0.293385 0
M  V30 30 N 2.910974 -3.084234 0.072673 0
M  V30 31 H 5.431126 -3.230544 -1.001823 0
M  V30 32 H 4.221905 2.413954 2.051952 0
M  V30 33 H 3.089745 2.156846 0.697419 0
M  V30 34 H 1.822411 2.796290 2.632180 0
M  V30 35 H 2.630354 1.567895 3.645350 0
M  V30 36 H 1.715723 -0.264028 2.369625 0
M  V30 37 H 1.030914 0.802988 1.118453 0
M  V30 38 H -0.685406 1.606033 2.819404 0
M  V30 39 H 0.155079 0.689690 4.096487 0
M  V30 40 H -1.800893 -0.453512 3.077782 0
M  V30 41 H -0.256598 -1.389036 2.810294 0
M  V30 42 H -3.161951 0.160856 0.227903 0
M  V30 43 H -6.505831 -0.043754 -1.957878 0
M  V30 44 H -5.135935 0.959398 -1.462592 0
M  V30 45 H -6.723637 -1.023051 0.244700 0
M  V30 46 H -5.308109 -0.040883 0.871359 0
M  V30 47 H -6.990853 1.262289 1.278756 0
M  V30 48 H -1.350725 -3.857554 -1.834823 0
M  V30 49 H 0.392178 -3.958623 -0.031312 0
M  V30 50 H 3.362958 -4.012642 0.233026 0
M  V30 END ATOM
M  V30 BEGIN BOND
M  V30 1 3 1 2
M  V30 2 1 2 3
M  V30 3 2 3 4
M  V30 4 1 4 5
M  V30 5 2 5 6
M  V30 6 1 6 7
M  V30 7 2 7 8
M  V30 8 1 8 9
M  V30 9 1 9 10
M  V30 10 1 10 11
M  V30 11 1 11 12
M  V30 12 1 12 13
M  V30 13 1 13 14
M  V30 14 1 14 15
M  V30 15 1 15 16
M  V30 16 2 16 17
M  V30 17 1 17 18
M  V30 18 1 18 19
M  V30 19 1 19 20
M  V30 20 1 20 21
M  V30 21 1 21 22
M  V30 22 2 18 23
M  V30 23 1 23 24
M  V30 24 1 23 25
M  V30 25 2 25 26
M  V30 26 1 26 27
M  V30 27 1 27 28
M  V30 28 2 28 29
M  V30 29 1 28 30
M  V30 30 1 8 3
M  V30 31 1 26 16
M  V30 32 1 30 6
M  V30 33 1 5 31
M  V30 34 1 10 32
M  V30 35 1 10 33
M  V30 36 1 11 34
M  V30 37 1 11 35
M  V30 38 1 12 36
M  V30 39 1 12 37
M  V30 40 1 13 38
M  V30 41 1 13 39
M  V30 42 1 14 40
M  V30 43 1 14 41
M  V30 44 1 17 42
M  V30 45 1 20 43
M  V30 46 1 20 44
M  V30 47 1 21 45
M  V30 48 1 21 46
M  V30 49 1 22 47
M  V30 50 1 25 48
M  V30 51 1 27 49
M  V30 52 1 30 50
M  V30 END BOND
M  V30 END CTAB
M  END
>  <Dataset>  (220) 
ChEMBL_Kinases

>  <Ligand_Instance>  (220) 
nan

>  <PDB_ID>  (220) 
nan

>  <Standardized_SMILES>  (220) 
N#Cc1ncc2nc1OCCCCCOc1cc(OCCO)c(Cl)cc1NC(=O)N2

>  <Name>  (220) 
nan

>  <Pocket>  (220) 
nan

>  <ATP_Site>  (220) 
nan

>  <Peripheral>  (220) 
nan

>  <Num_H_Atoms_ProtBoundConf>  (220) 
nan

>  <Num_Resolved_Atoms>  (220) 
nan

>  <Num_Not_Resolved_Atoms>  (220) 
nan

$$$$
CHEMBL413636
     RDKit          3D

  0  0  0  0  0  0  0  0  0  0999 V3000
M  V30 BEGIN CTAB
M  V30 COUNTS 55 57 0 0 0
M  V30 BEGIN ATOM
M  V30 1 C 4.325068 -2.978787 2.938464 0
M  V30 2 C 5.126030 -2.096985 1.969490 0
M  V30 3 C 5.282078 -2.965704 0.717936 0
M  V30 4 O 6.098417 -2.339832 -0.195393 0
M  V30 5 N 4.578836 -0.868941 1.724468 0
M  V30 6 C 3.820462 0.015853 1.625403 0
M  V30 7 N 2.597432 -0.562376 2.055362 0
M  V30 8 C 3.815163 1.411295 1.216657 0
M  V30 9 C 4.995048 1.964198 0.801504 0
M  V30 10 O 6.282214 1.459698 0.675376 0
M  V30 11 N 5.095890 3.251067 0.401076 0
M  V30 12 S 3.311734 3.784313 0.626240 0
M  V30 13 C 2.777669 2.245311 1.193326 0
M  V30 14 N 1.392432 2.000446 1.564303 0
M  V30 15 C 0.417640 1.517636 0.643898 0
M  V30 16 C -0.893395 1.369844 1.064345 0
M  V30 17 C -1.758098 0.899778 0.113590 0
M  V30 18 C -1.379141 0.583445 -1.192154 0
M  V30 19 O -2.334369 0.105476 -2.102764 0
M  V30 20 C -3.651571 -0.001488 -1.632409 0
M  V30 21 C -4.610538 0.996663 -1.721239 0
M  V30 22 C -5.869190 0.750332 -1.213345 0
M  V30 23 C -6.229305 -0.425804 -0.624421 0
M  V30 24 C -5.262905 -1.406426 -0.544999 0
M  V30 25 N -5.595413 -2.646491 0.060556 0
M  V30 26 C -6.939926 -2.862424 0.580419 0
M  V30 27 C -4.619176 -3.714457 0.172905 0
M  V30 28 C -3.988648 -1.221518 -1.033108 0
M  V30 29 C -0.062379 0.746891 -1.566668 0
M  V30 30 C 0.847939 1.221647 -0.631840 0
M  V30 31 H 3.345820 -3.262618 2.511583 0
M  V30 32 H 4.915065 -3.925290 3.027994 0
M  V30 33 H 4.270991 -2.524350 3.942636 0
M  V30 34 H 6.162744 -2.101055 2.418805 0
M  V30 35 H 5.706128 -3.958941 0.943590 0
M  V30 36 H 4.294630 -3.143598 0.230562 0
M  V30 37 H 6.576023 -3.017809 -0.733256 0
M  V30 38 H 1.788173 -0.273903 2.649034 0
M  V30 39 H 1.776901 -0.324045 2.632434 0
M  V30 40 H 6.639493 0.712407 1.281935 0
M  V30 41 H 1.145866 2.201641 2.563070 0
M  V30 42 H -1.226028 1.601536 2.057400 0
M  V30 43 H -2.799879 0.781113 0.439107 0
M  V30 44 H -4.248322 1.898380 -2.199879 0
M  V30 45 H -6.543861 1.596053 -1.334303 0
M  V30 46 H -7.248557 -0.539966 -0.246545 0
M  V30 47 H -7.108339 -2.191376 1.448768 0
M  V30 48 H -7.655611 -2.558395 -0.228665 0
M  V30 49 H -7.105302 -3.898795 0.888421 0
M  V30 50 H -3.904432 -3.518388 1.019255 0
M  V30 51 H -4.103563 -3.851631 -0.784993 0
M  V30 52 H -5.101596 -4.686811 0.407851 0
M  V30 53 H -3.251337 -2.009696 -0.956462 0
M  V30 54 H 0.180267 0.485914 -2.592727 0
M  V30 55 H 1.869811 1.336026 -0.965348 0
M  V30 END ATOM
M  V30 BEGIN BOND
M  V30 1 1 1 2
M  V30 2 1 2 3
M  V30 3 1 3 4
M  V30 4 1 2 5
M  V30 5 2 5 6
M  V30 6 1 6 7
M  V30 7 1 6 8
M  V30 8 1 8 9
M  V30 9 1 9 10
M  V30 10 2 9 11
M  V30 11 1 11 12
M  V30 12 1 12 13
M  V30 13 1 13 14
M  V30 14 1 14 15
M  V30 15 2 15 16
M  V30 16 1 16 17
M  V30 17 2 17 18
M  V30 18 1 18 19
M  V30 19 1 19 20
M  V30 20 2 20 21
M  V30 21 1 21 22
M  V30 22 2 22 23
M  V30 23 1 23 24
M  V30 24 1 24 25
M  V30 25 1 25 26
M  V30 26 1 25 27
M  V30 27 2 24 28
M  V30 28 1 18 29
M  V30 29 2 29 30
M  V30 30 2 13 8
M  V30 31 1 30 15
M  V30 32 1 28 20
M  V30 33 1 1 31
M  V30 34 1 1 32
M  V30 35 1 1 33
M  V30 36 1 2 34
M  V30 37 1 3 35
M  V30 38 1 3 36
M  V30 39 1 4 37
M  V30 40 1 7 38
M  V30 41 1 7 39
M  V30 42 1 10 40
M  V30 43 1 14 41
M  V30 44 1 16 42
M  V30 45 1 17 43
M  V30 46 1 21 44
M  V30 47 1 22 45
M  V30 48 1 23 46
M  V30 49 1 26 47
M  V30 50 1 26 48
M  V30 51 1 26 49
M  V30 52 1 27 50
M  V30 53 1 27 51
M  V30 54 1 27 52
M  V30 55 1 28 53
M  V30 56 1 29 54
M  V30 57 1 30 55
M  V30 END BOND
M  V30 END CTAB
M  END
>  <Dataset>  (221) 
ChEMBL_Kinases

>  <Ligand_Instance>  (221) 
nan

>  <PDB_ID>  (221) 
nan

>  <Standardized_SMILES>  (221) 
CC(CO)/N=C(\N)c1c(O)nsc1Nc1ccc(Oc2cccc(N(C)C)c2)cc1

>  <Name>  (221) 
nan

>  <Pocket>  (221) 
nan

>  <ATP_Site>  (221) 
nan

>  <Peripheral>  (221) 
nan

>  <Num_H_Atoms_ProtBoundConf>  (221) 
nan

>  <Num_Resolved_Atoms>  (221) 
nan

>  <Num_Not_Resolved_Atoms>  (221) 
nan

$$$$
CHEMBL413585
     RDKit          3D

  0  0  0  0  0  0  0  0  0  0999 V3000
M  V30 BEGIN CTAB
M  V30 COUNTS 56 56 0 0 0
M  V30 BEGIN ATOM
M  V30 1 C 0.346692 -5.499898 3.621770 0
M  V30 2 C 1.293651 -4.370401 3.143053 0
M  V30 3 C 0.968417 -4.088792 1.736531 0
M  V30 4 C 1.709386 -3.088537 0.952588 0
M  V30 5 C 1.690097 -1.642316 1.271549 0
M  V30 6 C 2.175729 -1.133717 2.555492 0
M  V30 7 C 2.204375 0.334382 2.790933 0
M  V30 8 C 3.050077 1.226540 2.011842 0
M  V30 9 C 2.931144 1.353000 0.549816 0
M  V30 10 C 1.611723 1.739614 0.026433 0
M  V30 11 O 1.671787 1.805867 -1.217690 0
M  V30 12 O 0.577651 1.961166 0.848632 0
M  V30 13 C -0.732704 2.314192 0.558977 0
M  V30 14 C -1.558626 1.304026 -0.099998 0
M  V30 15 C -3.004897 1.744431 -0.297832 0
M  V30 16 O -3.127405 2.897805 -1.038038 0
M  V30 17 C -0.992037 0.683572 -1.330258 0
M  V30 18 C -2.155240 -0.264348 -1.649645 0
M  V30 19 C -2.858821 -0.653899 -2.684064 0
M  V30 20 C -3.990183 -1.627392 -2.759095 0
M  V30 21 C -2.397426 0.020737 -3.923363 0
M  V30 22 C -2.352316 -0.740719 -0.255590 0
M  V30 23 O -3.006588 -1.773648 0.134565 0
M  V30 24 O -1.712322 0.097819 0.691177 0
M  V30 25 H 0.153454 -5.412832 4.701972 0
M  V30 26 H -0.601661 -5.409525 3.067986 0
M  V30 27 H 0.862785 -6.446686 3.365675 0
M  V30 28 H 2.347099 -4.757456 3.184348 0
M  V30 29 H 1.223247 -3.588626 3.890458 0
M  V30 30 H -0.123844 -3.772635 1.687206 0
M  V30 31 H 0.904911 -5.084848 1.156388 0
M  V30 32 H 2.794904 -3.453087 0.850760 0
M  V30 33 H 1.304447 -3.172198 -0.127806 0
M  V30 34 H 0.564486 -1.360035 1.189348 0
M  V30 35 H 2.172608 -1.102576 0.399322 0
M  V30 36 H 3.183214 -1.555283 2.779492 0
M  V30 37 H 1.476025 -1.572226 3.351079 0
M  V30 38 H 2.546165 0.443805 3.878758 0
M  V30 39 H 1.167009 0.771717 2.847774 0
M  V30 40 H 3.010039 2.259014 2.485126 0
M  V30 41 H 4.129656 0.924812 2.216396 0
M  V30 42 H 3.490228 0.605796 -0.014241 0
M  V30 43 H 3.565049 2.313081 0.313739 0
M  V30 44 H -0.690780 3.205385 -0.169613 0
M  V30 45 H -1.223418 2.770645 1.453345 0
M  V30 46 H -3.420235 1.931062 0.711957 0
M  V30 47 H -3.544736 0.871946 -0.701786 0
M  V30 48 H -2.495932 3.017972 -1.768982 0
M  V30 49 H -0.795937 1.327626 -2.175413 0
M  V30 50 H -0.186783 -0.032214 -1.046940 0
M  V30 51 H -3.859633 -2.385993 -1.953565 0
M  V30 52 H -3.873706 -2.188314 -3.719636 0
M  V30 53 H -4.975884 -1.130897 -2.673754 0
M  V30 54 H -2.452013 1.115330 -3.796933 0
M  V30 55 H -3.030377 -0.288900 -4.787499 0
M  V30 56 H -1.339046 -0.249209 -4.109903 0
M  V30 END ATOM
M  V30 BEGIN BOND
M  V30 1 1 1 2
M  V30 2 1 2 3
M  V30 3 1 3 4
M  V30 4 1 4 5
M  V30 5 1 5 6
M  V30 6 1 6 7
M  V30 7 1 7 8
M  V30 8 1 8 9
M  V30 9 1 9 10
M  V30 10 2 10 11
M  V30 11 1 10 12
M  V30 12 1 12 13
M  V30 13 1 13 14
M  V30 14 1 14 15
M  V30 15 1 15 16
M  V30 16 1 14 17
M  V30 17 1 17 18
M  V30 18 2 18 19 CFG=2
M  V30 19 1 19 20
M  V30 20 1 19 21
M  V30 21 1 18 22
M  V30 22 2 22 23
M  V30 23 1 22 24
M  V30 24 1 24 14
M  V30 25 1 1 25
M  V30 26 1 1 26
M  V30 27 1 1 27
M  V30 28 1 2 28
M  V30 29 1 2 29
M  V30 30 1 3 30
M  V30 31 1 3 31
M  V30 32 1 4 32
M  V30 33 1 4 33
M  V30 34 1 5 34
M  V30 35 1 5 35
M  V30 36 1 6 36
M  V30 37 1 6 37
M  V30 38 1 7 38
M  V30 39 1 7 39
M  V30 40 1 8 40
M  V30 41 1 8 41
M  V30 42 1 9 42
M  V30 43 1 9 43
M  V30 44 1 13 44
M  V30 45 1 13 45
M  V30 46 1 15 46
M  V30 47 1 15 47
M  V30 48 1 16 48
M  V30 49 1 17 49
M  V30 50 1 17 50
M  V30 51 1 20 51
M  V30 52 1 20 52
M  V30 53 1 20 53
M  V30 54 1 21 54
M  V30 55 1 21 55
M  V30 56 1 21 56
M  V30 END BOND
M  V30 END CTAB
M  END
>  <Dataset>  (222) 
ChEMBL_Kinases

>  <Ligand_Instance>  (222) 
nan

>  <PDB_ID>  (222) 
nan

>  <Standardized_SMILES>  (222) 
CCCCCCCCCC(=O)OCC1(CO)CC(=C(C)C)C(=O)O1

>  <Name>  (222) 
nan

>  <Pocket>  (222) 
nan

>  <ATP_Site>  (222) 
nan

>  <Peripheral>  (222) 
nan

>  <Num_H_Atoms_ProtBoundConf>  (222) 
nan

>  <Num_Resolved_Atoms>  (222) 
nan

>  <Num_Not_Resolved_Atoms>  (222) 
nan

$$$$
CHEMBL4790014
     RDKit          3D

  0  0  0  0  0  0  0  0  0  0999 V3000
M  V30 BEGIN CTAB
M  V30 COUNTS 36 38 0 0 0
M  V30 BEGIN ATOM
M  V30 1 C -0.843113 -6.398478 -0.157359 0
M  V30 2 N -1.072535 -5.187608 0.613924 0
M  V30 3 C -0.314228 -4.077464 0.554058 0
M  V30 4 C -0.798939 -3.109460 1.409764 0
M  V30 5 C -0.390330 -1.758241 1.744400 0
M  V30 6 C -0.015935 -0.792561 0.804851 0
M  V30 7 C 0.360471 0.466444 1.182181 0
M  V30 8 C 0.745294 1.447774 0.175199 0
M  V30 9 C 1.695166 2.390156 0.548708 0
M  V30 10 C 2.171529 3.386407 -0.276899 0
M  V30 11 C 1.684525 3.469840 -1.563831 0
M  V30 12 C 2.074109 4.454781 -2.566782 0
M  V30 13 O 1.664101 4.575897 -3.749967 0
M  V30 14 O 2.981308 5.471149 -2.432527 0
M  V30 15 C 0.738756 2.544315 -1.960403 0
M  V30 16 C 0.276382 1.555472 -1.117269 0
M  V30 17 C 0.382927 0.828450 2.519863 0
M  V30 18 N 0.022758 -0.095172 3.446943 0
M  V30 19 C -0.346462 -1.335673 3.051945 0
M  V30 20 N -0.699867 -2.205583 4.127007 0
M  V30 21 C -1.904630 -3.714236 1.991041 0
M  V30 22 N -2.048269 -4.955360 1.500078 0
M  V30 23 H -1.111038 -6.168897 -1.217116 0
M  V30 24 H 0.206997 -6.693062 -0.115644 0
M  V30 25 H -1.571769 -7.170081 0.159263 0
M  V30 26 H 0.572538 -3.885348 -0.054990 0
M  V30 27 H -0.034093 -1.075420 -0.234702 0
M  V30 28 H 2.137187 2.406582 1.538505 0
M  V30 29 H 2.900264 4.109523 0.009210 0
M  V30 30 H 2.759263 6.478179 -2.476102 0
M  V30 31 H 0.320082 2.555585 -2.950602 0
M  V30 32 H -0.469521 0.806280 -1.394476 0
M  V30 33 H 0.677213 1.822277 2.857841 0
M  V30 34 H -0.263482 -3.032940 4.626520 0
M  V30 35 H -1.653552 -1.889010 4.468157 0
M  V30 36 H -2.619445 -3.351390 2.734196 0
M  V30 END ATOM
M  V30 BEGIN BOND
M  V30 1 1 1 2
M  V30 2 1 2 3
M  V30 3 2 3 4
M  V30 4 1 4 5
M  V30 5 2 5 6
M  V30 6 1 6 7
M  V30 7 1 7 8
M  V30 8 2 8 9
M  V30 9 1 9 10
M  V30 10 2 10 11
M  V30 11 1 11 12
M  V30 12 2 12 13
M  V30 13 1 12 14
M  V30 14 1 11 15
M  V30 15 2 15 16
M  V30 16 2 7 17
M  V30 17 1 17 18
M  V30 18 2 18 19
M  V30 19 1 19 20
M  V30 20 1 4 21
M  V30 21 2 21 22
M  V30 22 1 22 2
M  V30 23 1 19 5
M  V30 24 1 16 8
M  V30 25 1 1 23
M  V30 26 1 1 24
M  V30 27 1 1 25
M  V30 28 1 3 26
M  V30 29 1 6 27
M  V30 30 1 9 28
M  V30 31 1 10 29
M  V30 32 1 14 30
M  V30 33 1 15 31
M  V30 34 1 16 32
M  V30 35 1 17 33
M  V30 36 1 20 34
M  V30 37 1 20 35
M  V30 38 1 21 36
M  V30 END BOND
M  V30 END CTAB
M  END
>  <Dataset>  (223) 
ChEMBL_Kinases

>  <Ligand_Instance>  (223) 
nan

>  <PDB_ID>  (223) 
nan

>  <Standardized_SMILES>  (223) 
Cn1cc(-c2cc(-c3ccc(C(=O)O)cc3)cnc2N)cn1

>  <Name>  (223) 
nan

>  <Pocket>  (223) 
nan

>  <ATP_Site>  (223) 
nan

>  <Peripheral>  (223) 
nan

>  <Num_H_Atoms_ProtBoundConf>  (223) 
nan

>  <Num_Resolved_Atoms>  (223) 
nan

>  <Num_Not_Resolved_Atoms>  (223) 
nan

$$$$
CHEMBL415656
     RDKit          3D

  0  0  0  0  0  0  0  0  0  0999 V3000
M  V30 BEGIN CTAB
M  V30 COUNTS 51 55 0 0 0
M  V30 BEGIN ATOM
M  V30 1 N 5.577700 -7.651735 -2.788033 0
M  V30 2 C 5.489065 -6.552874 -2.417991 0
M  V30 3 C 5.394202 -5.184052 -1.977594 0
M  V30 4 C 6.599604 -4.503348 -1.818344 0
M  V30 5 C 6.500596 -3.186258 -1.394211 0
M  V30 6 C 5.288122 -2.577163 -1.142408 0
M  V30 7 N 5.151675 -1.303361 -0.730271 0
M  V30 8 C 3.956822 -0.728817 -0.490309 0
M  V30 9 O 3.914278 0.466694 -0.107583 0
M  V30 10 C 2.767427 -1.406322 -0.649300 0
M  V30 11 C 1.439444 -0.850867 -0.409085 0
M  V30 12 C 1.100664 0.418232 0.011106 0
M  V30 13 C -0.272980 0.510715 0.106073 0
M  V30 14 C -1.092691 1.556208 0.478002 0
M  V30 15 C -2.461588 1.403851 0.495006 0
M  V30 16 C -3.509699 2.387214 0.864084 0
M  V30 17 N -3.820835 2.268855 2.218531 0
M  V30 18 C -2.885033 2.472818 3.221335 0
M  V30 19 C -2.696108 1.225369 4.078002 0
M  V30 20 C -4.032938 0.610537 4.436450 0
M  V30 21 C -4.913923 0.421788 3.235661 0
M  V30 22 C -5.098909 1.771429 2.574318 0
M  V30 23 C -2.925280 0.138994 0.114312 0
M  V30 24 C -2.112091 -0.916138 -0.260488 0
M  V30 25 C -0.746309 -0.728532 -0.265879 0
M  V30 26 N 0.290534 -1.528772 -0.570104 0
M  V30 27 C 2.917774 -2.712158 -1.072306 0
M  V30 28 C 4.135339 -3.314198 -1.322110 0
M  V30 29 C 4.155451 -4.628542 -1.741601 0
M  V30 30 H 7.554139 -4.960144 -2.009343 0
M  V30 31 H 7.412466 -2.608648 -1.253786 0
M  V30 32 H 6.030454 -0.737476 -0.592000 0
M  V30 33 H 1.752030 1.228734 0.238067 0
M  V30 34 H -0.743795 2.535719 0.768304 0
M  V30 35 H -4.374000 2.319689 0.173194 0
M  V30 36 H -3.051805 3.396521 0.662117 0
M  V30 37 H -3.198413 3.293495 3.903137 0
M  V30 38 H -1.903716 2.762937 2.822683 0
M  V30 39 H -2.218130 1.540459 5.026968 0
M  V30 40 H -2.013951 0.494998 3.594624 0
M  V30 41 H -4.519404 1.290462 5.159651 0
M  V30 42 H -3.804677 -0.357377 4.936391 0
M  V30 43 H -4.391194 -0.302528 2.573407 0
M  V30 44 H -5.874900 0.001132 3.592641 0
M  V30 45 H -5.682605 1.646267 1.632748 0
M  V30 46 H -5.705907 2.397218 3.237098 0
M  V30 47 H -4.000124 -0.075811 0.097162 0
M  V30 48 H -2.531209 -1.863872 -0.542317 0
M  V30 49 H 0.147926 -2.521598 -0.879383 0
M  V30 50 H 2.016271 -3.307755 -1.218958 0
M  V30 51 H 3.237934 -5.178693 -1.873008 0
M  V30 END ATOM
M  V30 BEGIN BOND
M  V30 1 3 1 2
M  V30 2 1 2 3
M  V30 3 2 3 4
M  V30 4 1 4 5
M  V30 5 2 5 6
M  V30 6 1 6 7
M  V30 7 1 7 8
M  V30 8 2 8 9
M  V30 9 1 8 10
M  V30 10 1 10 11
M  V30 11 2 11 12
M  V30 12 1 12 13
M  V30 13 2 13 14
M  V30 14 1 14 15
M  V30 15 1 15 16
M  V30 16 1 16 17
M  V30 17 1 17 18
M  V30 18 1 18 19
M  V30 19 1 19 20
M  V30 20 1 20 21
M  V30 21 1 21 22
M  V30 22 2 15 23
M  V30 23 1 23 24
M  V30 24 2 24 25
M  V30 25 1 25 26
M  V30 26 2 10 27
M  V30 27 1 27 28
M  V30 28 2 28 29
M  V30 29 1 29 3
M  V30 30 1 28 6
M  V30 31 1 26 11
M  V30 32 1 25 13
M  V30 33 1 22 17
M  V30 34 1 4 30
M  V30 35 1 5 31
M  V30 36 1 7 32
M  V30 37 1 12 33
M  V30 38 1 14 34
M  V30 39 1 16 35
M  V30 40 1 16 36
M  V30 41 1 18 37
M  V30 42 1 18 38
M  V30 43 1 19 39
M  V30 44 1 19 40
M  V30 45 1 20 41
M  V30 46 1 20 42
M  V30 47 1 21 43
M  V30 48 1 21 44
M  V30 49 1 22 45
M  V30 50 1 22 46
M  V30 51 1 23 47
M  V30 52 1 24 48
M  V30 53 1 26 49
M  V30 54 1 27 50
M  V30 55 1 29 51
M  V30 END BOND
M  V30 END CTAB
M  END
>  <Dataset>  (224) 
ChEMBL_Kinases

>  <Ligand_Instance>  (224) 
nan

>  <PDB_ID>  (224) 
nan

>  <Standardized_SMILES>  (224) 
N#Cc1ccc2[nH]c(=O)c(-c3cc4cc(CN5CCCCC5)ccc4[nH]3)cc2c1

>  <Name>  (224) 
nan

>  <Pocket>  (224) 
nan

>  <ATP_Site>  (224) 
nan

>  <Peripheral>  (224) 
nan

>  <Num_H_Atoms_ProtBoundConf>  (224) 
nan

>  <Num_Resolved_Atoms>  (224) 
nan

>  <Num_Not_Resolved_Atoms>  (224) 
nan

$$$$
CHEMBL4787891
     RDKit          3D

  0  0  0  0  0  0  0  0  0  0999 V3000
M  V30 BEGIN CTAB
M  V30 COUNTS 48 52 0 0 0
M  V30 BEGIN ATOM
M  V30 1 C -2.029111 -5.634703 -0.831036 0
M  V30 2 O -2.175633 -4.330518 -0.292730 0
M  V30 3 C -1.204342 -3.387615 -0.609386 0
M  V30 4 C -0.126577 -3.686005 -1.416776 0
M  V30 5 N 0.833606 -2.801049 -1.745811 0
M  V30 6 N 1.941594 -2.788726 -2.467644 0
M  V30 7 C 2.528730 -1.576726 -2.441331 0
M  V30 8 C 1.723052 -0.772924 -1.640810 0
M  V30 9 C 2.111428 0.617751 -1.423619 0
M  V30 10 C 2.539195 1.441203 -2.444288 0
M  V30 11 C 2.868544 2.727328 -2.069746 0
M  V30 12 N 2.787508 3.182700 -0.788538 0
M  V30 13 C 2.361301 2.350859 0.208132 0
M  V30 14 O 2.377616 3.067857 1.389140 0
M  V30 15 C 1.981797 2.448756 2.587956 0
M  V30 16 C 1.013989 3.257835 3.427876 0
M  V30 17 C 1.816932 2.891921 4.646799 0
M  V30 18 C 2.977957 2.590084 3.725748 0
M  V30 19 C 2.023752 1.062452 -0.122822 0
M  V30 20 C 0.677049 -1.565355 -1.224157 0
M  V30 21 N -0.348455 -1.166559 -0.416955 0
M  V30 22 C -1.306186 -2.088360 -0.102026 0
M  V30 23 C -2.465273 -1.810738 0.751609 0
M  V30 24 C -3.291787 -0.699044 0.695018 0
M  V30 25 N -4.226789 -0.813515 1.630033 0
M  V30 26 N -4.049215 -1.944764 2.291968 0
M  V30 27 C -4.883234 -2.407955 3.388915 0
M  V30 28 C -2.976174 -2.570238 1.769979 0
M  V30 29 H -2.948691 -6.242998 -0.657442 0
M  V30 30 H -1.824226 -5.633906 -1.917145 0
M  V30 31 H -1.209541 -6.168979 -0.310313 0
M  V30 32 H -0.007604 -4.688825 -1.834823 0
M  V30 33 H 3.435396 -1.443458 -2.990231 0
M  V30 34 H 2.599899 1.074343 -3.449859 0
M  V30 35 H 3.205129 3.358217 -2.903163 0
M  V30 36 H 1.667444 1.395836 2.542510 0
M  V30 37 H 1.156989 4.337310 3.189170 0
M  V30 38 H -0.001135 2.861456 3.373461 0
M  V30 39 H 2.026913 3.773463 5.320699 0
M  V30 40 H 1.400401 2.033614 5.193726 0
M  V30 41 H 3.657354 3.478397 3.655986 0
M  V30 42 H 3.503087 1.639432 3.986748 0
M  V30 43 H 1.704572 0.507805 0.745133 0
M  V30 44 H -3.201647 0.132761 0.007264 0
M  V30 45 H -4.264148 -2.844676 4.203771 0
M  V30 46 H -5.542764 -3.229843 2.994736 0
M  V30 47 H -5.508667 -1.583697 3.764750 0
M  V30 48 H -2.586012 -3.517419 2.104249 0
M  V30 END ATOM
M  V30 BEGIN BOND
M  V30 1 1 1 2
M  V30 2 1 2 3
M  V30 3 2 3 4
M  V30 4 1 4 5
M  V30 5 1 5 6
M  V30 6 2 6 7
M  V30 7 1 7 8
M  V30 8 1 8 9
M  V30 9 2 9 10
M  V30 10 1 10 11
M  V30 11 2 11 12
M  V30 12 1 12 13
M  V30 13 1 13 14
M  V30 14 1 14 15
M  V30 15 1 15 16
M  V30 16 1 16 17
M  V30 17 1 17 18
M  V30 18 2 13 19
M  V30 19 2 8 20
M  V30 20 1 20 21
M  V30 21 2 21 22
M  V30 22 1 22 23
M  V30 23 1 23 24
M  V30 24 2 24 25
M  V30 25 1 25 26
M  V30 26 1 26 27
M  V30 27 1 26 28
M  V30 28 1 22 3
M  V30 29 2 28 23
M  V30 30 1 20 5
M  V30 31 1 19 9
M  V30 32 1 18 15
M  V30 33 1 1 29
M  V30 34 1 1 30
M  V30 35 1 1 31
M  V30 36 1 4 32
M  V30 37 1 7 33
M  V30 38 1 10 34
M  V30 39 1 11 35
M  V30 40 1 15 36
M  V30 41 1 16 37
M  V30 42 1 16 38
M  V30 43 1 17 39
M  V30 44 1 17 40
M  V30 45 1 18 41
M  V30 46 1 18 42
M  V30 47 1 19 43
M  V30 48 1 24 44
M  V30 49 1 27 45
M  V30 50 1 27 46
M  V30 51 1 27 47
M  V30 52 1 28 48
M  V30 END BOND
M  V30 END CTAB
M  END
>  <Dataset>  (225) 
ChEMBL_Kinases

>  <Ligand_Instance>  (225) 
nan

>  <PDB_ID>  (225) 
nan

>  <Standardized_SMILES>  (225) 
COc1cn2ncc(-c3ccnc(OC4CCC4)c3)c2nc1-c1cnn(C)c1

>  <Name>  (225) 
nan

>  <Pocket>  (225) 
nan

>  <ATP_Site>  (225) 
nan

>  <Peripheral>  (225) 
nan

>  <Num_H_Atoms_ProtBoundConf>  (225) 
nan

>  <Num_Resolved_Atoms>  (225) 
nan

>  <Num_Not_Resolved_Atoms>  (225) 
nan

$$$$
CHEMBL4787924
     RDKit          3D

  0  0  0  0  0  0  0  0  0  0999 V3000
M  V30 BEGIN CTAB
M  V30 COUNTS 74 79 0 0 0
M  V30 BEGIN ATOM
M  V30 1 C -8.437827 -0.023498 -0.412540 0
M  V30 2 N -7.786857 -1.328837 -0.386422 0
M  V30 3 C -6.454176 -1.185332 -0.842719 0
M  V30 4 O -6.149321 0.000543 -1.156872 0
M  V30 5 C -5.509571 -2.268867 -0.951056 0
M  V30 6 S -6.037128 -3.955232 -0.479546 0
M  V30 7 C -4.325014 -4.667560 -0.880474 0
M  V30 8 C -4.209859 -6.107311 -0.662484 0
M  V30 9 C -5.246223 -6.895153 -0.217665 0
M  V30 10 C -5.089591 -8.258955 -0.033361 0
M  V30 11 N -3.884380 -8.801527 -0.303207 0
M  V30 12 C -2.850819 -8.061479 -0.738727 0
M  V30 13 N -1.625768 -8.746543 -0.990214 0
M  V30 14 C -1.601974 -10.169837 -0.780950 0
M  V30 15 O -2.621883 -10.825810 -0.389072 0
M  V30 16 C -0.345309 -10.959400 -1.019982 0
M  V30 17 C -0.621214 -12.333054 -1.628790 0
M  V30 18 C -0.225586 -12.205196 -0.193155 0
M  V30 19 C -3.003954 -6.712025 -0.921582 0
M  V30 20 N -3.736760 -3.716197 -1.236116 0
M  V30 21 C -4.224912 -2.476229 -1.311384 0
M  V30 22 O -3.631933 -1.398923 -1.694504 0
M  V30 23 C -3.037174 -0.318436 -2.078764 0
M  V30 24 C -1.820508 0.147071 -1.241454 0
M  V30 25 C -1.263317 1.413714 -1.830031 0
M  V30 26 C -0.147688 1.878403 -1.020285 0
M  V30 27 C 0.767791 2.282612 -0.352105 0
M  V30 28 C 1.854288 2.789280 0.456099 0
M  V30 29 C 2.391005 2.128550 1.538585 0
M  V30 30 C 3.426733 2.756350 2.232418 0
M  V30 31 C 3.911808 3.997482 1.862767 0
M  V30 32 C 3.369058 4.653791 0.775854 0
M  V30 33 C 2.340623 4.043419 0.077523 0
M  V30 34 C 4.047724 5.951887 0.586722 0
M  V30 35 O 3.750361 6.773088 -0.346067 0
M  V30 36 N 5.036338 6.073229 1.604055 0
M  V30 37 C 5.894427 7.219175 1.725221 0
M  V30 38 C 5.718227 7.927629 3.053923 0
M  V30 39 C 6.829558 8.906899 3.317378 0
M  V30 40 C 8.093618 8.112244 3.524502 0
M  V30 41 O 9.011263 8.047760 4.386304 0
M  V30 42 N 8.305338 7.179956 2.450729 0
M  V30 43 C 7.305782 6.813957 1.504676 0
M  V30 44 O 7.542577 6.151231 0.463307 0
M  V30 45 C 4.945389 4.883655 2.371569 0
M  V30 46 O 5.673767 4.637217 3.366567 0
M  V30 47 H -7.965122 0.655252 0.324277 0
M  V30 48 H -8.445752 0.410234 -1.425529 0
M  V30 49 H -9.488531 -0.167905 -0.096577 0
M  V30 50 H -8.110589 -2.290042 -0.108438 0
M  V30 51 H -6.218933 -6.492304 0.006652 0
M  V30 52 H -5.915087 -8.863091 0.317370 0
M  V30 53 H -0.727123 -8.349033 -1.310246 0
M  V30 54 H 0.547851 -10.418390 -1.353033 0
M  V30 55 H -1.640157 -12.611341 -1.913166 0
M  V30 56 H 0.183463 -12.778631 -2.259353 0
M  V30 57 H 0.744741 -12.554133 0.169636 0
M  V30 58 H -1.075500 -12.462157 0.501984 0
M  V30 59 H -2.187790 -6.098089 -1.270323 0
M  V30 60 H -2.617493 -0.442404 -3.139560 0
M  V30 61 H -3.671047 0.621310 -2.131342 0
M  V30 62 H -1.046587 -0.621344 -1.187995 0
M  V30 63 H -2.201851 0.401303 -0.236366 0
M  V30 64 H -2.032789 2.213996 -1.906543 0
M  V30 65 H -0.846640 1.257306 -2.868295 0
M  V30 66 H 1.977364 1.162210 1.786995 0
M  V30 67 H 3.845548 2.235459 3.082683 0
M  V30 68 H 1.931395 4.582447 -0.775468 0
M  V30 69 H 5.621192 7.927345 0.888488 0
M  V30 70 H 5.676491 7.228410 3.909295 0
M  V30 71 H 4.771145 8.520652 2.946399 0
M  V30 72 H 6.969913 9.649969 2.505142 0
M  V30 73 H 6.616255 9.424285 4.266360 0
M  V30 74 H 9.214911 6.689737 2.269748 0
M  V30 END ATOM
M  V30 BEGIN BOND
M  V30 1 1 1 2
M  V30 2 1 2 3
M  V30 3 2 3 4
M  V30 4 1 3 5
M  V30 5 1 5 6
M  V30 6 1 6 7
M  V30 7 1 7 8
M  V30 8 2 8 9
M  V30 9 1 9 10
M  V30 10 2 10 11
M  V30 11 1 11 12
M  V30 12 1 12 13
M  V30 13 1 13 14
M  V30 14 2 14 15
M  V30 15 1 14 16
M  V30 16 1 16 17
M  V30 17 1 17 18
M  V30 18 2 12 19
M  V30 19 2 7 20
M  V30 20 1 20 21
M  V30 21 1 21 22
M  V30 22 1 22 23
M  V30 23 1 23 24
M  V30 24 1 24 25
M  V30 25 1 25 26
M  V30 26 3 26 27
M  V30 27 1 27 28
M  V30 28 2 28 29
M  V30 29 1 29 30
M  V30 30 2 30 31
M  V30 31 1 31 32
M  V30 32 2 32 33
M  V30 33 1 32 34
M  V30 34 2 34 35
M  V30 35 1 34 36
M  V30 36 1 36 37
M  V30 37 1 37 38
M  V30 38 1 38 39
M  V30 39 1 39 40
M  V30 40 2 40 41
M  V30 41 1 40 42
M  V30 42 1 42 43
M  V30 43 2 43 44
M  V30 44 1 36 45
M  V30 45 2 45 46
M  V30 46 2 21 5
M  V30 47 1 33 28
M  V30 48 1 43 37
M  V30 49 1 19 8
M  V30 50 1 45 31
M  V30 51 1 18 16
M  V30 52 1 1 47
M  V30 53 1 1 48
M  V30 54 1 1 49
M  V30 55 1 2 50
M  V30 56 1 9 51
M  V30 57 1 10 52
M  V30 58 1 13 53
M  V30 59 1 16 54
M  V30 60 1 17 55
M  V30 61 1 17 56
M  V30 62 1 18 57
M  V30 63 1 18 58
M  V30 64 1 19 59
M  V30 65 1 23 60
M  V30 66 1 23 61
M  V30 67 1 24 62
M  V30 68 1 24 63
M  V30 69 1 25 64
M  V30 70 1 25 65
M  V30 71 1 29 66
M  V30 72 1 30 67
M  V30 73 1 33 68
M  V30 74 1 37 69
M  V30 75 1 38 70
M  V30 76 1 38 71
M  V30 77 1 39 72
M  V30 78 1 39 73
M  V30 79 1 42 74
M  V30 END BOND
M  V30 END CTAB
M  END
>  <Dataset>  (226) 
ChEMBL_Kinases

>  <Ligand_Instance>  (226) 
nan

>  <PDB_ID>  (226) 
nan

>  <Standardized_SMILES>  (226) 
CNC(=O)c1sc(-c2ccnc(NC(=O)C3CC3)c2)nc1OCCCC#Cc1ccc2c(c1)C(=O)N(C1CCC(=O)NC1=O)C2=O

>  <Name>  (226) 
nan

>  <Pocket>  (226) 
nan

>  <ATP_Site>  (226) 
nan

>  <Peripheral>  (226) 
nan

>  <Num_H_Atoms_ProtBoundConf>  (226) 
nan

>  <Num_Resolved_Atoms>  (226) 
nan

>  <Num_Not_Resolved_Atoms>  (226) 
nan

$$$$
CHEMBL4787926
     RDKit          3D

  0  0  0  0  0  0  0  0  0  0999 V3000
M  V30 BEGIN CTAB
M  V30 COUNTS 51 53 0 0 0
M  V30 BEGIN ATOM
M  V30 1 N -0.045170 0.944566 8.086892 0
M  V30 2 C 0.051009 0.519479 6.707058 0
M  V30 3 C 1.505718 0.614331 6.243829 0
M  V30 4 C 1.486684 0.146903 4.791740 0
M  V30 5 C 2.856885 0.182924 4.188700 0
M  V30 6 C 2.827260 -0.280878 2.764339 0
M  V30 7 C 1.983122 0.560222 1.885366 0
M  V30 8 O 1.381709 1.586125 2.245152 0
M  V30 9 N 1.827613 0.192184 0.515002 0
M  V30 10 C 1.047654 0.895218 -0.454966 0
M  V30 11 C -0.394574 0.972780 -0.079443 0
M  V30 12 C -1.109212 -0.335539 0.054278 0
M  V30 13 N -1.124854 -1.063207 -1.190191 0
M  V30 14 C -2.169710 -0.754214 -1.992444 0
M  V30 15 O -3.043840 0.097387 -1.688751 0
M  V30 16 C -2.371801 -1.347696 -3.221338 0
M  V30 17 C -3.446977 -1.025005 -4.039628 0
M  V30 18 C -3.572052 -1.660167 -5.240708 0
M  V30 19 F -4.635410 -1.310914 -6.000490 0
M  V30 20 C -2.678931 -2.613665 -5.687821 0
M  V30 21 C -1.606760 -2.931598 -4.865470 0
M  V30 22 C -1.473028 -2.297775 -3.655709 0
M  V30 23 N -0.455069 -2.596601 -2.869754 0
M  V30 24 C 0.548557 -3.451891 -3.004048 0
M  V30 25 S 0.986634 -4.486963 -4.149196 0
M  V30 26 N 1.323562 -3.380575 -1.906056 0
M  V30 27 N 0.782728 -2.472757 -1.100127 0
M  V30 28 C -0.309303 -1.986542 -1.684370 0
M  V30 29 H -0.153289 1.970325 8.146298 0
M  V30 30 H -0.785969 0.430648 8.628077 0
M  V30 31 H -0.572727 1.122354 6.039400 0
M  V30 32 H -0.247202 -0.559668 6.591110 0
M  V30 33 H 1.829782 1.670154 6.324160 0
M  V30 34 H 2.123495 -0.030146 6.872457 0
M  V30 35 H 0.750032 0.774919 4.284586 0
M  V30 36 H 1.070315 -0.882769 4.822358 0
M  V30 37 H 3.517481 -0.532811 4.753103 0
M  V30 38 H 3.328478 1.184157 4.303419 0
M  V30 39 H 3.864124 -0.399907 2.341043 0
M  V30 40 H 2.410083 -1.329971 2.766000 0
M  V30 41 H 2.364064 -0.682943 0.235294 0
M  V30 42 H 1.136853 0.369343 -1.442252 0
M  V30 43 H 1.457019 1.920903 -0.604661 0
M  V30 44 H -0.916981 1.582293 -0.865515 0
M  V30 45 H -0.471304 1.519874 0.898444 0
M  V30 46 H -2.153030 -0.127685 0.394732 0
M  V30 47 H -0.659394 -0.962671 0.855805 0
M  V30 48 H -4.171413 -0.272278 -3.710960 0
M  V30 49 H -2.886415 -3.050287 -6.665893 0
M  V30 50 H -0.970986 -3.678841 -5.296528 0
M  V30 51 H 2.212242 -3.877832 -1.597666 0
M  V30 END ATOM
M  V30 BEGIN BOND
M  V30 1 1 1 2
M  V30 2 1 2 3
M  V30 3 1 3 4
M  V30 4 1 4 5
M  V30 5 1 5 6
M  V30 6 1 6 7
M  V30 7 2 7 8
M  V30 8 1 7 9
M  V30 9 1 9 10
M  V30 10 1 10 11
M  V30 11 1 11 12
M  V30 12 1 12 13
M  V30 13 1 13 14
M  V30 14 2 14 15
M  V30 15 1 14 16
M  V30 16 2 16 17
M  V30 17 1 17 18
M  V30 18 1 18 19
M  V30 19 2 18 20
M  V30 20 1 20 21
M  V30 21 2 21 22
M  V30 22 1 22 23
M  V30 23 1 23 24
M  V30 24 2 24 25
M  V30 25 1 24 26
M  V30 26 1 26 27
M  V30 27 2 27 28
M  V30 28 1 28 13
M  V30 29 1 22 16
M  V30 30 1 28 23
M  V30 31 1 1 29
M  V30 32 1 1 30
M  V30 33 1 2 31
M  V30 34 1 2 32
M  V30 35 1 3 33
M  V30 36 1 3 34
M  V30 37 1 4 35
M  V30 38 1 4 36
M  V30 39 1 5 37
M  V30 40 1 5 38
M  V30 41 1 6 39
M  V30 42 1 6 40
M  V30 43 1 9 41
M  V30 44 1 10 42
M  V30 45 1 10 43
M  V30 46 1 11 44
M  V30 47 1 11 45
M  V30 48 1 12 46
M  V30 49 1 12 47
M  V30 50 1 17 48
M  V30 51 1 20 49
M  V30 52 1 21 50
M  V30 53 1 26 51
M  V30 END BOND
M  V30 END CTAB
M  END
>  <Dataset>  (227) 
ChEMBL_Kinases

>  <Ligand_Instance>  (227) 
nan

>  <PDB_ID>  (227) 
nan

>  <Standardized_SMILES>  (227) 
NCCCCCC(=O)NCCCn1c(=O)c2cc(F)ccc2n2c(=S)[nH]nc12

>  <Name>  (227) 
nan

>  <Pocket>  (227) 
nan

>  <ATP_Site>  (227) 
nan

>  <Peripheral>  (227) 
nan

>  <Num_H_Atoms_ProtBoundConf>  (227) 
nan

>  <Num_Resolved_Atoms>  (227) 
nan

>  <Num_Not_Resolved_Atoms>  (227) 
nan

$$$$
CHEMBL4164394
     RDKit          3D

  0  0  0  0  0  0  0  0  0  0999 V3000
M  V30 BEGIN CTAB
M  V30 COUNTS 56 60 0 0 0
M  V30 BEGIN ATOM
M  V30 1 O 3.108937 -4.791387 -2.106279 0
M  V30 2 C 3.013792 -3.657305 -1.628736 0
M  V30 3 N 4.015856 -2.652517 -1.716141 0
M  V30 4 C 3.487918 -1.521980 -1.034428 0
M  V30 5 C 4.108876 -0.300280 -0.879630 0
M  V30 6 C 3.420119 0.702498 -0.194823 0
M  V30 7 C 2.137787 0.500539 0.327672 0
M  V30 8 C 1.512927 1.636260 1.026681 0
M  V30 9 O 2.175258 2.705702 1.051490 0
M  V30 10 N 0.242236 1.528837 1.633278 0
M  V30 11 C -0.327663 2.698809 2.313342 0 CFG=2
M  V30 12 C -0.483933 2.471083 3.800798 0
M  V30 13 O 0.762457 2.204973 4.368272 0
M  V30 14 C -1.590370 3.047560 1.655956 0
M  V30 15 C -2.693147 3.335423 2.397170 0
M  V30 16 C -3.911123 3.670111 1.845817 0
M  V30 17 C -3.994823 3.709806 0.450267 0
M  V30 18 C -2.866236 3.415478 -0.323189 0
M  V30 19 C -1.647531 3.079871 0.278416 0
M  V30 20 C 1.588694 -0.745367 0.131293 0
M  V30 21 C 2.229646 -1.752810 -0.530634 0
M  V30 22 C 1.909495 -3.113007 -0.899433 0
M  V30 23 C 0.745401 -3.630985 -0.622524 0
M  V30 24 C -0.401410 -3.144207 0.116617 0
M  V30 25 C -1.611954 -2.954662 -0.550669 0
M  V30 26 C -2.842964 -2.573055 -0.043123 0
M  V30 27 C -2.839379 -2.358390 1.309807 0
M  V30 28 C -1.699153 -2.517443 2.060918 0
M  V30 29 F -1.668505 -2.308099 3.418783 0
M  V30 30 C -0.498291 -2.899407 1.503958 0
M  V30 31 C 0.370253 -4.960336 -1.149085 0
M  V30 32 N -0.146963 -6.060967 -0.532109 0
M  V30 33 C -0.375173 -7.042084 -1.421327 0
M  V30 34 C 0.018282 -6.534633 -2.666801 0
M  V30 35 N 0.457514 -5.283200 -2.450997 0
M  V30 36 H 4.921408 -2.764782 -2.185258 0
M  V30 37 H 5.091373 -0.110336 -1.267930 0
M  V30 38 H 3.951670 1.638699 -0.100792 0
M  V30 39 H -0.318475 0.653926 1.625098 0
M  V30 40 H 0.369806 3.564722 2.193633 0
M  V30 41 H -0.822368 3.452253 4.214471 0
M  V30 42 H -1.240978 1.715215 4.056725 0
M  V30 43 H 1.263373 3.064919 4.375870 0
M  V30 44 H -2.728922 3.331245 3.490356 0
M  V30 45 H -4.808636 3.904740 2.391762 0
M  V30 46 H -4.922717 3.966030 -0.062145 0
M  V30 47 H -2.941068 3.448290 -1.399940 0
M  V30 48 H -0.789967 2.856482 -0.347767 0
M  V30 49 H 0.618324 -0.757333 0.547983 0
M  V30 50 H -1.591008 -3.132549 -1.637795 0
M  V30 51 H -3.692259 -2.469631 -0.698513 0
M  V30 52 H -3.763130 -2.056716 1.789525 0
M  V30 53 H 0.446489 -3.048302 2.019354 0
M  V30 54 H -0.788083 -7.951231 -0.996054 0
M  V30 55 H -0.099894 -7.205030 -3.506930 0
M  V30 56 H 0.761737 -4.811301 -3.319416 0
M  V30 END ATOM
M  V30 BEGIN BOND
M  V30 1 2 1 2
M  V30 2 1 2 3
M  V30 3 1 3 4
M  V30 4 2 4 5
M  V30 5 1 5 6
M  V30 6 2 6 7
M  V30 7 1 7 8
M  V30 8 2 8 9
M  V30 9 1 8 10
M  V30 10 1 10 11
M  V30 11 1 11 12
M  V30 12 1 12 13
M  V30 13 1 11 14
M  V30 14 2 14 15
M  V30 15 1 15 16
M  V30 16 2 16 17
M  V30 17 1 17 18
M  V30 18 2 18 19
M  V30 19 1 7 20
M  V30 20 2 20 21
M  V30 21 1 21 22
M  V30 22 2 22 23
M  V30 23 1 23 24
M  V30 24 2 24 25
M  V30 25 1 25 26
M  V30 26 2 26 27
M  V30 27 1 27 28
M  V30 28 1 28 29
M  V30 29 2 28 30
M  V30 30 1 23 31
M  V30 31 2 31 32
M  V30 32 1 32 33
M  V30 33 2 33 34
M  V30 34 1 34 35
M  V30 35 1 22 2
M  V30 36 1 30 24
M  V30 37 1 35 31
M  V30 38 1 21 4
M  V30 39 1 19 14
M  V30 40 1 3 36
M  V30 41 1 5 37
M  V30 42 1 6 38
M  V30 43 1 10 39
M  V30 44 1 11 40 CFG=1
M  V30 45 1 12 41
M  V30 46 1 12 42
M  V30 47 1 13 43
M  V30 48 1 15 44
M  V30 49 1 16 45
M  V30 50 1 17 46
M  V30 51 1 18 47
M  V30 52 1 19 48
M  V30 53 1 20 49
M  V30 54 1 25 50
M  V30 55 1 26 51
M  V30 56 1 27 52
M  V30 57 1 30 53
M  V30 58 1 33 54
M  V30 59 1 34 55
M  V30 60 1 35 56
M  V30 END BOND
M  V30 END CTAB
M  END
>  <Dataset>  (228) 
ChEMBL_Kinases

>  <Ligand_Instance>  (228) 
nan

>  <PDB_ID>  (228) 
nan

>  <Standardized_SMILES>  (228) 
O=C1Nc2ccc(C(=O)N[C@H](CO)c3ccccc3)cc2/C1=C(\c1cccc(F)c1)c1ncc[nH]1

>  <Name>  (228) 
nan

>  <Pocket>  (228) 
nan

>  <ATP_Site>  (228) 
nan

>  <Peripheral>  (228) 
nan

>  <Num_H_Atoms_ProtBoundConf>  (228) 
nan

>  <Num_Resolved_Atoms>  (228) 
nan

>  <Num_Not_Resolved_Atoms>  (228) 
nan

$$$$
CHEMBL4788016
     RDKit          3D

  0  0  0  0  0  0  0  0  0  0999 V3000
M  V30 BEGIN CTAB
M  V30 COUNTS 52 55 0 0 0
M  V30 BEGIN ATOM
M  V30 1 C -0.573496 -2.016953 4.858238 0
M  V30 2 C 0.828359 -2.145349 4.402269 0
M  V30 3 O 1.345024 -3.227998 4.731780 0
M  V30 4 N 1.553390 -1.147234 3.654848 0
M  V30 5 C 2.925085 -1.361573 3.251314 0 CFG=2
M  V30 6 C 3.903964 -0.416656 3.859357 0
M  V30 7 C 3.661145 0.960762 3.350360 0
M  V30 8 C 3.077256 1.065297 1.989944 0
M  V30 9 C 3.302753 -0.107429 1.085152 0 CFG=2
M  V30 10 C 2.303305 0.016933 -0.035554 0
M  V30 11 O 1.591056 1.037403 0.107723 0
M  V30 12 N 2.197065 -0.910767 -1.105781 0
M  V30 13 C 1.167663 -0.554617 -2.029482 0
M  V30 14 C -0.108304 -1.049850 -1.797689 0
M  V30 15 C -1.161738 -0.760822 -2.632079 0
M  V30 16 C -2.468744 -1.339323 -2.289794 0
M  V30 17 C -2.967460 -2.567256 -2.710936 0
M  V30 18 N -4.176310 -2.777589 -2.216642 0
M  V30 19 N -4.498176 -1.726230 -1.478481 0
M  V30 20 C -3.472903 -0.830780 -1.504926 0
M  V30 21 C -3.818407 0.353556 -0.681356 0
M  V30 22 C -5.328070 0.273805 -0.666684 0
M  V30 23 C -5.579487 -1.217877 -0.654276 0
M  V30 24 C -0.920260 0.047332 -3.726019 0
M  V30 25 Cl -2.285975 0.395502 -4.768754 0
M  V30 26 C 0.357890 0.542945 -3.957531 0
M  V30 27 N 1.371451 0.232051 -3.106502 0
M  V30 28 C 3.150574 -1.415676 1.783490 0
M  V30 29 H -1.014410 -1.032405 4.617496 0
M  V30 30 H -0.607083 -2.247984 5.943050 0
M  V30 31 H -1.211774 -2.782168 4.330404 0
M  V30 32 H 0.972902 -0.301208 3.462611 0
M  V30 33 H 3.187250 -2.386456 3.646798 0
M  V30 34 H 3.783301 -0.422114 4.982033 0
M  V30 35 H 4.917929 -0.814266 3.668218 0
M  V30 36 H 4.573034 1.597274 3.478856 0
M  V30 37 H 2.912406 1.439412 4.048005 0
M  V30 38 H 3.531937 1.981902 1.514263 0
M  V30 39 H 1.979340 1.293868 1.978211 0
M  V30 40 H 4.348604 0.017971 0.678727 0
M  V30 41 H 2.887779 -1.711688 -1.053984 0
M  V30 42 H -0.267093 -1.680566 -0.932445 0
M  V30 43 H -2.390130 -3.232123 -3.366254 0
M  V30 44 H -3.431456 0.285546 0.356920 0
M  V30 45 H -3.492145 1.250298 -1.211663 0
M  V30 46 H -5.706517 0.661225 0.310317 0
M  V30 47 H -5.809247 0.772499 -1.524018 0
M  V30 48 H -5.513437 -1.622193 0.382547 0
M  V30 49 H -6.527237 -1.490381 -1.130249 0
M  V30 50 H 0.522311 1.169770 -4.814946 0
M  V30 51 H 2.285818 -1.967205 1.325887 0
M  V30 52 H 4.055611 -2.027156 1.580919 0
M  V30 END ATOM
M  V30 BEGIN BOND
M  V30 1 1 1 2
M  V30 2 2 2 3
M  V30 3 1 2 4
M  V30 4 1 4 5
M  V30 5 1 5 6
M  V30 6 1 6 7
M  V30 7 1 7 8
M  V30 8 1 8 9
M  V30 9 1 9 10
M  V30 10 2 10 11
M  V30 11 1 10 12
M  V30 12 1 12 13
M  V30 13 2 13 14
M  V30 14 1 14 15
M  V30 15 1 15 16
M  V30 16 1 16 17
M  V30 17 2 17 18
M  V30 18 1 18 19
M  V30 19 1 19 20
M  V30 20 1 20 21
M  V30 21 1 21 22
M  V30 22 1 22 23
M  V30 23 2 15 24
M  V30 24 1 24 25
M  V30 25 1 24 26
M  V30 26 2 26 27
M  V30 27 1 9 28
M  V30 28 1 28 5
M  V30 29 1 27 13
M  V30 30 2 20 16
M  V30 31 1 23 19
M  V30 32 1 1 29
M  V30 33 1 1 30
M  V30 34 1 1 31
M  V30 35 1 4 32
M  V30 36 1 5 33 CFG=1
M  V30 37 1 6 34
M  V30 38 1 6 35
M  V30 39 1 7 36
M  V30 40 1 7 37
M  V30 41 1 8 38
M  V30 42 1 8 39
M  V30 43 1 9 40 CFG=3
M  V30 44 1 12 41
M  V30 45 1 14 42
M  V30 46 1 17 43
M  V30 47 1 21 44
M  V30 48 1 21 45
M  V30 49 1 22 46
M  V30 50 1 22 47
M  V30 51 1 23 48
M  V30 52 1 23 49
M  V30 53 1 26 50
M  V30 54 1 28 51
M  V30 55 1 28 52
M  V30 END BOND
M  V30 END CTAB
M  END
>  <Dataset>  (229) 
ChEMBL_Kinases

>  <Ligand_Instance>  (229) 
nan

>  <PDB_ID>  (229) 
nan

>  <Standardized_SMILES>  (229) 
CC(=O)N[C@@H]1CCC[C@H](C(=O)Nc2cc(-c3cnn4c3CCC4)c(Cl)cn2)C1

>  <Name>  (229) 
nan

>  <Pocket>  (229) 
nan

>  <ATP_Site>  (229) 
nan

>  <Peripheral>  (229) 
nan

>  <Num_H_Atoms_ProtBoundConf>  (229) 
nan

>  <Num_Resolved_Atoms>  (229) 
nan

>  <Num_Not_Resolved_Atoms>  (229) 
nan

$$$$
CHEMBL4788024
     RDKit          3D

  0  0  0  0  0  0  0  0  0  0999 V3000
M  V30 BEGIN CTAB
M  V30 COUNTS 33 35 0 0 0
M  V30 BEGIN ATOM
M  V30 1 O 1.834265 -4.145062 1.885559 0
M  V30 2 C 0.964679 -4.418435 0.984723 0
M  V30 3 O -0.266341 -4.571333 1.596842 0
M  V30 4 C 1.549000 -4.480589 -0.391187 0
M  V30 5 S 3.284026 -4.047098 -0.292462 0
M  V30 6 C 3.611871 -2.362987 0.094341 0
M  V30 7 N 4.872392 -1.936551 0.246139 0
M  V30 8 C 5.005318 -0.622951 0.524169 0
M  V30 9 N 4.028768 0.254252 0.656047 0
M  V30 10 C 2.733503 -0.085924 0.519970 0
M  V30 11 C 1.599543 0.657689 0.607730 0
M  V30 12 C 0.403235 0.121087 0.428119 0
M  V30 13 C -0.942597 0.675223 0.463016 0
M  V30 14 C -1.088141 2.023198 0.736785 0
M  V30 15 C -2.372406 2.533222 0.763149 0
M  V30 16 C -3.449490 1.682714 0.517211 0
M  V30 17 C -4.817367 2.257262 0.551432 0
M  V30 18 F -5.749549 1.349447 0.976287 0
M  V30 19 F -4.794851 3.260170 1.521134 0
M  V30 20 F -5.218765 2.791185 -0.646643 0
M  V30 21 C -3.309490 0.319540 0.239925 0
M  V30 22 C -2.015457 -0.156517 0.221169 0
M  V30 23 S 0.770149 -1.596422 0.095518 0
M  V30 24 C 2.551684 -1.421576 0.235071 0
M  V30 25 H -0.580437 -3.853071 2.252607 0
M  V30 26 H 0.968969 -3.846424 -1.073817 0
M  V30 27 H 1.465806 -5.528559 -0.714568 0
M  V30 28 H 6.030930 -0.252659 0.652085 0
M  V30 29 H 1.622261 1.740969 0.830669 0
M  V30 30 H -0.218174 2.614308 0.914414 0
M  V30 31 H -2.505733 3.571977 0.973689 0
M  V30 32 H -4.169331 -0.303861 0.054367 0
M  V30 33 H -1.857291 -1.204296 0.011619 0
M  V30 END ATOM
M  V30 BEGIN BOND
M  V30 1 2 1 2
M  V30 2 1 2 3
M  V30 3 1 2 4
M  V30 4 1 4 5
M  V30 5 1 5 6
M  V30 6 2 6 7
M  V30 7 1 7 8
M  V30 8 2 8 9
M  V30 9 1 9 10
M  V30 10 1 10 11
M  V30 11 2 11 12
M  V30 12 1 12 13
M  V30 13 2 13 14
M  V30 14 1 14 15
M  V30 15 2 15 16
M  V30 16 1 16 17
M  V30 17 1 17 18
M  V30 18 1 17 19
M  V30 19 1 17 20
M  V30 20 1 16 21
M  V30 21 2 21 22
M  V30 22 1 12 23
M  V30 23 1 23 24
M  V30 24 1 24 6
M  V30 25 2 24 10
M  V30 26 1 22 13
M  V30 27 1 3 25
M  V30 28 1 4 26
M  V30 29 1 4 27
M  V30 30 1 8 28
M  V30 31 1 11 29
M  V30 32 1 14 30
M  V30 33 1 15 31
M  V30 34 1 21 32
M  V30 35 1 22 33
M  V30 END BOND
M  V30 END CTAB
M  END
>  <Dataset>  (230) 
ChEMBL_Kinases

>  <Ligand_Instance>  (230) 
nan

>  <PDB_ID>  (230) 
nan

>  <Standardized_SMILES>  (230) 
O=C(O)CSc1ncnc2cc(-c3ccc(C(F)(F)F)cc3)sc12

>  <Name>  (230) 
nan

>  <Pocket>  (230) 
nan

>  <ATP_Site>  (230) 
nan

>  <Peripheral>  (230) 
nan

>  <Num_H_Atoms_ProtBoundConf>  (230) 
nan

>  <Num_Resolved_Atoms>  (230) 
nan

>  <Num_Not_Resolved_Atoms>  (230) 
nan

$$$$
CHEMBL4788026
     RDKit          3D

  0  0  0  0  0  0  0  0  0  0999 V3000
M  V30 BEGIN CTAB
M  V30 COUNTS 37 40 0 0 0
M  V30 BEGIN ATOM
M  V30 1 O -1.479909 -1.683387 1.933752 0
M  V30 2 C -0.591275 -0.823662 1.690733 0
M  V30 3 C 0.630609 -1.331462 1.295931 0
M  V30 4 C 0.871113 -2.685411 1.173326 0
M  V30 5 C 2.090403 -3.204313 0.779225 0
M  V30 6 C 3.120469 -2.319414 0.493655 0
M  V30 7 C 4.414587 -2.862499 0.076230 0
M  V30 8 C 4.526037 -4.052330 -0.654861 0
M  V30 9 N 5.832723 -4.280300 -0.882538 0
M  V30 10 N 6.556725 -3.313429 -0.343986 0
M  V30 11 C 5.724934 -2.432268 0.248414 0
M  V30 12 C 2.917500 -0.942722 0.605347 0
M  V30 13 C 1.685615 -0.459776 1.002038 0
M  V30 14 N 1.428445 0.864341 1.128807 0
M  V30 15 C 0.223720 1.322074 1.516256 0
M  V30 16 N -0.815232 0.516385 1.807703 0
M  V30 17 C -2.129576 0.964728 2.228391 0
M  V30 18 C -3.053499 1.189833 1.077414 0
M  V30 19 C -3.018606 2.487223 0.570812 0
M  V30 20 C -3.825167 2.838130 -0.499335 0
M  V30 21 C -4.661032 1.887080 -1.055151 0
M  V30 22 C -4.707623 0.583394 -0.559608 0
M  V30 23 C -3.896651 0.257705 0.505642 0
M  V30 24 H 0.049243 -3.361481 1.401204 0
M  V30 25 H 2.169728 -4.281336 0.716722 0
M  V30 26 H 3.701092 -4.680500 -0.980253 0
M  V30 27 H 7.607648 -3.178426 -0.332559 0
M  V30 28 H 5.933313 -1.517822 0.789918 0
M  V30 29 H 3.731455 -0.241522 0.378845 0
M  V30 30 H 0.066061 2.385855 1.602292 0
M  V30 31 H -2.097447 1.851790 2.889733 0
M  V30 32 H -2.582868 0.142978 2.839489 0
M  V30 33 H -2.422056 3.333147 0.897996 0
M  V30 34 H -3.868971 3.825323 -0.966535 0
M  V30 35 H -5.305090 2.141138 -1.897570 0
M  V30 36 H -5.357823 -0.165576 -0.986583 0
M  V30 37 H -3.870949 -0.729909 0.952076 0
M  V30 END ATOM
M  V30 BEGIN BOND
M  V30 1 2 1 2
M  V30 2 1 2 3
M  V30 3 2 3 4
M  V30 4 1 4 5
M  V30 5 2 5 6
M  V30 6 1 6 7
M  V30 7 1 7 8
M  V30 8 2 8 9
M  V30 9 1 9 10
M  V30 10 1 10 11
M  V30 11 1 6 12
M  V30 12 2 12 13
M  V30 13 1 13 14
M  V30 14 2 14 15
M  V30 15 1 15 16
M  V30 16 1 16 17
M  V30 17 1 17 18
M  V30 18 2 18 19
M  V30 19 1 19 20
M  V30 20 2 20 21
M  V30 21 1 21 22
M  V30 22 2 22 23
M  V30 23 1 16 2
M  V30 24 1 23 18
M  V30 25 1 13 3
M  V30 26 2 11 7
M  V30 27 1 4 24
M  V30 28 1 5 25
M  V30 29 1 8 26
M  V30 30 1 10 27
M  V30 31 1 11 28
M  V30 32 1 12 29
M  V30 33 1 15 30
M  V30 34 1 17 31
M  V30 35 1 17 32
M  V30 36 1 19 33
M  V30 37 1 20 34
M  V30 38 1 21 35
M  V30 39 1 22 36
M  V30 40 1 23 37
M  V30 END BOND
M  V30 END CTAB
M  END
>  <Dataset>  (231) 
ChEMBL_Kinases

>  <Ligand_Instance>  (231) 
nan

>  <PDB_ID>  (231) 
nan

>  <Standardized_SMILES>  (231) 
O=c1c2ccc(-c3cn[nH]c3)cc2ncn1Cc1ccccc1

>  <Name>  (231) 
nan

>  <Pocket>  (231) 
nan

>  <ATP_Site>  (231) 
nan

>  <Peripheral>  (231) 
nan

>  <Num_H_Atoms_ProtBoundConf>  (231) 
nan

>  <Num_Resolved_Atoms>  (231) 
nan

>  <Num_Not_Resolved_Atoms>  (231) 
nan

$$$$
CHEMBL4788035
     RDKit          3D

  0  0  0  0  0  0  0  0  0  0999 V3000
M  V30 BEGIN CTAB
M  V30 COUNTS 49 53 0 0 0
M  V30 BEGIN ATOM
M  V30 1 O 3.016257 0.610027 1.611882 0
M  V30 2 C 3.313308 0.577796 0.413308 0
M  V30 3 N 4.616231 1.031752 0.096527 0
M  V30 4 C 5.379455 1.458361 1.244499 0
M  V30 5 C 6.113002 0.431338 1.816696 0
M  V30 6 C 6.881583 0.737005 2.926916 0
M  V30 7 C 6.897955 2.005756 3.417093 0
M  V30 8 C 6.163801 3.050257 2.850566 0
M  V30 9 C 5.392527 2.753848 1.740273 0
M  V30 10 N 2.382151 0.113528 -0.520802 0
M  V30 11 C 1.060412 -0.362250 -0.326226 0
M  V30 12 C 0.324497 -0.771495 -1.415808 0
M  V30 13 C -0.964244 -1.243774 -1.295718 0
M  V30 14 C -1.594257 -1.333759 -0.067771 0
M  V30 15 C -0.868476 -0.926832 1.034357 0
M  V30 16 C 0.397373 -0.467902 0.875226 0
M  V30 17 O -1.301465 -0.931394 2.353679 0
M  V30 18 C -2.611557 -0.975672 2.863951 0
M  V30 19 N -2.679147 -0.540474 4.155926 0
M  V30 20 C -3.842405 -0.504387 4.827146 0
M  V30 21 C -4.996287 -0.921605 4.182371 0
M  V30 22 C -4.994367 -1.372434 2.877172 0
M  V30 23 C -3.767053 -1.390132 2.227942 0
M  V30 24 C -3.843455 -1.878467 0.852407 0
M  V30 25 O -4.937491 -2.436096 0.549812 0
M  V30 26 N -2.912806 -1.852803 -0.242470 0
M  V30 27 C -3.300010 -2.342337 -1.499194 0
M  V30 28 C -3.897368 -1.652276 -2.563579 0
M  V30 29 C -4.202410 -2.327079 -3.728578 0
M  V30 30 N -3.940205 -3.639419 -3.872117 0
M  V30 31 C -3.365399 -4.350719 -2.876530 0
M  V30 32 C -3.037753 -3.712856 -1.677802 0
M  V30 33 H 4.924274 1.025981 -0.916957 0
M  V30 34 H 6.122988 -0.581044 1.455474 0
M  V30 35 H 7.465328 -0.066298 3.387427 0
M  V30 36 H 7.499921 2.256778 4.290932 0
M  V30 37 H 6.168952 4.071949 3.234870 0
M  V30 38 H 4.780415 3.484045 1.215933 0
M  V30 39 H 2.760021 0.138548 -1.497564 0
M  V30 40 H 0.783440 -0.718726 -2.416383 0
M  V30 41 H -1.458046 -1.540751 -2.212487 0
M  V30 42 H 0.889662 -0.173835 1.772637 0
M  V30 43 H -3.897440 -0.157588 5.857266 0
M  V30 44 H -5.972662 -0.910210 4.691081 0
M  V30 45 H -5.877097 -1.700972 2.356828 0
M  V30 46 H -4.066422 -0.605174 -2.349437 0
M  V30 47 H -4.669838 -1.725070 -4.523904 0
M  V30 48 H -3.158349 -5.407270 -3.002130 0
M  V30 49 H -2.584639 -4.333323 -0.929142 0
M  V30 END ATOM
M  V30 BEGIN BOND
M  V30 1 2 1 2
M  V30 2 1 2 3
M  V30 3 1 3 4
M  V30 4 2 4 5
M  V30 5 1 5 6
M  V30 6 2 6 7
M  V30 7 1 7 8
M  V30 8 2 8 9
M  V30 9 1 2 10
M  V30 10 1 10 11
M  V30 11 2 11 12
M  V30 12 1 12 13
M  V30 13 2 13 14
M  V30 14 1 14 15
M  V30 15 2 15 16
M  V30 16 1 15 17
M  V30 17 1 17 18
M  V30 18 2 18 19
M  V30 19 1 19 20
M  V30 20 2 20 21
M  V30 21 1 21 22
M  V30 22 2 22 23
M  V30 23 1 23 24
M  V30 24 2 24 25
M  V30 25 1 24 26
M  V30 26 1 26 27
M  V30 27 2 27 28
M  V30 28 1 28 29
M  V30 29 2 29 30
M  V30 30 1 30 31
M  V30 31 2 31 32
M  V30 32 1 9 4
M  V30 33 1 16 11
M  V30 34 1 23 18
M  V30 35 1 32 27
M  V30 36 1 26 14
M  V30 37 1 3 33
M  V30 38 1 5 34
M  V30 39 1 6 35
M  V30 40 1 7 36
M  V30 41 1 8 37
M  V30 42 1 9 38
M  V30 43 1 10 39
M  V30 44 1 12 40
M  V30 45 1 13 41
M  V30 46 1 16 42
M  V30 47 1 20 43
M  V30 48 1 21 44
M  V30 49 1 22 45
M  V30 50 1 28 46
M  V30 51 1 29 47
M  V30 52 1 31 48
M  V30 53 1 32 49
M  V30 END BOND
M  V30 END CTAB
M  END
>  <Dataset>  (232) 
ChEMBL_Kinases

>  <Ligand_Instance>  (232) 
nan

>  <PDB_ID>  (232) 
nan

>  <Standardized_SMILES>  (232) 
O=C(Nc1ccccc1)Nc1ccc2c(c1)Oc1ncccc1C(=O)N2c1ccncc1

>  <Name>  (232) 
nan

>  <Pocket>  (232) 
nan

>  <ATP_Site>  (232) 
nan

>  <Peripheral>  (232) 
nan

>  <Num_H_Atoms_ProtBoundConf>  (232) 
nan

>  <Num_Resolved_Atoms>  (232) 
nan

>  <Num_Not_Resolved_Atoms>  (232) 
nan

$$$$
CHEMBL4788085
     RDKit          3D

  0  0  0  0  0  0  0  0  0  0999 V3000
M  V30 BEGIN CTAB
M  V30 COUNTS 71 75 0 0 0
M  V30 BEGIN ATOM
M  V30 1 C 6.448486 -0.378162 0.987407 0
M  V30 2 C 5.288271 -1.324748 1.309670 0 CFG=2
M  V30 3 C 5.344826 -2.529879 0.493488 0
M  V30 4 O 5.322988 -3.760166 0.807996 0
M  V30 5 N 5.447293 -2.426672 -0.917746 0
M  V30 6 C 5.517428 -3.396828 -1.964389 0
M  V30 7 C 4.479634 -3.984596 -2.699248 0
M  V30 8 C 5.034406 -4.878096 -3.619853 0
M  V30 9 C 4.270875 -5.711155 -4.600050 0
M  V30 10 C 2.851269 -6.004150 -4.399838 0
M  V30 11 C 3.234203 -4.925854 -5.375334 0
M  V30 12 N 6.365114 -4.817424 -3.430829 0
M  V30 13 N 6.636952 -3.948684 -2.460965 0
M  V30 14 C 4.034233 -0.546992 1.243070 0
M  V30 15 C 3.213184 -0.279155 0.195136 0
M  V30 16 C 2.067882 0.479373 0.273977 0
M  V30 17 C 1.665225 1.039117 1.471152 0
M  V30 18 C 0.438231 1.831423 1.501827 0
M  V30 19 C -0.001640 2.425412 2.625604 0
M  V30 20 C -1.222535 3.257165 2.810681 0
M  V30 21 N -2.052638 2.954586 1.660740 0
M  V30 22 C -3.381768 2.583712 1.908172 0
M  V30 23 O -3.480310 2.639562 3.181544 0
M  V30 24 C -4.506500 2.201572 1.095341 0
M  V30 25 C -5.602404 1.932181 1.783201 0
M  V30 26 C -6.829850 1.522324 1.024056 0
M  V30 27 N -7.300615 0.251392 1.380228 0
M  V30 28 C -8.433121 -0.296561 0.759959 0
M  V30 29 C -9.112071 -1.384646 1.571563 0
M  V30 30 O -8.154251 -2.274921 2.103345 0
M  V30 31 C -7.365872 -1.529477 2.976614 0
M  V30 32 C -6.493103 -0.622064 2.129134 0
M  V30 33 C -1.320972 3.105610 0.426168 0
M  V30 34 C -0.340208 1.970414 0.241960 0
M  V30 35 C 2.447440 0.810802 2.577543 0
M  V30 36 C 3.582375 0.042485 2.435482 0
M  V30 37 H 7.409424 -0.821653 1.268316 0
M  V30 38 H 6.480279 -0.160671 -0.101020 0
M  V30 39 H 6.287119 0.551805 1.560179 0
M  V30 40 H 5.455202 -1.611055 2.377137 0
M  V30 41 H 5.509390 -1.548730 -1.477838 0
M  V30 42 H 3.437214 -3.747843 -2.538456 0
M  V30 43 H 4.873484 -6.375704 -5.275540 0
M  V30 44 H 2.437475 -6.906354 -4.883482 0
M  V30 45 H 2.323644 -5.749290 -3.465918 0
M  V30 46 H 2.927548 -3.915253 -5.036359 0
M  V30 47 H 3.111028 -5.093240 -6.465066 0
M  V30 48 H 7.045131 -5.384442 -3.985453 0
M  V30 49 H 3.481869 -0.695567 -0.760383 0
M  V30 50 H 1.489030 0.622160 -0.641108 0
M  V30 51 H 0.546005 2.333325 3.545159 0
M  V30 52 H -0.979121 4.340313 2.721233 0
M  V30 53 H -1.710811 3.017480 3.769301 0
M  V30 54 H -4.413175 2.154321 0.020333 0
M  V30 55 H -5.702058 1.979787 2.856023 0
M  V30 56 H -7.648659 2.280167 1.159756 0
M  V30 57 H -6.632532 1.542929 -0.087059 0
M  V30 58 H -8.194911 -0.789998 -0.230475 0
M  V30 59 H -9.212084 0.464672 0.529222 0
M  V30 60 H -9.620086 -0.917466 2.423644 0
M  V30 61 H -9.741758 -1.974104 0.904204 0
M  V30 62 H -6.737024 -2.151398 3.616220 0
M  V30 63 H -8.084966 -0.892263 3.572844 0
M  V30 64 H -5.921133 -1.291998 1.437447 0
M  V30 65 H -5.737507 -0.091625 2.728198 0
M  V30 66 H -2.002846 3.142569 -0.453650 0
M  V30 67 H -0.810597 4.089450 0.446382 0
M  V30 68 H -0.826984 1.037069 -0.062151 0
M  V30 69 H 0.342223 2.302060 -0.592918 0
M  V30 70 H 2.193938 1.214439 3.540528 0
M  V30 71 H 4.171069 -0.110225 3.343544 0
M  V30 END ATOM
M  V30 BEGIN BOND
M  V30 1 1 1 2
M  V30 2 1 2 3
M  V30 3 2 3 4
M  V30 4 1 3 5
M  V30 5 1 5 6
M  V30 6 1 6 7
M  V30 7 2 7 8
M  V30 8 1 8 9
M  V30 9 1 9 10
M  V30 10 1 10 11
M  V30 11 1 8 12
M  V30 12 1 12 13
M  V30 13 1 2 14
M  V30 14 2 14 15
M  V30 15 1 15 16
M  V30 16 2 16 17
M  V30 17 1 17 18
M  V30 18 2 18 19
M  V30 19 1 19 20
M  V30 20 1 20 21
M  V30 21 1 21 22
M  V30 22 2 22 23
M  V30 23 1 22 24
M  V30 24 2 24 25
M  V30 25 1 25 26
M  V30 26 1 26 27
M  V30 27 1 27 28
M  V30 28 1 28 29
M  V30 29 1 29 30
M  V30 30 1 30 31
M  V30 31 1 31 32
M  V30 32 1 21 33
M  V30 33 1 33 34
M  V30 34 1 17 35
M  V30 35 2 35 36
M  V30 36 2 13 6
M  V30 37 1 36 14
M  V30 38 1 11 9
M  V30 39 1 34 18
M  V30 40 1 32 27
M  V30 41 1 1 37
M  V30 42 1 1 38
M  V30 43 1 1 39
M  V30 44 1 2 40 CFG=1
M  V30 45 1 5 41
M  V30 46 1 7 42
M  V30 47 1 9 43
M  V30 48 1 10 44
M  V30 49 1 10 45
M  V30 50 1 11 46
M  V30 51 1 11 47
M  V30 52 1 12 48
M  V30 53 1 15 49
M  V30 54 1 16 50
M  V30 55 1 19 51
M  V30 56 1 20 52
M  V30 57 1 20 53
M  V30 58 1 24 54
M  V30 59 1 25 55
M  V30 60 1 26 56
M  V30 61 1 26 57
M  V30 62 1 28 58
M  V30 63 1 28 59
M  V30 64 1 29 60
M  V30 65 1 29 61
M  V30 66 1 31 62
M  V30 67 1 31 63
M  V30 68 1 32 64
M  V30 69 1 32 65
M  V30 70 1 33 66
M  V30 71 1 33 67
M  V30 72 1 34 68
M  V30 73 1 34 69
M  V30 74 1 35 70
M  V30 75 1 36 71
M  V30 END BOND
M  V30 END CTAB
M  END
>  <Dataset>  (233) 
ChEMBL_Kinases

>  <Ligand_Instance>  (233) 
nan

>  <PDB_ID>  (233) 
nan

>  <Standardized_SMILES>  (233) 
C[C@H](C(=O)Nc1cc(C2CC2)[nH]n1)c1ccc(C2=CCN(C(=O)/C=C/CN3CCOCC3)CC2)cc1

>  <Name>  (233) 
nan

>  <Pocket>  (233) 
nan

>  <ATP_Site>  (233) 
nan

>  <Peripheral>  (233) 
nan

>  <Num_H_Atoms_ProtBoundConf>  (233) 
nan

>  <Num_Resolved_Atoms>  (233) 
nan

>  <Num_Not_Resolved_Atoms>  (233) 
nan

$$$$
CHEMBL4164360
     RDKit          3D

  0  0  0  0  0  0  0  0  0  0999 V3000
M  V30 BEGIN CTAB
M  V30 COUNTS 139 147 0 0 0
M  V30 BEGIN ATOM
M  V30 1 C 6.372912 -2.244357 -1.131267 0
M  V30 2 N 6.882035 -0.911851 -0.826480 0
M  V30 3 C 7.368502 -0.648571 0.503982 0
M  V30 4 O 7.573627 -1.558428 1.343568 0
M  V30 5 C 7.592251 0.802443 0.752136 0
M  V30 6 C 6.490757 1.618279 0.084967 0
M  V30 7 C 6.805995 1.549458 -1.420784 0
M  V30 8 N 5.755444 2.251829 -2.132736 0
M  V30 9 C 5.962897 3.452694 -2.873103 0
M  V30 10 O 7.052681 4.085275 -3.027501 0
M  V30 11 C 4.658453 3.810518 -3.422683 0
M  V30 12 C 4.286095 4.874266 -4.205582 0
M  V30 13 C 2.982091 4.996384 -4.593406 0
M  V30 14 C 2.073271 4.043894 -4.186873 0
M  V30 15 C 2.382988 2.945347 -3.396756 0
M  V30 16 N 1.435907 1.966061 -3.005941 0
M  V30 17 C 0.078326 2.177556 -3.450076 0
M  V30 18 C -0.833248 1.019043 -3.073234 0
M  V30 19 O -0.384468 -0.166718 -3.659498 0
M  V30 20 C -1.249559 -1.183457 -3.305083 0
M  V30 21 C -0.909778 -2.498373 -3.909443 0
M  V30 22 O 0.371865 -2.967266 -3.544323 0
M  V30 23 C 0.641886 -4.166180 -4.168554 0
M  V30 24 C 1.972551 -4.737141 -3.822659 0
M  V30 25 O 2.151920 -5.014973 -2.469073 0
M  V30 26 C 3.424744 -5.570606 -2.352971 0
M  V30 27 C 3.783616 -5.974740 -0.960744 0
M  V30 28 O 3.765258 -4.888635 -0.098522 0
M  V30 29 C 4.094642 -5.288965 1.208096 0
M  V30 30 C 4.111692 -4.107968 2.111323 0
M  V30 31 C 2.826506 -3.376661 2.200812 0
M  V30 32 O 1.915360 -3.774146 1.434913 0
M  V30 33 N 2.806974 -2.317746 3.149651 0
M  V30 34 C 3.959843 -1.965860 3.995176 0
M  V30 35 C 1.560932 -1.586285 3.235711 0 CFG=1
M  V30 36 C 1.341537 -0.819539 1.970335 0
M  V30 37 C -0.049634 -0.274698 1.819697 0
M  V30 38 C -1.098144 -1.319103 1.992711 0 CFG=1
M  V30 39 C -1.071164 -2.272200 0.829125 0
M  V30 40 C -0.931334 -1.950267 3.329395 0 CFG=1
M  V30 41 C -1.977108 -3.035063 3.524494 0
M  V30 42 C -3.373584 -2.496436 3.349305 0
M  V30 43 C -3.509145 -1.716562 2.030865 0 CFG=2
M  V30 44 C -2.469293 -0.648819 2.072302 0 CFG=2
M  V30 45 C -2.651318 0.469687 1.098773 0
M  V30 46 C -4.000401 1.109524 1.477366 0
M  V30 47 C -5.038692 0.103539 1.127623 0 CFG=2
M  V30 48 C -4.860309 -0.457002 -0.264299 0
M  V30 49 C -6.425477 0.385109 1.540962 0 CFG=1
M  V30 50 C -7.156312 1.492872 1.026901 0
M  V30 51 C -7.353783 1.818990 -0.308432 0
M  V30 52 C -8.061879 2.880619 -0.822522 0
M  V30 53 C -8.648069 3.726335 0.072743 0
M  V30 54 C -9.368318 4.801159 -0.370898 0
M  V30 55 C -9.953860 5.641715 0.573649 0
M  V30 56 N -9.828017 5.422752 1.887203 0
M  V30 57 C -9.115098 4.358127 2.351132 0
M  V30 58 C -8.515832 3.496753 1.424926 0
M  V30 59 C -7.791725 2.412942 1.874997 0
M  V30 60 C -7.069335 -0.983806 1.296876 0
M  V30 61 C -5.967672 -1.991410 1.564600 0
M  V30 62 C -4.848374 -1.110924 2.053743 0 CFG=1
M  V30 63 C 0.431979 -2.422349 3.694236 0
M  V30 64 C 3.729076 2.879528 -3.034467 0
M  V30 65 C 4.385716 1.855728 -2.202731 0
M  V30 66 O 3.947249 0.819359 -1.626791 0
M  V30 67 C 6.906848 0.128789 -1.813211 0
M  V30 68 O 7.018082 -0.254425 -3.000179 0
M  V30 69 H 5.256754 -2.146457 -1.185921 0
M  V30 70 H 6.829562 -2.579680 -2.067505 0
M  V30 71 H 6.676082 -2.943664 -0.336417 0
M  V30 72 H 7.560977 0.995946 1.825238 0
M  V30 73 H 8.572337 1.064143 0.330258 0
M  V30 74 H 5.522626 1.169394 0.325119 0
M  V30 75 H 6.620188 2.664933 0.402402 0
M  V30 76 H 7.764867 2.059288 -1.552927 0
M  V30 77 H 5.017421 5.606614 -4.512438 0
M  V30 78 H 2.642204 5.827450 -5.214691 0
M  V30 79 H 1.031801 4.141326 -4.496228 0
M  V30 80 H 1.784735 1.179141 -2.437227 0
M  V30 81 H -0.311846 3.111860 -3.000813 0
M  V30 82 H 0.049945 2.322878 -4.564663 0
M  V30 83 H -0.853506 0.949666 -1.962679 0
M  V30 84 H -1.846042 1.250609 -3.415044 0
M  V30 85 H -1.309167 -1.322108 -2.204439 0
M  V30 86 H -2.279113 -0.899018 -3.635428 0
M  V30 87 H -1.666811 -3.247062 -3.589487 0
M  V30 88 H -1.014442 -2.415796 -5.014240 0
M  V30 89 H -0.183733 -4.917922 -4.011933 0
M  V30 90 H 0.627223 -3.964134 -5.275687 0
M  V30 91 H 2.195501 -5.674416 -4.363928 0
M  V30 92 H 2.807417 -4.021750 -4.086010 0
M  V30 93 H 3.508740 -6.448278 -3.024117 0
M  V30 94 H 4.123042 -4.769213 -2.711236 0
M  V30 95 H 3.028818 -6.741743 -0.645846 0
M  V30 96 H 4.754632 -6.495279 -0.892323 0
M  V30 97 H 5.090182 -5.765797 1.118087 0
M  V30 98 H 3.400990 -6.058220 1.581896 0
M  V30 99 H 4.957743 -3.397556 1.871179 0
M  V30 100 H 4.387573 -4.478678 3.141235 0
M  V30 101 H 4.289033 -2.930395 4.457985 0
M  V30 102 H 3.624863 -1.339877 4.846912 0
M  V30 103 H 4.793672 -1.567204 3.417995 0
M  V30 104 H 1.726437 -0.808304 4.024712 0
M  V30 105 H 1.556156 -1.445061 1.079873 0
M  V30 106 H 2.011682 0.061103 1.894304 0
M  V30 107 H -0.126776 0.149357 0.790580 0
M  V30 108 H -0.250973 0.574490 2.512174 0
M  V30 109 H -0.110590 -2.308650 0.294158 0
M  V30 110 H -1.394559 -3.288713 1.039829 0
M  V30 111 H -1.797629 -1.854107 0.071149 0
M  V30 112 H -1.238284 -1.158988 4.079666 0
M  V30 113 H -1.791945 -3.935598 2.928857 0
M  V30 114 H -1.909958 -3.338030 4.591726 0
M  V30 115 H -3.713585 -1.913510 4.213033 0
M  V30 116 H -4.054064 -3.365319 3.248942 0
M  V30 117 H -3.343292 -2.477634 1.245409 0
M  V30 118 H -2.547554 -0.175974 3.095191 0
M  V30 119 H -1.890323 1.245406 1.378183 0
M  V30 120 H -2.607039 0.174943 0.046493 0
M  V30 121 H -3.941808 1.233792 2.575032 0
M  V30 122 H -4.133954 2.066918 0.933924 0
M  V30 123 H -5.775842 -0.916214 -0.686024 0
M  V30 124 H -4.397077 0.279926 -0.972962 0
M  V30 125 H -4.109415 -1.303883 -0.242872 0
M  V30 126 H -6.409283 0.444555 2.673631 0
M  V30 127 H -6.896074 1.161094 -1.053999 0
M  V30 128 H -8.144457 3.029778 -1.888264 0
M  V30 129 H -9.442808 4.939165 -1.456636 0
M  V30 130 H -10.509882 6.474095 0.183716 0
M  V30 131 H -9.016244 4.183456 3.434348 0
M  V30 132 H -7.688875 2.234740 2.956339 0
M  V30 133 H -7.849740 -1.160837 2.077699 0
M  V30 134 H -7.536065 -1.075280 0.318238 0
M  V30 135 H -6.281880 -2.765041 2.299968 0
M  V30 136 H -5.726119 -2.480980 0.610213 0
M  V30 137 H -5.090608 -0.797361 3.090598 0
M  V30 138 H 0.547657 -3.451104 3.294485 0
M  V30 139 H 0.446008 -2.546533 4.804211 0
M  V30 END ATOM
M  V30 BEGIN BOND
M  V30 1 1 1 2
M  V30 2 1 2 3
M  V30 3 2 3 4
M  V30 4 1 3 5
M  V30 5 1 5 6
M  V30 6 1 6 7
M  V30 7 1 7 8
M  V30 8 1 8 9
M  V30 9 2 9 10
M  V30 10 1 9 11
M  V30 11 2 11 12
M  V30 12 1 12 13
M  V30 13 2 13 14
M  V30 14 1 14 15
M  V30 15 1 15 16
M  V30 16 1 16 17
M  V30 17 1 17 18
M  V30 18 1 18 19
M  V30 19 1 19 20
M  V30 20 1 20 21
M  V30 21 1 21 22
M  V30 22 1 22 23
M  V30 23 1 23 24
M  V30 24 1 24 25
M  V30 25 1 25 26
M  V30 26 1 26 27
M  V30 27 1 27 28
M  V30 28 1 28 29
M  V30 29 1 29 30
M  V30 30 1 30 31
M  V30 31 2 31 32
M  V30 32 1 31 33
M  V30 33 1 33 34
M  V30 34 1 33 35
M  V30 35 1 35 36
M  V30 36 1 36 37
M  V30 37 1 37 38
M  V30 38 1 38 39 CFG=3
M  V30 39 1 38 40
M  V30 40 1 40 41
M  V30 41 1 41 42
M  V30 42 1 42 43
M  V30 43 1 43 44
M  V30 44 1 44 45
M  V30 45 1 45 46
M  V30 46 1 46 47
M  V30 47 1 47 48 CFG=3
M  V30 48 1 47 49
M  V30 49 1 49 50
M  V30 50 2 50 51
M  V30 51 1 51 52
M  V30 52 2 52 53
M  V30 53 1 53 54
M  V30 54 2 54 55
M  V30 55 1 55 56
M  V30 56 2 56 57
M  V30 57 1 57 58
M  V30 58 2 58 59
M  V30 59 1 49 60
M  V30 60 1 60 61
M  V30 61 1 61 62
M  V30 62 1 40 63
M  V30 63 2 15 64
M  V30 64 1 64 65
M  V30 65 2 65 66
M  V30 66 1 7 67
M  V30 67 2 67 68
M  V30 68 1 67 2
M  V30 69 1 65 8
M  V30 70 1 64 11
M  V30 71 1 63 35
M  V30 72 1 44 38
M  V30 73 1 62 47
M  V30 74 1 62 43
M  V30 75 1 59 50
M  V30 76 1 58 53
M  V30 77 1 1 69
M  V30 78 1 1 70
M  V30 79 1 1 71
M  V30 80 1 5 72
M  V30 81 1 5 73
M  V30 82 1 6 74
M  V30 83 1 6 75
M  V30 84 1 7 76
M  V30 85 1 12 77
M  V30 86 1 13 78
M  V30 87 1 14 79
M  V30 88 1 16 80
M  V30 89 1 17 81
M  V30 90 1 17 82
M  V30 91 1 18 83
M  V30 92 1 18 84
M  V30 93 1 20 85
M  V30 94 1 20 86
M  V30 95 1 21 87
M  V30 96 1 21 88
M  V30 97 1 23 89
M  V30 98 1 23 90
M  V30 99 1 24 91
M  V30 100 1 24 92
M  V30 101 1 26 93
M  V30 102 1 26 94
M  V30 103 1 27 95
M  V30 104 1 27 96
M  V30 105 1 29 97
M  V30 106 1 29 98
M  V30 107 1 30 99
M  V30 108 1 30 100
M  V30 109 1 34 101
M  V30 110 1 34 102
M  V30 111 1 34 103
M  V30 112 1 35 104 CFG=1
M  V30 113 1 36 105
M  V30 114 1 36 106
M  V30 115 1 37 107
M  V30 116 1 37 108
M  V30 117 1 39 109
M  V30 118 1 39 110
M  V30 119 1 39 111
M  V30 120 1 40 112 CFG=1
M  V30 121 1 41 113
M  V30 122 1 41 114
M  V30 123 1 42 115
M  V30 124 1 42 116
M  V30 125 1 43 117 CFG=3
M  V30 126 1 44 118 CFG=1
M  V30 127 1 45 119
M  V30 128 1 45 120
M  V30 129 1 46 121
M  V30 130 1 46 122
M  V30 131 1 48 123
M  V30 132 1 48 124
M  V30 133 1 48 125
M  V30 134 1 49 126 CFG=1
M  V30 135 1 51 127
M  V30 136 1 52 128
M  V30 137 1 54 129
M  V30 138 1 55 130
M  V30 139 1 57 131
M  V30 140 1 59 132
M  V30 141 1 60 133
M  V30 142 1 60 134
M  V30 143 1 61 135
M  V30 144 1 61 136
M  V30 145 1 62 137 CFG=1
M  V30 146 1 63 138
M  V30 147 1 63 139
M  V30 END BOND
M  V30 END CTAB
M  END
>  <Dataset>  (234) 
ChEMBL_Kinases

>  <Ligand_Instance>  (234) 
nan

>  <PDB_ID>  (234) 
nan

>  <Standardized_SMILES>  (234) 
CN1C(=O)CCC(N2C(=O)c3cccc(NCCOCCOCCOCCOCCC(=O)N(C)[C@H]4CC[C@@]5(C)[C@@H](CC[C@@H]6[C@@H]5CC[C@]5(C)[C@@H](c7ccc8ccncc8c7)CC[C@@H]65)C4)c3C2=O)C1=O

>  <Name>  (234) 
nan

>  <Pocket>  (234) 
nan

>  <ATP_Site>  (234) 
nan

>  <Peripheral>  (234) 
nan

>  <Num_H_Atoms_ProtBoundConf>  (234) 
nan

>  <Num_Resolved_Atoms>  (234) 
nan

>  <Num_Not_Resolved_Atoms>  (234) 
nan

$$$$
CHEMBL4164359
     RDKit          3D

  0  0  0  0  0  0  0  0  0  0999 V3000
M  V30 BEGIN CTAB
M  V30 COUNTS 34 37 0 0 0
M  V30 BEGIN ATOM
M  V30 1 C -0.629279 -4.025840 4.508769 0
M  V30 2 O -0.326422 -4.566831 3.235232 0
M  V30 3 C -0.136190 -3.734698 2.127659 0
M  V30 4 C 0.154822 -4.355000 0.930285 0
M  V30 5 C 0.358234 -3.605911 -0.217096 0
M  V30 6 C 0.265716 -2.232654 -0.145125 0
M  V30 7 C -0.028753 -1.598257 1.064708 0
M  V30 8 C -0.233254 -2.349698 2.217792 0
M  V30 9 N -0.068999 -0.256479 0.900619 0
M  V30 10 C 0.192189 0.015906 -0.391679 0
M  V30 11 C 0.298666 1.154559 -1.188220 0
M  V30 12 N 0.091284 2.409670 -0.548345 0
M  V30 13 C 0.737504 3.130813 0.559322 0
M  V30 14 C -0.673629 3.580307 0.908226 0
M  V30 15 C -0.781420 3.558070 -0.623202 0
M  V30 16 N 0.584388 1.073511 -2.502411 0
M  V30 17 C 0.789397 -0.101592 -3.152189 0
M  V30 18 C 0.687317 -1.239060 -2.376498 0
M  V30 19 C 0.398301 -1.175510 -1.042317 0
M  V30 20 H -1.506177 -3.355469 4.507657 0
M  V30 21 H 0.236406 -3.479252 4.959673 0
M  V30 22 H -0.848458 -4.865288 5.196390 0
M  V30 23 H 0.250193 -5.417083 0.763308 0
M  V30 24 H 0.592283 -4.054004 -1.193410 0
M  V30 25 H -0.465244 -1.899965 3.184089 0
M  V30 26 H -0.262306 0.459521 1.616193 0
M  V30 27 H 1.246325 2.503930 1.302317 0
M  V30 28 H 1.304526 4.034564 0.198439 0
M  V30 29 H -0.755282 4.578739 1.364709 0
M  V30 30 H -1.192971 2.744167 1.411193 0
M  V30 31 H -1.796671 3.378509 -1.010826 0
M  V30 32 H -0.351847 4.492331 -1.014372 0
M  V30 33 H 1.018294 -0.152013 -4.208837 0
M  V30 34 H 0.849455 -2.193476 -2.883812 0
M  V30 END ATOM
M  V30 BEGIN BOND
M  V30 1 1 1 2
M  V30 2 1 2 3
M  V30 3 2 3 4
M  V30 4 1 4 5
M  V30 5 2 5 6
M  V30 6 1 6 7
M  V30 7 2 7 8
M  V30 8 1 7 9
M  V30 9 1 9 10
M  V30 10 2 10 11
M  V30 11 1 11 12
M  V30 12 1 12 13
M  V30 13 1 13 14
M  V30 14 1 14 15
M  V30 15 1 11 16
M  V30 16 2 16 17
M  V30 17 1 17 18
M  V30 18 2 18 19
M  V30 19 1 8 3
M  V30 20 1 19 10
M  V30 21 1 19 6
M  V30 22 1 15 12
M  V30 23 1 1 20
M  V30 24 1 1 21
M  V30 25 1 1 22
M  V30 26 1 4 23
M  V30 27 1 5 24
M  V30 28 1 8 25
M  V30 29 1 9 26
M  V30 30 1 13 27
M  V30 31 1 13 28
M  V30 32 1 14 29
M  V30 33 1 14 30
M  V30 34 1 15 31
M  V30 35 1 15 32
M  V30 36 1 17 33
M  V30 37 1 18 34
M  V30 END BOND
M  V30 END CTAB
M  END
>  <Dataset>  (235) 
ChEMBL_Kinases

>  <Ligand_Instance>  (235) 
nan

>  <PDB_ID>  (235) 
nan

>  <Standardized_SMILES>  (235) 
COc1ccc2c(c1)[nH]c1c(N3CCC3)nccc12

>  <Name>  (235) 
nan

>  <Pocket>  (235) 
nan

>  <ATP_Site>  (235) 
nan

>  <Peripheral>  (235) 
nan

>  <Num_H_Atoms_ProtBoundConf>  (235) 
nan

>  <Num_Resolved_Atoms>  (235) 
nan

>  <Num_Not_Resolved_Atoms>  (235) 
nan

$$$$
CHEMBL4788999
     RDKit          3D

  0  0  0  0  0  0  0  0  0  0999 V3000
M  V30 BEGIN CTAB
M  V30 COUNTS 44 47 0 0 0
M  V30 BEGIN ATOM
M  V30 1 C 3.457159 -2.907328 0.846911 0
M  V30 2 C 4.202865 -3.518326 -0.049455 0
M  V30 3 C 4.630484 -2.421923 -0.958860 0
M  V30 4 N 4.107545 -1.152179 -0.562220 0
M  V30 5 C 4.831379 -0.296973 0.351194 0
M  V30 6 C 2.849880 -0.745002 -1.087813 0
M  V30 7 O 2.326741 -1.581053 -1.869394 0
M  V30 8 C 2.180665 0.517524 -0.781956 0
M  V30 9 C 2.669792 1.760927 -1.102852 0
M  V30 10 N 1.973302 2.886670 -0.775631 0
M  V30 11 C 0.789705 2.821624 -0.130574 0
M  V30 12 N -0.075957 3.758430 0.290342 0
M  V30 13 C -1.139816 3.194720 0.888953 0
M  V30 14 C -0.981771 1.810255 0.869918 0
M  V30 15 C -1.772674 0.674469 1.364157 0
M  V30 16 C -1.045747 -0.229809 2.136963 0
M  V30 17 C -1.632543 -1.378456 2.681872 0
M  V30 18 Cl -0.742841 -2.530801 3.656226 0
M  V30 19 C -2.971522 -1.592963 2.427964 0
M  V30 20 N -3.552281 -2.700157 2.946337 0
M  V30 21 C -4.864724 -2.906336 2.693107 0
M  V30 22 C -5.609626 -2.020463 1.926979 0
M  V30 23 C -5.046211 -0.884123 1.385584 0
M  V30 24 C -3.697269 -0.702051 1.664491 0
M  V30 25 C -3.108759 0.425173 1.133624 0
M  V30 26 C 0.242200 1.608826 0.221034 0
M  V30 27 C 0.955290 0.459461 -0.114673 0
M  V30 28 H 2.926117 -3.331727 1.719541 0
M  V30 29 H 2.837556 -2.449401 1.605291 0
M  V30 30 H 4.374776 -4.562793 -0.009068 0
M  V30 31 H 4.369381 -2.652363 -2.014002 0
M  V30 32 H 5.737706 -2.382064 -0.904142 0
M  V30 33 H 5.439187 -0.888781 1.081468 0
M  V30 34 H 4.145586 0.407679 0.888189 0
M  V30 35 H 5.570300 0.353370 -0.168029 0
M  V30 36 H 3.622267 1.817749 -1.621492 0
M  V30 37 H 0.037151 4.807967 0.179888 0
M  V30 38 H -2.016647 3.613187 1.340970 0
M  V30 39 H 0.007274 -0.156169 2.403702 0
M  V30 40 H -5.339559 -3.785229 3.100267 0
M  V30 41 H -6.657852 -2.256988 1.769057 0
M  V30 42 H -5.603190 -0.186086 0.790595 0
M  V30 43 H -3.595571 1.170908 0.528649 0
M  V30 44 H 0.568140 -0.540215 0.134472 0
M  V30 END ATOM
M  V30 BEGIN BOND
M  V30 1 2 1 2
M  V30 2 1 2 3
M  V30 3 1 3 4
M  V30 4 1 4 5
M  V30 5 1 4 6
M  V30 6 2 6 7
M  V30 7 1 6 8
M  V30 8 2 8 9
M  V30 9 1 9 10
M  V30 10 2 10 11
M  V30 11 1 11 12
M  V30 12 1 12 13
M  V30 13 2 13 14
M  V30 14 1 14 15
M  V30 15 2 15 16
M  V30 16 1 16 17
M  V30 17 1 17 18
M  V30 18 2 17 19
M  V30 19 1 19 20
M  V30 20 2 20 21
M  V30 21 1 21 22
M  V30 22 2 22 23
M  V30 23 1 23 24
M  V30 24 2 24 25
M  V30 25 1 14 26
M  V30 26 2 26 27
M  V30 27 1 27 8
M  V30 28 1 26 11
M  V30 29 1 25 15
M  V30 30 1 24 19
M  V30 31 1 1 28
M  V30 32 1 1 29
M  V30 33 1 2 30
M  V30 34 1 3 31
M  V30 35 1 3 32
M  V30 36 1 5 33
M  V30 37 1 5 34
M  V30 38 1 5 35
M  V30 39 1 9 36
M  V30 40 1 12 37
M  V30 41 1 13 38
M  V30 42 1 16 39
M  V30 43 1 21 40
M  V30 44 1 22 41
M  V30 45 1 23 42
M  V30 46 1 25 43
M  V30 47 1 27 44
M  V30 END BOND
M  V30 END CTAB
M  END
>  <Dataset>  (236) 
ChEMBL_Kinases

>  <Ligand_Instance>  (236) 
nan

>  <PDB_ID>  (236) 
nan

>  <Standardized_SMILES>  (236) 
C=CCN(C)C(=O)c1cnc2[nH]cc(-c3cc(Cl)c4ncccc4c3)c2c1

>  <Name>  (236) 
nan

>  <Pocket>  (236) 
nan

>  <ATP_Site>  (236) 
nan

>  <Peripheral>  (236) 
nan

>  <Num_H_Atoms_ProtBoundConf>  (236) 
nan

>  <Num_Resolved_Atoms>  (236) 
nan

>  <Num_Not_Resolved_Atoms>  (236) 
nan

$$$$
CHEMBL4788138
     RDKit          3D

  0  0  0  0  0  0  0  0  0  0999 V3000
M  V30 BEGIN CTAB
M  V30 COUNTS 36 38 0 0 0
M  V30 BEGIN ATOM
M  V30 1 N -0.430542 -1.090179 4.644995 0
M  V30 2 C -0.272960 -1.332813 3.241606 0
M  V30 3 N -0.288044 -2.592553 2.772556 0
M  V30 4 C -0.144349 -2.875053 1.464194 0
M  V30 5 C 0.024659 -1.839519 0.569150 0
M  V30 6 C 0.189141 -2.028436 -0.870085 0
M  V30 7 C 0.810064 -3.138772 -1.402155 0
M  V30 8 C 0.988694 -3.360681 -2.752613 0
M  V30 9 C 0.488540 -2.364874 -3.568575 0
M  V30 10 C 0.579700 -2.414394 -5.025324 0
M  V30 11 O 0.204297 -1.644877 -5.948165 0
M  V30 12 O 1.168681 -3.443302 -5.774497 0
M  V30 13 C -0.143276 -1.229310 -3.100949 0
M  V30 14 C -0.291899 -1.064658 -1.732586 0
M  V30 15 C 0.037290 -0.549035 1.072971 0
M  V30 16 C -0.109552 -0.233350 2.422125 0
M  V30 17 C -0.085362 1.153284 2.875490 0
M  V30 18 C 0.949595 1.878250 2.288391 0
M  V30 19 C 1.128299 3.223549 2.602722 0
M  V30 20 C 0.266066 3.799504 3.493862 0
M  V30 21 C -0.754407 3.104741 4.079608 0
M  V30 22 C -0.924121 1.786899 3.767292 0
M  V30 23 H 0.358500 -0.499858 5.036468 0
M  V30 24 H 0.322660 -0.512638 5.076265 0
M  V30 25 H -0.153455 -3.891525 1.062084 0
M  V30 26 H 1.181316 -3.884173 -0.715275 0
M  V30 27 H 1.470978 -4.221273 -3.181740 0
M  V30 28 H 1.981338 -3.289961 -6.386148 0
M  V30 29 H -0.536600 -0.449918 -3.717343 0
M  V30 30 H -0.781879 -0.185700 -1.341864 0
M  V30 31 H 0.168814 0.304387 0.398948 0
M  V30 32 H 1.671109 1.489524 1.575142 0
M  V30 33 H 1.922567 3.807268 2.160822 0
M  V30 34 H 0.376990 4.857434 3.765185 0
M  V30 35 H -1.463828 3.482277 4.780255 0
M  V30 36 H -1.695356 1.122866 4.162171 0
M  V30 END ATOM
M  V30 BEGIN BOND
M  V30 1 1 1 2
M  V30 2 2 2 3
M  V30 3 1 3 4
M  V30 4 2 4 5
M  V30 5 1 5 6
M  V30 6 2 6 7
M  V30 7 1 7 8
M  V30 8 2 8 9
M  V30 9 1 9 10
M  V30 10 2 10 11
M  V30 11 1 10 12
M  V30 12 1 9 13
M  V30 13 2 13 14
M  V30 14 1 5 15
M  V30 15 2 15 16
M  V30 16 1 16 17
M  V30 17 2 17 18
M  V30 18 1 18 19
M  V30 19 2 19 20
M  V30 20 1 20 21
M  V30 21 2 21 22
M  V30 22 1 16 2
M  V30 23 1 22 17
M  V30 24 1 14 6
M  V30 25 1 1 23
M  V30 26 1 1 24
M  V30 27 1 4 25
M  V30 28 1 7 26
M  V30 29 1 8 27
M  V30 30 1 12 28
M  V30 31 1 13 29
M  V30 32 1 14 30
M  V30 33 1 15 31
M  V30 34 1 18 32
M  V30 35 1 19 33
M  V30 36 1 20 34
M  V30 37 1 21 35
M  V30 38 1 22 36
M  V30 END BOND
M  V30 END CTAB
M  END
>  <Dataset>  (237) 
ChEMBL_Kinases

>  <Ligand_Instance>  (237) 
nan

>  <PDB_ID>  (237) 
nan

>  <Standardized_SMILES>  (237) 
Nc1ncc(-c2ccc(C(=O)O)cc2)cc1-c1ccccc1

>  <Name>  (237) 
nan

>  <Pocket>  (237) 
nan

>  <ATP_Site>  (237) 
nan

>  <Peripheral>  (237) 
nan

>  <Num_H_Atoms_ProtBoundConf>  (237) 
nan

>  <Num_Resolved_Atoms>  (237) 
nan

>  <Num_Not_Resolved_Atoms>  (237) 
nan

$$$$
CHEMBL4788172
     RDKit          3D

  0  0  0  0  0  0  0  0  0  0999 V3000
M  V30 BEGIN CTAB
M  V30 COUNTS 39 41 0 0 0
M  V30 BEGIN ATOM
M  V30 1 N 1.145547 -1.933668 4.345471 0
M  V30 2 C 1.405126 -1.190914 3.166231 0
M  V30 3 N 2.521626 -0.476774 2.931997 0
M  V30 4 C 2.716472 0.211309 1.792166 0
M  V30 5 C 1.733420 0.192037 0.809618 0
M  V30 6 C 1.909663 0.930594 -0.447628 0
M  V30 7 C 1.400201 0.581464 -1.693143 0
M  V30 8 C 1.653686 1.379280 -2.777735 0
M  V30 9 C 2.402533 2.523520 -2.670450 0
M  V30 10 C 2.612450 3.300983 -3.886506 0
M  V30 11 O 2.120803 2.916979 -4.958164 0
M  V30 12 O 3.316863 4.464274 -4.023439 0
M  V30 13 C 2.924113 2.901537 -1.451677 0
M  V30 14 C 2.658848 2.086341 -0.370428 0
M  V30 15 C 0.582497 -0.532329 1.027989 0
M  V30 16 C 0.406578 -1.233856 2.213669 0
M  V30 17 C -0.867861 -1.949939 2.288265 0
M  V30 18 C -1.301210 -2.683355 1.194313 0
M  V30 19 C -2.528888 -3.339134 1.342901 0
M  V30 20 C -3.269397 -3.264896 2.505407 0
M  V30 21 C -4.573929 -3.965505 2.654748 0
M  V30 22 F -4.473272 -5.179884 1.993770 0
M  V30 23 F -4.880066 -4.176372 3.984452 0
M  V30 24 F -5.618510 -3.276911 2.047240 0
M  V30 25 C -2.771591 -2.514580 3.551531 0
M  V30 26 C -1.567783 -1.841103 3.475509 0
M  V30 27 H 1.125719 -2.952860 4.578133 0
M  V30 28 H 0.897641 -1.756791 5.340326 0
M  V30 29 H 3.640627 0.772758 1.656242 0
M  V30 30 H 0.820816 -0.336147 -1.687496 0
M  V30 31 H 1.235762 1.068001 -3.731925 0
M  V30 32 H 2.964407 5.313747 -4.445022 0
M  V30 33 H 3.504658 3.800376 -1.400704 0
M  V30 34 H 3.081896 2.412056 0.566309 0
M  V30 35 H -0.154993 -0.515331 0.229471 0
M  V30 36 H -0.719105 -2.735410 0.295013 0
M  V30 37 H -2.901569 -3.922189 0.511160 0
M  V30 38 H -3.349922 -2.451516 4.471144 0
M  V30 39 H -1.216890 -1.266594 4.317354 0
M  V30 END ATOM
M  V30 BEGIN BOND
M  V30 1 1 1 2
M  V30 2 2 2 3
M  V30 3 1 3 4
M  V30 4 2 4 5
M  V30 5 1 5 6
M  V30 6 2 6 7
M  V30 7 1 7 8
M  V30 8 2 8 9
M  V30 9 1 9 10
M  V30 10 2 10 11
M  V30 11 1 10 12
M  V30 12 1 9 13
M  V30 13 2 13 14
M  V30 14 1 5 15
M  V30 15 2 15 16
M  V30 16 1 16 17
M  V30 17 2 17 18
M  V30 18 1 18 19
M  V30 19 2 19 20
M  V30 20 1 20 21
M  V30 21 1 21 22
M  V30 22 1 21 23
M  V30 23 1 21 24
M  V30 24 1 20 25
M  V30 25 2 25 26
M  V30 26 1 16 2
M  V30 27 1 26 17
M  V30 28 1 14 6
M  V30 29 1 1 27
M  V30 30 1 1 28
M  V30 31 1 4 29
M  V30 32 1 7 30
M  V30 33 1 8 31
M  V30 34 1 12 32
M  V30 35 1 13 33
M  V30 36 1 14 34
M  V30 37 1 15 35
M  V30 38 1 18 36
M  V30 39 1 19 37
M  V30 40 1 25 38
M  V30 41 1 26 39
M  V30 END BOND
M  V30 END CTAB
M  END
>  <Dataset>  (238) 
ChEMBL_Kinases

>  <Ligand_Instance>  (238) 
nan

>  <PDB_ID>  (238) 
nan

>  <Standardized_SMILES>  (238) 
Nc1ncc(-c2ccc(C(=O)O)cc2)cc1-c1ccc(C(F)(F)F)cc1

>  <Name>  (238) 
nan

>  <Pocket>  (238) 
nan

>  <ATP_Site>  (238) 
nan

>  <Peripheral>  (238) 
nan

>  <Num_H_Atoms_ProtBoundConf>  (238) 
nan

>  <Num_Resolved_Atoms>  (238) 
nan

>  <Num_Not_Resolved_Atoms>  (238) 
nan

$$$$
CHEMBL4788183
     RDKit          3D

  0  0  0  0  0  0  0  0  0  0999 V3000
M  V30 BEGIN CTAB
M  V30 COUNTS 51 55 0 0 0
M  V30 BEGIN ATOM
M  V30 1 C 0.703499 -5.150864 0.586114 0
M  V30 2 N 1.566376 -5.297264 -0.532460 0
M  V30 3 C 2.873220 -4.774805 -0.419548 0
M  V30 4 C 3.103730 -3.499245 -1.189828 0
M  V30 5 N 1.893456 -2.918147 -1.726169 0
M  V30 6 C 1.409845 -1.614160 -1.497448 0
M  V30 7 C 2.048801 -0.701014 -0.694535 0
M  V30 8 C 1.592194 0.577458 -0.459317 0
M  V30 9 C 0.420525 0.999610 -1.053259 0
M  V30 10 N -0.043141 2.324576 -0.803003 0
M  V30 11 N 0.029194 3.387106 -1.581522 0
M  V30 12 C -0.527927 4.457750 -0.976537 0
M  V30 13 C -0.970379 4.027768 0.249772 0
M  V30 14 C -1.610452 4.578868 1.340405 0
M  V30 15 N -1.921515 3.868965 2.439917 0
M  V30 16 C -1.640055 2.567466 2.577322 0
M  V30 17 C -1.996557 1.836485 3.789449 0
M  V30 18 C -1.738601 0.497731 3.999892 0
M  V30 19 C -2.079173 -0.177538 5.144928 0
M  V30 20 C -2.717767 0.532849 6.140636 0
M  V30 21 C -3.001952 1.868847 5.989721 0
M  V30 22 C -2.631383 2.504288 4.801647 0
M  V30 23 C -0.999222 1.977987 1.507441 0
M  V30 24 C -0.664036 2.686592 0.355464 0
M  V30 25 C -0.242234 0.103199 -1.864816 0
M  V30 26 C 0.248251 -1.167548 -2.074515 0
M  V30 27 C 1.257095 -3.915889 -2.545236 0
M  V30 28 C 0.950255 -5.194488 -1.808330 0
M  V30 29 H 0.204421 -4.172159 0.653068 0
M  V30 30 H 1.305261 -5.278293 1.509205 0
M  V30 31 H -0.010776 -5.996269 0.578571 0
M  V30 32 H 3.610717 -5.563597 -0.680903 0
M  V30 33 H 3.059511 -4.527781 0.658266 0
M  V30 34 H 3.681939 -2.761835 -0.607033 0
M  V30 35 H 3.743067 -3.784020 -2.068264 0
M  V30 36 H 2.970735 -0.932604 -0.184627 0
M  V30 37 H 2.111342 1.278458 0.175846 0
M  V30 38 H -0.624115 5.466627 -1.352070 0
M  V30 39 H -1.868577 5.648095 1.286860 0
M  V30 40 H -1.241620 -0.058739 3.227215 0
M  V30 41 H -1.845282 -1.235062 5.244479 0
M  V30 42 H -2.982907 -0.015979 7.045476 0
M  V30 43 H -3.512894 2.397717 6.809286 0
M  V30 44 H -2.899671 3.558188 4.780296 0
M  V30 45 H -0.737286 0.944716 1.531596 0
M  V30 46 H -1.156240 0.466223 -2.313981 0
M  V30 47 H -0.368708 -1.761778 -2.729239 0
M  V30 48 H 1.984742 -4.139969 -3.382647 0
M  V30 49 H 0.339711 -3.612350 -3.046574 0
M  V30 50 H 1.310599 -6.061659 -2.415413 0
M  V30 51 H -0.138312 -5.371218 -1.690938 0
M  V30 END ATOM
M  V30 BEGIN BOND
M  V30 1 1 1 2
M  V30 2 1 2 3
M  V30 3 1 3 4
M  V30 4 1 4 5
M  V30 5 1 5 6
M  V30 6 2 6 7
M  V30 7 1 7 8
M  V30 8 2 8 9
M  V30 9 1 9 10
M  V30 10 1 10 11
M  V30 11 2 11 12
M  V30 12 1 12 13
M  V30 13 2 13 14
M  V30 14 1 14 15
M  V30 15 2 15 16
M  V30 16 1 16 17
M  V30 17 2 17 18
M  V30 18 1 18 19
M  V30 19 2 19 20
M  V30 20 1 20 21
M  V30 21 2 21 22
M  V30 22 1 16 23
M  V30 23 2 23 24
M  V30 24 1 9 25
M  V30 25 2 25 26
M  V30 26 1 5 27
M  V30 27 1 27 28
M  V30 28 1 28 2
M  V30 29 1 26 6
M  V30 30 1 24 10
M  V30 31 1 24 13
M  V30 32 1 22 17
M  V30 33 1 1 29
M  V30 34 1 1 30
M  V30 35 1 1 31
M  V30 36 1 3 32
M  V30 37 1 3 33
M  V30 38 1 4 34
M  V30 39 1 4 35
M  V30 40 1 7 36
M  V30 41 1 8 37
M  V30 42 1 12 38
M  V30 43 1 14 39
M  V30 44 1 18 40
M  V30 45 1 19 41
M  V30 46 1 20 42
M  V30 47 1 21 43
M  V30 48 1 22 44
M  V30 49 1 23 45
M  V30 50 1 25 46
M  V30 51 1 26 47
M  V30 52 1 27 48
M  V30 53 1 27 49
M  V30 54 1 28 50
M  V30 55 1 28 51
M  V30 END BOND
M  V30 END CTAB
M  END
>  <Dataset>  (239) 
ChEMBL_Kinases

>  <Ligand_Instance>  (239) 
nan

>  <PDB_ID>  (239) 
nan

>  <Standardized_SMILES>  (239) 
CN1CCN(c2ccc(-n3ncc4cnc(-c5ccccc5)cc43)cc2)CC1

>  <Name>  (239) 
nan

>  <Pocket>  (239) 
nan

>  <ATP_Site>  (239) 
nan

>  <Peripheral>  (239) 
nan

>  <Num_H_Atoms_ProtBoundConf>  (239) 
nan

>  <Num_Resolved_Atoms>  (239) 
nan

>  <Num_Not_Resolved_Atoms>  (239) 
nan

$$$$
CHEMBL4164291
     RDKit          3D

  0  0  0  0  0  0  0  0  0  0999 V3000
M  V30 BEGIN CTAB
M  V30 COUNTS 29 30 0 0 0
M  V30 BEGIN ATOM
M  V30 1 C -2.616030 -2.879372 2.310526 0
M  V30 2 N -1.837855 -1.783912 1.776860 0
M  V30 3 C -2.260567 -0.409853 1.986568 0
M  V30 4 C -0.651670 -2.026911 1.040789 0
M  V30 5 C -0.173411 -3.292887 0.793586 0
M  V30 6 C 0.969789 -3.605234 0.086965 0
M  V30 7 C 1.658769 -2.490411 -0.394420 0
M  V30 8 C 1.243011 -1.177175 -0.188246 0
M  V30 9 C 2.055571 -0.104862 -0.748190 0
M  V30 10 C 2.221811 1.018393 -0.068550 0
M  V30 11 S 1.592173 1.538402 1.554168 0
M  V30 12 C 1.775666 3.313164 1.215546 0
M  V30 13 O 1.091829 4.116836 1.863956 0
M  V30 14 N 2.755136 3.372676 0.185408 0
M  V30 15 C 3.000439 2.175216 -0.498085 0
M  V30 16 O 3.853125 2.078323 -1.446158 0
M  V30 17 C 0.098567 -0.992594 0.524555 0
M  V30 18 H -2.661253 -3.733232 1.617308 0
M  V30 19 H -2.212515 -3.229499 3.284400 0
M  V30 20 H -3.647402 -2.495618 2.482188 0
M  V30 21 H -1.460314 0.198482 2.469772 0
M  V30 22 H -2.564418 0.077932 1.036917 0
M  V30 23 H -3.163422 -0.378390 2.639164 0
M  V30 24 H -0.720476 -4.167958 1.175192 0
M  V30 25 H 1.310093 -4.608050 -0.083814 0
M  V30 26 H 2.565277 -2.655378 -0.957011 0
M  V30 27 H 2.530581 -0.208887 -1.715639 0
M  V30 28 H 3.226800 4.287158 0.000713 0
M  V30 29 H -0.256408 0.011241 0.704225 0
M  V30 END ATOM
M  V30 BEGIN BOND
M  V30 1 1 1 2
M  V30 2 1 2 3
M  V30 3 1 2 4
M  V30 4 2 4 5
M  V30 5 1 5 6
M  V30 6 2 6 7
M  V30 7 1 7 8
M  V30 8 1 8 9
M  V30 9 2 9 10
M  V30 10 1 10 11
M  V30 11 1 11 12
M  V30 12 2 12 13
M  V30 13 1 12 14
M  V30 14 1 14 15
M  V30 15 2 15 16
M  V30 16 2 8 17
M  V30 17 1 17 4
M  V30 18 1 15 10
M  V30 19 1 1 18
M  V30 20 1 1 19
M  V30 21 1 1 20
M  V30 22 1 3 21
M  V30 23 1 3 22
M  V30 24 1 3 23
M  V30 25 1 5 24
M  V30 26 1 6 25
M  V30 27 1 7 26
M  V30 28 1 9 27
M  V30 29 1 14 28
M  V30 30 1 17 29
M  V30 END BOND
M  V30 END CTAB
M  END
>  <Dataset>  (240) 
ChEMBL_Kinases

>  <Ligand_Instance>  (240) 
nan

>  <PDB_ID>  (240) 
nan

>  <Standardized_SMILES>  (240) 
CN(C)c1cccc(/C=C2\SC(=O)NC2=O)c1

>  <Name>  (240) 
nan

>  <Pocket>  (240) 
nan

>  <ATP_Site>  (240) 
nan

>  <Peripheral>  (240) 
nan

>  <Num_H_Atoms_ProtBoundConf>  (240) 
nan

>  <Num_Resolved_Atoms>  (240) 
nan

>  <Num_Not_Resolved_Atoms>  (240) 
nan

$$$$
CHEMBL478819
     RDKit          3D

  0  0  0  0  0  0  0  0  0  0999 V3000
M  V30 BEGIN CTAB
M  V30 COUNTS 54 57 0 0 0
M  V30 BEGIN ATOM
M  V30 1 C 6.435138 -8.191175 -2.097017 0
M  V30 2 O 6.175234 -6.982911 -2.763156 0
M  V30 3 C 5.561502 -5.874064 -2.234002 0
M  V30 4 C 5.093590 -5.768214 -0.938601 0
M  V30 5 C 4.499807 -4.570169 -0.577923 0
M  V30 6 C 4.365052 -3.503456 -1.454799 0
M  V30 7 N 3.719085 -2.361259 -0.866365 0
M  V30 8 C 2.324419 -2.376558 -1.020093 0
M  V30 9 O 1.869560 -3.379183 -1.643760 0
M  V30 10 C 1.433750 -1.339179 -0.515827 0
M  V30 11 C 1.907973 -0.208176 0.166035 0
M  V30 12 C 0.946024 0.686721 0.586641 0
M  V30 13 C -0.413290 0.568880 0.399384 0
M  V30 14 C -1.371407 1.560610 0.874136 0
M  V30 15 C -2.508066 1.105308 1.550121 0
M  V30 16 C -3.458399 1.975899 2.036601 0
M  V30 17 C -4.621893 1.436568 2.730027 0
M  V30 18 O -4.699346 0.188758 2.817717 0
M  V30 19 N -5.619743 2.286617 3.280364 0
M  V30 20 C -6.803491 1.796720 3.983095 0
M  V30 21 C -7.414121 2.623944 5.052397 0
M  V30 22 C -8.081702 2.582781 3.706860 0
M  V30 23 C -3.230655 3.318960 1.822398 0
M  V30 24 C -2.137020 3.797540 1.169152 0
M  V30 25 C -1.195963 2.918339 0.688406 0
M  V30 26 C -0.007175 3.428188 -0.027794 0
M  V30 27 C -0.869875 -0.562540 -0.281087 0
M  V30 28 C 0.076438 -1.469504 -0.710076 0
M  V30 29 C 4.836147 -3.638567 -2.724816 0
M  V30 30 C 5.435994 -4.824271 -3.118733 0
M  V30 31 H 6.783049 -8.932261 -2.858354 0
M  V30 32 H 5.551313 -8.656358 -1.630433 0
M  V30 33 H 7.269331 -8.093279 -1.344699 0
M  V30 34 H 5.212910 -6.616352 -0.278305 0
M  V30 35 H 4.163283 -4.591909 0.470733 0
M  V30 36 H 4.177948 -1.569546 -0.363985 0
M  V30 37 H 2.963252 -0.085691 0.328455 0
M  V30 38 H 1.352201 1.552916 1.114635 0
M  V30 39 H -2.613237 0.026167 1.679090 0
M  V30 40 H -5.557872 3.325199 3.209834 0
M  V30 41 H -6.896943 0.695621 4.041658 0
M  V30 42 H -7.957623 2.051970 5.845403 0
M  V30 43 H -6.908779 3.516036 5.424709 0
M  V30 44 H -8.047156 3.480960 3.067449 0
M  V30 45 H -9.040146 2.017596 3.605322 0
M  V30 46 H -3.941196 4.022765 2.182856 0
M  V30 47 H -1.962745 4.863285 1.003527 0
M  V30 48 H -0.314622 4.296669 -0.684471 0
M  V30 49 H 0.403252 2.693812 -0.763730 0
M  V30 50 H 0.755713 3.858368 0.649766 0
M  V30 51 H -1.932641 -0.669523 -0.435034 0
M  V30 52 H -0.280739 -2.360989 -1.246118 0
M  V30 53 H 4.691414 -2.750767 -3.356073 0
M  V30 54 H 5.773423 -4.824749 -4.142821 0
M  V30 END ATOM
M  V30 BEGIN BOND
M  V30 1 1 1 2
M  V30 2 1 2 3
M  V30 3 2 3 4
M  V30 4 1 4 5
M  V30 5 2 5 6
M  V30 6 1 6 7
M  V30 7 1 7 8
M  V30 8 2 8 9
M  V30 9 1 8 10
M  V30 10 2 10 11
M  V30 11 1 11 12
M  V30 12 2 12 13
M  V30 13 1 13 14
M  V30 14 2 14 15
M  V30 15 1 15 16
M  V30 16 1 16 17
M  V30 17 2 17 18
M  V30 18 1 17 19
M  V30 19 1 19 20
M  V30 20 1 20 21
M  V30 21 1 21 22
M  V30 22 2 16 23
M  V30 23 1 23 24
M  V30 24 2 24 25
M  V30 25 1 25 26
M  V30 26 1 13 27
M  V30 27 2 27 28
M  V30 28 1 6 29
M  V30 29 2 29 30
M  V30 30 1 30 3
M  V30 31 1 28 10
M  V30 32 1 25 14
M  V30 33 1 22 20
M  V30 34 1 1 31
M  V30 35 1 1 32
M  V30 36 1 1 33
M  V30 37 1 4 34
M  V30 38 1 5 35
M  V30 39 1 7 36
M  V30 40 1 11 37
M  V30 41 1 12 38
M  V30 42 1 15 39
M  V30 43 1 19 40
M  V30 44 1 20 41
M  V30 45 1 21 42
M  V30 46 1 21 43
M  V30 47 1 22 44
M  V30 48 1 22 45
M  V30 49 1 23 46
M  V30 50 1 24 47
M  V30 51 1 26 48
M  V30 52 1 26 49
M  V30 53 1 26 50
M  V30 54 1 27 51
M  V30 55 1 28 52
M  V30 56 1 29 53
M  V30 57 1 30 54
M  V30 END BOND
M  V30 END CTAB
M  END
>  <Dataset>  (241) 
ChEMBL_Kinases

>  <Ligand_Instance>  (241) 
nan

>  <PDB_ID>  (241) 
nan

>  <Standardized_SMILES>  (241) 
COc1ccc(NC(=O)c2ccc(-c3cc(C(=O)NC4CC4)ccc3C)cc2)cc1

>  <Name>  (241) 
nan

>  <Pocket>  (241) 
nan

>  <ATP_Site>  (241) 
nan

>  <Peripheral>  (241) 
nan

>  <Num_H_Atoms_ProtBoundConf>  (241) 
nan

>  <Num_Resolved_Atoms>  (241) 
nan

>  <Num_Not_Resolved_Atoms>  (241) 
nan

$$$$
CHEMBL4164280
     RDKit          3D

  0  0  0  0  0  0  0  0  0  0999 V3000
M  V30 BEGIN CTAB
M  V30 COUNTS 52 55 0 0 0
M  V30 BEGIN ATOM
M  V30 1 N 0.232102 -1.553206 2.900055 0
M  V30 2 C 1.161533 -2.540508 3.413008 0
M  V30 3 C 1.534060 -2.292292 4.858424 0
M  V30 4 C 3.040228 -2.217169 5.027640 0
M  V30 5 C 3.551368 -1.084795 4.166597 0
M  V30 6 C 3.269220 -1.383554 2.726618 0
M  V30 7 C 2.594516 -0.176574 2.135475 0
M  V30 8 O 2.299160 0.926336 2.661697 0
M  V30 9 N 2.226382 -0.277175 0.767699 0
M  V30 10 C 1.596771 0.626433 -0.123779 0
M  V30 11 C 2.467615 1.413698 -0.858911 0
M  V30 12 C 1.987045 2.330023 -1.764036 0
M  V30 13 C 0.619918 2.471225 -1.947223 0
M  V30 14 N -0.210477 3.230500 -2.724456 0
M  V30 15 N -1.452132 2.902563 -2.453768 0
M  V30 16 C -1.511991 1.928895 -1.502762 0
M  V30 17 N -2.797545 1.464552 -1.114475 0
M  V30 18 C -3.460354 0.244825 -1.403034 0
M  V30 19 C -4.839351 0.182611 -1.268550 0
M  V30 20 C -5.503887 -0.999901 -1.522353 0
M  V30 21 C -4.832728 -2.164145 -1.917810 0
M  V30 22 C -3.453421 -2.114011 -2.056184 0
M  V30 23 C -2.739524 -3.346774 -2.465728 0
M  V30 24 F -1.495540 -3.095438 -3.021641 0
M  V30 25 F -2.588743 -4.227382 -1.382826 0
M  V30 26 F -3.477683 -4.015895 -3.451270 0
M  V30 27 C -2.826635 -0.915722 -1.794272 0
M  V30 28 C -0.199199 1.662312 -1.188483 0
M  V30 29 C 0.215175 0.717334 -0.257106 0
M  V30 30 C 2.403025 -2.613231 2.541221 0
M  V30 31 H -0.147503 -0.915017 3.631474 0
M  V30 32 H -0.577225 -1.955317 2.385581 0
M  V30 33 H 0.663866 -3.525862 3.362392 0
M  V30 34 H 1.115650 -1.301785 5.135962 0
M  V30 35 H 1.074031 -3.040019 5.535176 0
M  V30 36 H 3.554141 -3.152699 4.723954 0
M  V30 37 H 3.200292 -1.980605 6.114550 0
M  V30 38 H 4.646741 -0.942972 4.278860 0
M  V30 39 H 2.977982 -0.186459 4.490780 0
M  V30 40 H 4.205843 -1.549789 2.164613 0
M  V30 41 H 2.395711 -1.118118 0.177739 0
M  V30 42 H 3.549463 1.395352 -0.810074 0
M  V30 43 H 2.553346 3.008914 -2.400001 0
M  V30 44 H 0.181442 3.941175 -3.403944 0
M  V30 45 H -3.271870 2.180161 -0.525634 0
M  V30 46 H -5.350705 1.089176 -0.963600 0
M  V30 47 H -6.587178 -0.921845 -1.383196 0
M  V30 48 H -5.448531 -3.054612 -2.095486 0
M  V30 49 H -1.738340 -0.871477 -1.902283 0
M  V30 50 H -0.447643 0.111057 0.306910 0
M  V30 51 H 2.946780 -3.560728 2.692024 0
M  V30 52 H 2.059139 -2.628607 1.488127 0
M  V30 END ATOM
M  V30 BEGIN BOND
M  V30 1 1 1 2
M  V30 2 1 2 3
M  V30 3 1 3 4
M  V30 4 1 4 5
M  V30 5 1 5 6
M  V30 6 1 6 7
M  V30 7 2 7 8
M  V30 8 1 7 9
M  V30 9 1 9 10
M  V30 10 2 10 11
M  V30 11 1 11 12
M  V30 12 2 12 13
M  V30 13 1 13 14
M  V30 14 1 14 15
M  V30 15 2 15 16
M  V30 16 1 16 17
M  V30 17 1 17 18
M  V30 18 2 18 19
M  V30 19 1 19 20
M  V30 20 2 20 21
M  V30 21 1 21 22
M  V30 22 1 22 23
M  V30 23 1 23 24
M  V30 24 1 23 25
M  V30 25 1 23 26
M  V30 26 2 22 27
M  V30 27 1 16 28
M  V30 28 2 28 29
M  V30 29 1 6 30
M  V30 30 1 30 2
M  V30 31 1 29 10
M  V30 32 1 28 13
M  V30 33 1 27 18
M  V30 34 1 1 31
M  V30 35 1 1 32
M  V30 36 1 2 33
M  V30 37 1 3 34
M  V30 38 1 3 35
M  V30 39 1 4 36
M  V30 40 1 4 37
M  V30 41 1 5 38
M  V30 42 1 5 39
M  V30 43 1 6 40
M  V30 44 1 9 41
M  V30 45 1 11 42
M  V30 46 1 12 43
M  V30 47 1 14 44
M  V30 48 1 17 45
M  V30 49 1 19 46
M  V30 50 1 20 47
M  V30 51 1 21 48
M  V30 52 1 27 49
M  V30 53 1 29 50
M  V30 54 1 30 51
M  V30 55 1 30 52
M  V30 END BOND
M  V30 END CTAB
M  END
>  <Dataset>  (242) 
ChEMBL_Kinases

>  <Ligand_Instance>  (242) 
nan

>  <PDB_ID>  (242) 
nan

>  <Standardized_SMILES>  (242) 
NC1CCCC(C(=O)Nc2ccc3[nH]nc(Nc4cccc(C(F)(F)F)c4)c3c2)C1

>  <Name>  (242) 
nan

>  <Pocket>  (242) 
nan

>  <ATP_Site>  (242) 
nan

>  <Peripheral>  (242) 
nan

>  <Num_H_Atoms_ProtBoundConf>  (242) 
nan

>  <Num_Resolved_Atoms>  (242) 
nan

>  <Num_Not_Resolved_Atoms>  (242) 
nan

$$$$
CHEMBL4164161
     RDKit          3D

  0  0  0  0  0  0  0  0  0  0999 V3000
M  V30 BEGIN CTAB
M  V30 COUNTS 52 56 0 0 0
M  V30 BEGIN ATOM
M  V30 1 N 1.280517 -2.803905 2.560166 0
M  V30 2 C 0.240329 -3.290909 2.300014 0
M  V30 3 C -1.055090 -3.869336 1.983258 0
M  V30 4 C -2.112262 -3.275906 2.628120 0
M  V30 5 N -1.888434 -2.226405 3.592875 0
M  V30 6 C -1.565939 -1.046678 2.853896 0
M  V30 7 C -0.881604 -0.068015 3.589397 0
M  V30 8 C -0.460198 1.144864 3.082910 0
M  V30 9 C -0.742413 1.393103 1.754733 0
M  V30 10 C -0.313111 2.639893 1.137866 0
M  V30 11 N 0.415653 3.627370 1.714808 0
M  V30 12 C 0.621662 4.614626 0.811639 0
M  V30 13 C 1.281935 5.848722 0.810392 0
M  V30 14 C 1.280037 6.603076 -0.342944 0
M  V30 15 C 1.935208 7.885108 -0.463071 0
M  V30 16 O 1.996207 8.651828 -1.452220 0
M  V30 17 O 2.681776 8.853735 0.142997 0
M  V30 18 C 0.653638 6.186715 -1.488945 0
M  V30 19 C -0.011913 4.989970 -1.559320 0
M  V30 20 C 0.002670 4.249304 -0.391383 0
M  V30 21 N -0.548450 3.033260 -0.120962 0
M  V30 22 C -1.415163 0.457876 0.997681 0
M  V30 23 C -1.819293 -0.743003 1.540378 0
M  V30 24 N -3.326088 -3.746077 2.306018 0
M  V30 25 C -3.444964 -4.736619 1.401789 0
M  V30 26 S -4.976090 -5.203348 1.114756 0
M  V30 27 N -2.375594 -5.258350 0.823100 0
M  V30 28 C -1.075768 -4.878552 1.056816 0
M  V30 29 C -0.011078 -5.507095 0.332683 0
M  V30 30 C 1.334463 -5.512408 0.531499 0
M  V30 31 C 2.327222 -6.082100 -0.242909 0
M  V30 32 C 1.889449 -6.736257 -1.373332 0
M  V30 33 N 2.906110 -7.325965 -2.180886 0 CHG=1 VAL=4
M  V30 34 O 2.797350 -7.972515 -3.234365 0
M  V30 35 O 4.271228 -7.296641 -1.936816 0 CHG=-1 VAL=1
M  V30 36 C 0.557734 -6.798347 -1.676873 0
M  V30 37 C -0.367053 -6.190371 -0.831373 0
M  V30 38 H -1.933750 -2.238939 4.626821 0
M  V30 39 H -0.646715 -0.233742 4.632135 0
M  V30 40 H 0.060492 1.843789 3.709249 0
M  V30 41 H 1.779580 6.193076 1.700579 0
M  V30 42 H 3.662007 8.791885 0.417053 0
M  V30 43 H 0.633408 6.769130 -2.422074 0
M  V30 44 H -0.525721 4.595497 -2.422531 0
M  V30 45 H -1.094649 2.442698 -0.780022 0
M  V30 46 H -1.675102 0.590489 -0.067154 0
M  V30 47 H -2.351765 -1.528168 1.014752 0
M  V30 48 H -2.663988 -6.006697 0.166893 0
M  V30 49 H 1.678952 -5.039266 1.422634 0
M  V30 50 H 3.365848 -6.006073 0.041502 0
M  V30 51 H 0.347969 -7.334796 -2.581939 0
M  V30 52 H -1.354907 -6.346073 -1.246600 0
M  V30 END ATOM
M  V30 BEGIN BOND
M  V30 1 3 1 2
M  V30 2 1 2 3
M  V30 3 1 3 4
M  V30 4 1 4 5
M  V30 5 1 5 6
M  V30 6 2 6 7
M  V30 7 1 7 8
M  V30 8 2 8 9
M  V30 9 1 9 10
M  V30 10 2 10 11
M  V30 11 1 11 12
M  V30 12 2 12 13
M  V30 13 1 13 14
M  V30 14 1 14 15
M  V30 15 2 15 16
M  V30 16 1 15 17
M  V30 17 2 14 18
M  V30 18 1 18 19
M  V30 19 2 19 20
M  V30 20 1 20 21
M  V30 21 1 9 22
M  V30 22 2 22 23
M  V30 23 2 4 24
M  V30 24 1 24 25
M  V30 25 2 25 26
M  V30 26 1 25 27
M  V30 27 1 27 28
M  V30 28 1 28 29
M  V30 29 2 29 30
M  V30 30 1 30 31
M  V30 31 2 31 32
M  V30 32 1 32 33
M  V30 33 2 33 34
M  V30 34 1 33 35
M  V30 35 1 32 36
M  V30 36 2 36 37
M  V30 37 2 28 3
M  V30 38 1 37 29
M  V30 39 1 23 6
M  V30 40 1 21 10
M  V30 41 1 20 12
M  V30 42 1 5 38
M  V30 43 1 7 39
M  V30 44 1 8 40
M  V30 45 1 13 41
M  V30 46 1 17 42
M  V30 47 1 18 43
M  V30 48 1 19 44
M  V30 49 1 21 45
M  V30 50 1 22 46
M  V30 51 1 23 47
M  V30 52 1 27 48
M  V30 53 1 30 49
M  V30 54 1 31 50
M  V30 55 1 36 51
M  V30 56 1 37 52
M  V30 END BOND
M  V30 END CTAB
M  END
>  <Dataset>  (243) 
ChEMBL_Kinases

>  <Ligand_Instance>  (243) 
nan

>  <PDB_ID>  (243) 
nan

>  <Standardized_SMILES>  (243) 
N#Cc1c(Nc2ccc(-c3nc4cc(C(=O)O)ccc4[nH]3)cc2)nc(=S)[nH]c1-c1ccc([N+](=O)[O-])cc1

>  <Name>  (243) 
nan

>  <Pocket>  (243) 
nan

>  <ATP_Site>  (243) 
nan

>  <Peripheral>  (243) 
nan

>  <Num_H_Atoms_ProtBoundConf>  (243) 
nan

>  <Num_Resolved_Atoms>  (243) 
nan

>  <Num_Not_Resolved_Atoms>  (243) 
nan

$$$$
CHEMBL4788212
     RDKit          3D

  0  0  0  0  0  0  0  0  0  0999 V3000
M  V30 BEGIN CTAB
M  V30 COUNTS 50 53 0 0 0
M  V30 BEGIN ATOM
M  V30 1 C 2.352185 -6.010948 -1.048731 0
M  V30 2 N 2.965227 -4.760541 -1.252763 0
M  V30 3 C 2.909643 -4.167877 -2.527053 0
M  V30 4 C 3.432598 -2.748295 -2.430044 0
M  V30 5 C 3.005842 -2.140899 -1.099363 0
M  V30 6 C 1.527588 -2.187326 -0.889203 0
M  V30 7 N 1.081211 -1.618693 0.364426 0
M  V30 8 C 1.200628 -0.196968 0.581176 0
M  V30 9 N 2.130747 0.533899 0.161640 0
M  V30 10 C 2.131031 1.881153 0.435557 0
M  V30 11 O 2.982683 2.739589 0.089541 0
M  V30 12 C 0.988931 2.304502 1.219076 0
M  V30 13 C 0.534174 3.444207 1.731241 0
M  V30 14 C -0.712561 3.606448 2.524046 0
M  V30 15 C -0.804284 4.461693 3.601200 0
M  V30 16 S -2.595839 4.145857 4.065678 0
M  V30 17 C -2.851783 2.978651 2.775189 0
M  V30 18 C -4.105794 2.221186 2.450028 0
M  V30 19 C -4.111023 1.336755 1.384998 0
M  V30 20 C -5.268558 0.662524 1.111904 0
M  V30 21 C -6.398077 0.857318 1.874580 0
M  V30 22 C -6.373688 1.749156 2.939675 0
M  V30 23 C -5.204581 2.449764 3.239058 0
M  V30 24 O -5.244284 3.325723 4.314187 0
M  V30 25 N -1.701392 2.857833 2.086126 0
M  V30 26 S 0.014104 0.799973 1.508193 0
M  V30 27 C 3.770289 -2.881626 -0.018560 0
M  V30 28 C 3.980237 -4.333435 -0.374444 0
M  V30 29 H 1.402618 -5.868283 -0.486643 0
M  V30 30 H 2.973889 -6.697069 -0.438062 0
M  V30 31 H 2.031675 -6.496809 -2.011439 0
M  V30 32 H 3.376508 -4.724127 -3.344904 0
M  V30 33 H 1.818162 -4.052220 -2.795545 0
M  V30 34 H 3.090040 -2.127692 -3.280035 0
M  V30 35 H 4.544104 -2.811249 -2.395176 0
M  V30 36 H 3.334469 -1.082582 -1.101559 0
M  V30 37 H 1.059899 -1.689397 -1.776062 0
M  V30 38 H 1.166810 -3.234960 -0.940932 0
M  V30 39 H 0.663338 -2.214157 1.143423 0
M  V30 40 H 1.198597 4.293852 1.501727 0
M  V30 41 H 0.036362 5.076102 3.948856 0
M  V30 42 H -3.182713 1.221319 0.810519 0
M  V30 43 H -5.239276 -0.026572 0.266687 0
M  V30 44 H -7.287687 0.279721 1.591900 0
M  V30 45 H -7.275692 1.871488 3.509644 0
M  V30 46 H -5.318327 2.946577 5.271826 0
M  V30 47 H 4.772342 -2.399332 0.062559 0
M  V30 48 H 3.236321 -2.759365 0.946899 0
M  V30 49 H 3.850504 -4.906883 0.586490 0
M  V30 50 H 5.014324 -4.549419 -0.718265 0
M  V30 END ATOM
M  V30 BEGIN BOND
M  V30 1 1 1 2
M  V30 2 1 2 3
M  V30 3 1 3 4
M  V30 4 1 4 5
M  V30 5 1 5 6
M  V30 6 1 6 7
M  V30 7 1 7 8
M  V30 8 2 8 9
M  V30 9 1 9 10
M  V30 10 2 10 11
M  V30 11 1 10 12
M  V30 12 2 12 13
M  V30 13 1 13 14
M  V30 14 2 14 15
M  V30 15 1 15 16
M  V30 16 1 16 17
M  V30 17 1 17 18
M  V30 18 2 18 19
M  V30 19 1 19 20
M  V30 20 2 20 21
M  V30 21 1 21 22
M  V30 22 2 22 23
M  V30 23 1 23 24
M  V30 24 2 17 25
M  V30 25 1 12 26
M  V30 26 1 5 27
M  V30 27 1 27 28
M  V30 28 1 28 2
M  V30 29 1 26 8
M  V30 30 1 25 14
M  V30 31 1 23 18
M  V30 32 1 1 29
M  V30 33 1 1 30
M  V30 34 1 1 31
M  V30 35 1 3 32
M  V30 36 1 3 33
M  V30 37 1 4 34
M  V30 38 1 4 35
M  V30 39 1 5 36
M  V30 40 1 6 37
M  V30 41 1 6 38
M  V30 42 1 7 39
M  V30 43 1 13 40
M  V30 44 1 15 41
M  V30 45 1 19 42
M  V30 46 1 20 43
M  V30 47 1 21 44
M  V30 48 1 22 45
M  V30 49 1 24 46
M  V30 50 1 27 47
M  V30 51 1 27 48
M  V30 52 1 28 49
M  V30 53 1 28 50
M  V30 END BOND
M  V30 END CTAB
M  END
>  <Dataset>  (244) 
ChEMBL_Kinases

>  <Ligand_Instance>  (244) 
nan

>  <PDB_ID>  (244) 
nan

>  <Standardized_SMILES>  (244) 
CN1CCC(CNC2=NC(=O)/C(=C/c3csc(-c4ccccc4O)n3)S2)CC1

>  <Name>  (244) 
nan

>  <Pocket>  (244) 
nan

>  <ATP_Site>  (244) 
nan

>  <Peripheral>  (244) 
nan

>  <Num_H_Atoms_ProtBoundConf>  (244) 
nan

>  <Num_Resolved_Atoms>  (244) 
nan

>  <Num_Not_Resolved_Atoms>  (244) 
nan

$$$$
CHEMBL4163978
     RDKit          3D

  0  0  0  0  0  0  0  0  0  0999 V3000
M  V30 BEGIN CTAB
M  V30 COUNTS 56 60 0 0 0
M  V30 BEGIN ATOM
M  V30 1 O 3.119345 -4.429379 -2.710700 0
M  V30 2 C 3.004999 -3.377953 -2.048736 0
M  V30 3 N 4.019504 -2.383298 -1.914678 0
M  V30 4 C 3.549636 -1.305931 -1.077000 0
M  V30 5 C 4.155081 -0.144206 -0.647498 0
M  V30 6 C 3.441401 0.706428 0.186447 0
M  V30 7 C 2.141589 0.426655 0.602139 0
M  V30 8 C 1.477918 1.396923 1.476842 0
M  V30 9 O 2.126562 2.439941 1.742526 0
M  V30 10 N 0.194333 1.221349 2.013141 0
M  V30 11 C -0.362932 2.247260 2.862247 0 CFG=2
M  V30 12 C -0.538917 1.779485 4.285111 0
M  V30 13 O 0.721983 1.413783 4.785576 0
M  V30 14 C -1.613392 2.763239 2.276270 0
M  V30 15 C -2.717098 2.939664 3.077490 0
M  V30 16 C -3.912975 3.423751 2.553803 0
M  V30 17 C -3.972026 3.727940 1.197388 0
M  V30 18 C -2.854538 3.551020 0.378869 0
M  V30 19 C -1.683970 3.068344 0.932960 0
M  V30 20 C 1.582958 -0.749090 0.141930 0
M  V30 21 C 2.264171 -1.606603 -0.684360 0
M  V30 22 C 1.891755 -2.877226 -1.267076 0
M  V30 23 C 0.762176 -3.532975 -1.131064 0
M  V30 24 C -0.382577 -3.074001 -0.365720 0
M  V30 25 C -0.934005 -3.458366 0.836083 0
M  V30 26 C -2.100235 -2.896590 1.297810 0
M  V30 27 C -2.743963 -1.927723 0.555565 0
M  V30 28 Cl -4.227181 -1.248670 1.199526 0
M  V30 29 C -2.228596 -1.504388 -0.665336 0
M  V30 30 C -1.038962 -2.086604 -1.122085 0
M  V30 31 C 0.391577 -4.801971 -1.747918 0
M  V30 32 N -0.122646 -5.928782 -1.174464 0
M  V30 33 C -0.355406 -6.854027 -2.139402 0
M  V30 34 C 0.020518 -6.298821 -3.351735 0
M  V30 35 N 0.465558 -5.056780 -3.066540 0
M  V30 36 H 4.979826 -2.386013 -2.341318 0
M  V30 37 H 5.159312 0.061791 -0.973040 0
M  V30 38 H 3.970438 1.598343 0.485008 0
M  V30 39 H -0.363647 0.365702 1.809946 0
M  V30 40 H 0.355736 3.102612 2.915416 0
M  V30 41 H -0.894762 2.579247 4.952838 0
M  V30 42 H -1.240543 0.947168 4.331426 0
M  V30 43 H 1.195198 2.247702 5.062947 0
M  V30 44 H -2.753767 2.728965 4.127884 0
M  V30 45 H -4.832060 3.588771 3.127276 0
M  V30 46 H -4.901848 4.106002 0.786082 0
M  V30 47 H -2.972821 3.810673 -0.674523 0
M  V30 48 H -0.812617 2.932348 0.285377 0
M  V30 49 H 0.599056 -0.870954 0.543706 0
M  V30 50 H -0.302909 -4.225142 1.285922 0
M  V30 51 H -2.425432 -3.285283 2.253090 0
M  V30 52 H -2.791619 -0.750453 -1.174151 0
M  V30 53 H -0.765451 -1.654577 -2.083616 0
M  V30 54 H -0.769773 -7.792504 -1.778055 0
M  V30 55 H -0.117327 -6.940725 -4.195596 0
M  V30 56 H 0.766869 -4.531935 -3.911184 0
M  V30 END ATOM
M  V30 BEGIN BOND
M  V30 1 2 1 2
M  V30 2 1 2 3
M  V30 3 1 3 4
M  V30 4 2 4 5
M  V30 5 1 5 6
M  V30 6 2 6 7
M  V30 7 1 7 8
M  V30 8 2 8 9
M  V30 9 1 8 10
M  V30 10 1 10 11
M  V30 11 1 11 12
M  V30 12 1 12 13
M  V30 13 1 11 14
M  V30 14 2 14 15
M  V30 15 1 15 16
M  V30 16 2 16 17
M  V30 17 1 17 18
M  V30 18 2 18 19
M  V30 19 1 7 20
M  V30 20 2 20 21
M  V30 21 1 21 22
M  V30 22 2 22 23
M  V30 23 1 23 24
M  V30 24 2 24 25
M  V30 25 1 25 26
M  V30 26 2 26 27
M  V30 27 1 27 28
M  V30 28 1 27 29
M  V30 29 2 29 30
M  V30 30 1 23 31
M  V30 31 2 31 32
M  V30 32 1 32 33
M  V30 33 2 33 34
M  V30 34 1 34 35
M  V30 35 1 22 2
M  V30 36 1 30 24
M  V30 37 1 35 31
M  V30 38 1 21 4
M  V30 39 1 19 14
M  V30 40 1 3 36
M  V30 41 1 5 37
M  V30 42 1 6 38
M  V30 43 1 10 39
M  V30 44 1 11 40 CFG=1
M  V30 45 1 12 41
M  V30 46 1 12 42
M  V30 47 1 13 43
M  V30 48 1 15 44
M  V30 49 1 16 45
M  V30 50 1 17 46
M  V30 51 1 18 47
M  V30 52 1 19 48
M  V30 53 1 20 49
M  V30 54 1 25 50
M  V30 55 1 26 51
M  V30 56 1 29 52
M  V30 57 1 30 53
M  V30 58 1 33 54
M  V30 59 1 34 55
M  V30 60 1 35 56
M  V30 END BOND
M  V30 END CTAB
M  END
>  <Dataset>  (245) 
ChEMBL_Kinases

>  <Ligand_Instance>  (245) 
nan

>  <PDB_ID>  (245) 
nan

>  <Standardized_SMILES>  (245) 
O=C1Nc2ccc(C(=O)N[C@H](CO)c3ccccc3)cc2/C1=C(\c1ccc(Cl)cc1)c1ncc[nH]1

>  <Name>  (245) 
nan

>  <Pocket>  (245) 
nan

>  <ATP_Site>  (245) 
nan

>  <Peripheral>  (245) 
nan

>  <Num_H_Atoms_ProtBoundConf>  (245) 
nan

>  <Num_Resolved_Atoms>  (245) 
nan

>  <Num_Not_Resolved_Atoms>  (245) 
nan

$$$$
CHEMBL4788337
     RDKit          3D

  0  0  0  0  0  0  0  0  0  0999 V3000
M  V30 BEGIN CTAB
M  V30 COUNTS 49 52 0 0 0
M  V30 BEGIN ATOM
M  V30 1 N 0.165603 -4.974881 4.414624 0
M  V30 2 C 0.415990 -3.943290 3.429473 0
M  V30 3 N 1.703927 -4.173203 3.017244 0
M  V30 4 C 2.240964 -3.347195 2.070630 0
M  V30 5 C 1.475313 -2.320243 1.567534 0
M  V30 6 C 1.916718 -1.364866 0.556944 0
M  V30 7 C 2.815908 -1.613675 -0.479275 0
M  V30 8 N 2.944280 -0.473062 -1.176848 0
M  V30 9 N 2.198609 0.480411 -0.666551 0
M  V30 10 C 1.946706 1.870507 -0.995436 0
M  V30 11 C 2.299649 2.181263 -2.414930 0
M  V30 12 C 1.781252 3.599173 -2.684228 0
M  V30 13 N 1.313423 4.252263 -1.494634 0
M  V30 14 C 2.217404 4.194897 -0.384473 0
M  V30 15 C 2.717063 2.797408 -0.095641 0
M  V30 16 C 1.560161 -0.042682 0.396167 0
M  V30 17 C 0.185990 -2.108064 1.995446 0
M  V30 18 C -0.408830 -2.901667 2.941710 0
M  V30 19 O -1.567691 -3.065486 3.624657 0
M  V30 20 C -2.711434 -2.287365 3.501176 0
M  V30 21 C -3.349705 -2.271994 2.169153 0
M  V30 22 C -4.188745 -3.388278 2.024831 0
M  V30 23 C -4.933282 -3.632260 0.884101 0
M  V30 24 C -4.873291 -2.756431 -0.185141 0
M  V30 25 C -4.049461 -1.665534 -0.035887 0
M  V30 26 Cl -3.841809 -0.436648 -1.291338 0
M  V30 27 C -3.317345 -1.423826 1.084016 0
M  V30 28 H 0.725149 -5.010417 5.307647 0
M  V30 29 H -0.531667 -5.774562 4.418293 0
M  V30 30 H 3.224030 -3.391183 1.645018 0
M  V30 31 H 3.331320 -2.549548 -0.702866 0
M  V30 32 H 0.852286 2.126309 -0.887325 0
M  V30 33 H 1.837749 1.463160 -3.128274 0
M  V30 34 H 3.388957 2.207871 -2.601758 0
M  V30 35 H 2.561792 4.245801 -3.130320 0
M  V30 36 H 0.887838 3.504003 -3.363556 0
M  V30 37 H 0.324370 4.078323 -1.247000 0
M  V30 38 H 3.032102 4.922062 -0.509066 0
M  V30 39 H 1.641615 4.505418 0.522727 0
M  V30 40 H 2.500499 2.465593 0.953498 0
M  V30 41 H 3.788238 2.658248 -0.296288 0
M  V30 42 H 0.843876 0.397400 1.108297 0
M  V30 43 H -0.511938 -1.369060 1.709807 0
M  V30 44 H -2.494883 -1.189423 3.724181 0
M  V30 45 H -3.477324 -2.529462 4.290868 0
M  V30 46 H -4.355677 -4.181773 2.771260 0
M  V30 47 H -5.584669 -4.478191 0.743981 0
M  V30 48 H -5.382281 -2.800732 -1.130830 0
M  V30 49 H -2.665851 -0.592560 1.273983 0
M  V30 END ATOM
M  V30 BEGIN BOND
M  V30 1 1 1 2
M  V30 2 2 2 3
M  V30 3 1 3 4
M  V30 4 2 4 5
M  V30 5 1 5 6
M  V30 6 1 6 7
M  V30 7 2 7 8
M  V30 8 1 8 9
M  V30 9 1 9 10
M  V30 10 1 10 11
M  V30 11 1 11 12
M  V30 12 1 12 13
M  V30 13 1 13 14
M  V30 14 1 14 15
M  V30 15 1 9 16
M  V30 16 1 5 17
M  V30 17 2 17 18
M  V30 18 1 18 19
M  V30 19 1 19 20
M  V30 20 1 20 21
M  V30 21 2 21 22
M  V30 22 1 22 23
M  V30 23 2 23 24
M  V30 24 1 24 25
M  V30 25 1 25 26
M  V30 26 2 25 27
M  V30 27 1 18 2
M  V30 28 1 27 21
M  V30 29 2 16 6
M  V30 30 1 15 10
M  V30 31 1 1 28
M  V30 32 1 1 29
M  V30 33 1 4 30
M  V30 34 1 7 31
M  V30 35 1 10 32
M  V30 36 1 11 33
M  V30 37 1 11 34
M  V30 38 1 12 35
M  V30 39 1 12 36
M  V30 40 1 13 37
M  V30 41 1 14 38
M  V30 42 1 14 39
M  V30 43 1 15 40
M  V30 44 1 15 41
M  V30 45 1 16 42
M  V30 46 1 17 43
M  V30 47 1 20 44
M  V30 48 1 20 45
M  V30 49 1 22 46
M  V30 50 1 23 47
M  V30 51 1 24 48
M  V30 52 1 27 49
M  V30 END BOND
M  V30 END CTAB
M  END
>  <Dataset>  (246) 
ChEMBL_Kinases

>  <Ligand_Instance>  (246) 
nan

>  <PDB_ID>  (246) 
nan

>  <Standardized_SMILES>  (246) 
Nc1ncc(-c2cnn(C3CCNCC3)c2)cc1OCc1cccc(Cl)c1

>  <Name>  (246) 
nan

>  <Pocket>  (246) 
nan

>  <ATP_Site>  (246) 
nan

>  <Peripheral>  (246) 
nan

>  <Num_H_Atoms_ProtBoundConf>  (246) 
nan

>  <Num_Resolved_Atoms>  (246) 
nan

>  <Num_Not_Resolved_Atoms>  (246) 
nan

$$$$
CHEMBL4163881
     RDKit          3D

  0  0  0  0  0  0  0  0  0  0999 V3000
M  V30 BEGIN CTAB
M  V30 COUNTS 60 63 0 0 0
M  V30 BEGIN ATOM
M  V30 1 C 2.257211 -3.648848 5.821422 0
M  V30 2 O 3.568279 -3.472591 5.320753 0
M  V30 3 C 3.866849 -2.773450 4.178995 0
M  V30 4 C 2.957135 -2.141919 3.350743 0
M  V30 5 C 3.391504 -1.470137 2.229240 0
M  V30 6 C 4.714314 -1.375122 1.853877 0
M  V30 7 N 5.095445 -0.667434 0.687415 0
M  V30 8 C 4.342408 0.033506 -0.282591 0
M  V30 9 N 4.989614 0.619828 -1.294869 0
M  V30 10 C 4.361752 1.304848 -2.261372 0
M  V30 11 C 2.996951 1.352854 -2.122594 0
M  V30 12 C 2.253616 0.797886 -1.143996 0
M  V30 13 C 0.801987 0.821901 -0.945837 0
M  V30 14 S 0.033944 -0.006420 0.417416 0
M  V30 15 C -1.720757 0.515794 -0.072184 0
M  V30 16 S -3.055861 -0.064001 1.006592 0
M  V30 17 C -3.652336 -1.691583 0.401908 0
M  V30 18 C -4.312842 -1.557329 -0.924282 0
M  V30 19 N -5.451871 -0.703638 -0.954643 0
M  V30 20 C -6.598009 -1.140892 -0.262596 0
M  V30 21 C -7.931748 -0.732975 -0.754266 0
M  V30 22 N -7.970526 0.010456 -1.975348 0
M  V30 23 C -6.845803 0.921108 -2.057880 0
M  V30 24 C -5.610309 0.055980 -2.143926 0
M  V30 25 N -1.467525 1.157658 -1.072521 0
M  V30 26 C -0.276611 1.358882 -1.569448 0
M  V30 27 C -0.110189 2.169307 -2.806423 0
M  V30 28 N 3.013382 0.145813 -0.249208 0
M  V30 29 C 5.601192 -2.014818 2.698721 0
M  V30 30 O 6.947435 -1.959874 2.381348 0
M  V30 31 C 7.937009 -2.579234 3.176710 0
M  V30 32 C 5.187830 -2.682470 3.809950 0
M  V30 33 H 1.535393 -3.953026 5.046427 0
M  V30 34 H 2.248870 -4.439336 6.609766 0
M  V30 35 H 1.941692 -2.687826 6.303708 0
M  V30 36 H 1.920502 -2.231861 3.667712 0
M  V30 37 H 2.568848 -1.036287 1.695496 0
M  V30 38 H 6.149048 -0.692372 0.553211 0
M  V30 39 H 4.867824 1.779841 -3.078906 0
M  V30 40 H 2.469735 1.896545 -2.887983 0
M  V30 41 H -2.703893 -2.268175 0.211144 0
M  V30 42 H -4.195403 -2.234914 1.173770 0
M  V30 43 H -4.517294 -2.573797 -1.318018 0
M  V30 44 H -3.553512 -1.108044 -1.614790 0
M  V30 45 H -6.532621 -0.907894 0.820318 0
M  V30 46 H -6.575426 -2.272540 -0.288588 0
M  V30 47 H -8.629498 -1.605157 -0.904791 0
M  V30 48 H -8.478459 -0.109756 0.007735 0
M  V30 49 H -7.966426 -0.566352 -2.836107 0
M  V30 50 H -6.754070 1.601448 -1.201769 0
M  V30 51 H -6.915362 1.473264 -3.033086 0
M  V30 52 H -4.746455 0.754357 -2.253181 0
M  V30 53 H -5.698992 -0.556333 -3.069292 0
M  V30 54 H 0.491990 3.085215 -2.594566 0
M  V30 55 H 0.299065 1.562828 -3.662728 0
M  V30 56 H -1.061351 2.570446 -3.219808 0
M  V30 57 H 7.761045 -3.675416 3.136967 0
M  V30 58 H 8.943250 -2.271499 2.881932 0
M  V30 59 H 7.831550 -2.306426 4.262582 0
M  V30 60 H 5.943153 -3.154980 4.416606 0
M  V30 END ATOM
M  V30 BEGIN BOND
M  V30 1 1 1 2
M  V30 2 1 2 3
M  V30 3 2 3 4
M  V30 4 1 4 5
M  V30 5 2 5 6
M  V30 6 1 6 7
M  V30 7 1 7 8
M  V30 8 2 8 9
M  V30 9 1 9 10
M  V30 10 2 10 11
M  V30 11 1 11 12
M  V30 12 1 12 13
M  V30 13 1 13 14
M  V30 14 1 14 15
M  V30 15 1 15 16
M  V30 16 1 16 17
M  V30 17 1 17 18
M  V30 18 1 18 19
M  V30 19 1 19 20
M  V30 20 1 20 21
M  V30 21 1 21 22
M  V30 22 1 22 23
M  V30 23 1 23 24
M  V30 24 2 15 25
M  V30 25 1 25 26
M  V30 26 1 26 27
M  V30 27 2 12 28
M  V30 28 1 6 29
M  V30 29 1 29 30
M  V30 30 1 30 31
M  V30 31 2 29 32
M  V30 32 1 32 3
M  V30 33 1 28 8
M  V30 34 2 26 13
M  V30 35 1 24 19
M  V30 36 1 1 33
M  V30 37 1 1 34
M  V30 38 1 1 35
M  V30 39 1 4 36
M  V30 40 1 5 37
M  V30 41 1 7 38
M  V30 42 1 10 39
M  V30 43 1 11 40
M  V30 44 1 17 41
M  V30 45 1 17 42
M  V30 46 1 18 43
M  V30 47 1 18 44
M  V30 48 1 20 45
M  V30 49 1 20 46
M  V30 50 1 21 47
M  V30 51 1 21 48
M  V30 52 1 22 49
M  V30 53 1 23 50
M  V30 54 1 23 51
M  V30 55 1 24 52
M  V30 56 1 24 53
M  V30 57 1 27 54
M  V30 58 1 27 55
M  V30 59 1 27 56
M  V30 60 1 31 57
M  V30 61 1 31 58
M  V30 62 1 31 59
M  V30 63 1 32 60
M  V30 END BOND
M  V30 END CTAB
M  END
>  <Dataset>  (247) 
ChEMBL_Kinases

>  <Ligand_Instance>  (247) 
nan

>  <PDB_ID>  (247) 
nan

>  <Standardized_SMILES>  (247) 
COc1ccc(Nc2nccc(-c3sc(SCCN4CCNCC4)nc3C)n2)c(OC)c1

>  <Name>  (247) 
nan

>  <Pocket>  (247) 
nan

>  <ATP_Site>  (247) 
nan

>  <Peripheral>  (247) 
nan

>  <Num_H_Atoms_ProtBoundConf>  (247) 
nan

>  <Num_Resolved_Atoms>  (247) 
nan

>  <Num_Not_Resolved_Atoms>  (247) 
nan

$$$$
CHEMBL4788108
     RDKit          3D

  0  0  0  0  0  0  0  0  0  0999 V3000
M  V30 BEGIN CTAB
M  V30 COUNTS 89 94 0 0 0
M  V30 BEGIN ATOM
M  V30 1 C 2.937825 -6.335098 1.418835 0
M  V30 2 O 1.933838 -5.468590 0.956568 0
M  V30 3 C 1.991594 -4.068316 1.079170 0
M  V30 4 N 2.966518 -3.379646 1.629999 0
M  V30 5 C 2.992500 -2.200733 1.720954 0
M  V30 6 C 3.888831 -1.129458 2.252643 0
M  V30 7 C 5.065193 -1.506751 2.863208 0
M  V30 8 C 5.894397 -0.498482 3.346308 0
M  V30 9 N 5.558875 0.785108 3.220679 0
M  V30 10 C 4.417700 1.182050 2.629823 0
M  V30 11 N 4.092223 2.582946 2.508034 0
M  V30 12 C 4.524151 3.270208 1.314380 0
M  V30 13 O 5.156053 2.567842 0.476306 0
M  V30 14 C 4.192571 4.702275 1.187293 0
M  V30 15 C 3.719716 5.090570 -0.240485 0
M  V30 16 C 5.036538 5.517096 0.284748 0
M  V30 17 C 3.569339 0.200867 2.137852 0
M  V30 18 S 1.353889 -1.690837 0.905175 0
M  V30 19 C 0.863266 -3.453093 0.534484 0
M  V30 20 C -0.342104 -3.640384 -0.089865 0
M  V30 21 O -1.062213 -2.623900 -0.381053 0
M  V30 22 N -0.925888 -4.870767 -0.475504 0
M  V30 23 C -2.161635 -5.148958 -1.129637 0
M  V30 24 C -2.359224 -4.634157 -2.511123 0
M  V30 25 C -1.439026 -5.134034 -3.552550 0
M  V30 26 C 0.000856 -4.838854 -3.461987 0
M  V30 27 C 0.420688 -3.417455 -3.552380 0
M  V30 28 C 0.021706 -2.795872 -4.902306 0
M  V30 29 N 0.447704 -1.395373 -4.930492 0
M  V30 30 C -0.196666 -0.666514 -3.927662 0
M  V30 31 O -1.034349 -0.836298 -3.010707 0
M  V30 32 C -0.222827 0.726547 -3.414442 0
M  V30 33 O -1.125408 0.847762 -2.329700 0
M  V30 34 C -1.344214 2.026871 -1.654981 0
M  V30 35 C -0.708108 3.212080 -1.951858 0
M  V30 36 C -0.998999 4.352540 -1.207470 0
M  V30 37 C -1.924373 4.289694 -0.174832 0
M  V30 38 C -2.563085 3.084696 0.117866 0
M  V30 39 C -2.277647 1.933444 -0.624014 0
M  V30 40 C -3.117360 0.888362 -0.052895 0
M  V30 41 O -3.094342 -0.296586 -0.510204 0
M  V30 42 N -3.905840 1.387912 1.021790 0
M  V30 43 C -4.836430 0.568660 1.771807 0
M  V30 44 C -4.524692 0.637868 3.230133 0
M  V30 45 C -5.520528 -0.082950 4.104074 0
M  V30 46 C -6.881773 0.359880 3.697925 0
M  V30 47 O -7.776809 0.236364 4.556641 0
M  V30 48 N -7.261269 0.904731 2.440899 0
M  V30 49 C -6.219732 1.062512 1.478143 0
M  V30 50 O -6.445714 1.615932 0.373394 0
M  V30 51 C -3.574950 2.767355 1.148657 0
M  V30 52 O -4.090448 3.508751 2.002269 0
M  V30 53 H 2.729312 -6.735656 2.432144 0
M  V30 54 H 3.019663 -7.176038 0.693860 0
M  V30 55 H 3.908230 -5.800312 1.351268 0
M  V30 56 H 5.254025 -2.562825 2.920698 0
M  V30 57 H 6.794692 -0.851917 3.812071 0
M  V30 58 H 3.554064 3.108953 3.258457 0
M  V30 59 H 3.646381 5.211895 2.010002 0
M  V30 60 H 3.648773 4.292442 -0.988802 0
M  V30 61 H 2.944171 5.897709 -0.275901 0
M  V30 62 H 5.943440 5.047039 -0.193788 0
M  V30 63 H 5.211780 6.609124 0.468051 0
M  V30 64 H 2.662144 0.492401 1.667569 0
M  V30 65 H -0.290848 -5.686034 -0.206668 0
M  V30 66 H -2.335703 -6.252056 -1.122385 0
M  V30 67 H -2.965906 -4.763709 -0.426486 0
M  V30 68 H -2.449047 -3.526491 -2.473540 0
M  V30 69 H -3.396678 -4.965390 -2.819018 0
M  V30 70 H -1.846752 -4.849799 -4.572953 0
M  V30 71 H -1.536599 -6.267085 -3.572136 0
M  V30 72 H 0.494282 -5.364667 -4.336797 0
M  V30 73 H 0.508733 -5.283393 -2.578683 0
M  V30 74 H 1.555154 -3.440481 -3.621440 0
M  V30 75 H 0.206563 -2.760051 -2.728721 0
M  V30 76 H 0.557530 -3.271890 -5.743741 0
M  V30 77 H -1.065672 -2.886816 -5.057667 0
M  V30 78 H 1.055084 -0.724959 -5.418065 0
M  V30 79 H 0.784683 1.081117 -3.094475 0
M  V30 80 H -0.586799 1.366864 -4.241879 0
M  V30 81 H 0.016973 3.226565 -2.773334 0
M  V30 82 H -0.481131 5.279886 -1.461698 0
M  V30 83 H -2.156555 5.174634 0.410909 0
M  V30 84 H -4.796020 -0.460652 1.352218 0
M  V30 85 H -3.494367 0.236941 3.363259 0
M  V30 86 H -4.530475 1.690733 3.550617 0
M  V30 87 H -5.284483 0.193741 5.152803 0
M  V30 88 H -5.368052 -1.180241 3.937013 0
M  V30 89 H -8.240329 1.173241 2.233871 0
M  V30 END ATOM
M  V30 BEGIN BOND
M  V30 1 1 1 2
M  V30 2 1 2 3
M  V30 3 1 3 4
M  V30 4 2 4 5
M  V30 5 1 5 6
M  V30 6 2 6 7
M  V30 7 1 7 8
M  V30 8 2 8 9
M  V30 9 1 9 10
M  V30 10 1 10 11
M  V30 11 1 11 12
M  V30 12 2 12 13
M  V30 13 1 12 14
M  V30 14 1 14 15
M  V30 15 1 15 16
M  V30 16 2 10 17
M  V30 17 1 5 18
M  V30 18 1 18 19
M  V30 19 1 19 20
M  V30 20 2 20 21
M  V30 21 1 20 22
M  V30 22 1 22 23
M  V30 23 1 23 24
M  V30 24 1 24 25
M  V30 25 1 25 26
M  V30 26 1 26 27
M  V30 27 1 27 28
M  V30 28 1 28 29
M  V30 29 1 29 30
M  V30 30 2 30 31
M  V30 31 1 30 32
M  V30 32 1 32 33
M  V30 33 1 33 34
M  V30 34 2 34 35
M  V30 35 1 35 36
M  V30 36 2 36 37
M  V30 37 1 37 38
M  V30 38 2 38 39
M  V30 39 1 39 40
M  V30 40 2 40 41
M  V30 41 1 40 42
M  V30 42 1 42 43
M  V30 43 1 43 44
M  V30 44 1 44 45
M  V30 45 1 45 46
M  V30 46 2 46 47
M  V30 47 1 46 48
M  V30 48 1 48 49
M  V30 49 2 49 50
M  V30 50 1 42 51
M  V30 51 2 51 52
M  V30 52 2 19 3
M  V30 53 1 39 34
M  V30 54 1 49 43
M  V30 55 1 17 6
M  V30 56 1 51 38
M  V30 57 1 16 14
M  V30 58 1 1 53
M  V30 59 1 1 54
M  V30 60 1 1 55
M  V30 61 1 7 56
M  V30 62 1 8 57
M  V30 63 1 11 58
M  V30 64 1 14 59
M  V30 65 1 15 60
M  V30 66 1 15 61
M  V30 67 1 16 62
M  V30 68 1 16 63
M  V30 69 1 17 64
M  V30 70 1 22 65
M  V30 71 1 23 66
M  V30 72 1 23 67
M  V30 73 1 24 68
M  V30 74 1 24 69
M  V30 75 1 25 70
M  V30 76 1 25 71
M  V30 77 1 26 72
M  V30 78 1 26 73
M  V30 79 1 27 74
M  V30 80 1 27 75
M  V30 81 1 28 76
M  V30 82 1 28 77
M  V30 83 1 29 78
M  V30 84 1 32 79
M  V30 85 1 32 80
M  V30 86 1 35 81
M  V30 87 1 36 82
M  V30 88 1 37 83
M  V30 89 1 43 84
M  V30 90 1 44 85
M  V30 91 1 44 86
M  V30 92 1 45 87
M  V30 93 1 45 88
M  V30 94 1 48 89
M  V30 END BOND
M  V30 END CTAB
M  END
>  <Dataset>  (248) 
ChEMBL_Kinases

>  <Ligand_Instance>  (248) 
nan

>  <PDB_ID>  (248) 
nan

>  <Standardized_SMILES>  (248) 
COc1nc(-c2ccnc(NC(=O)C3CC3)c2)sc1C(=O)NCCCCCCNC(=O)COc1cccc2c1C(=O)N(C1CCC(=O)NC1=O)C2=O

>  <Name>  (248) 
nan

>  <Pocket>  (248) 
nan

>  <ATP_Site>  (248) 
nan

>  <Peripheral>  (248) 
nan

>  <Num_H_Atoms_ProtBoundConf>  (248) 
nan

>  <Num_Resolved_Atoms>  (248) 
nan

>  <Num_Not_Resolved_Atoms>  (248) 
nan

$$$$
CHEMBL4787266
     RDKit          3D

  0  0  0  0  0  0  0  0  0  0999 V3000
M  V30 BEGIN CTAB
M  V30 COUNTS 35 37 0 0 0
M  V30 BEGIN ATOM
M  V30 1 C -1.434077 -6.597516 1.975710 0
M  V30 2 C -0.295403 -6.051226 1.571746 0
M  V30 3 C -0.061833 -4.643010 1.837796 0
M  V30 4 O -0.868065 -3.896921 2.429165 0
M  V30 5 N 1.133998 -3.993013 1.433588 0
M  V30 6 C 1.415570 -2.599386 1.672500 0
M  V30 7 C 2.048211 -2.076369 2.782347 0
M  V30 8 C 2.244249 -0.712679 2.862608 0
M  V30 9 C 1.811049 0.129022 1.839387 0
M  V30 10 C 1.177438 -0.413567 0.731996 0
M  V30 11 C 0.711411 0.442812 -0.358487 0
M  V30 12 N 0.910072 0.148913 -1.669635 0
M  V30 13 N 0.389994 1.086849 -2.432871 0
M  V30 14 C -0.179607 2.050425 -1.682187 0
M  V30 15 C -0.858365 3.243484 -1.897258 0
M  V30 16 C -1.321044 4.007708 -0.820495 0
M  V30 17 N -2.013211 5.225174 -1.057610 0 CHG=1 VAL=4
M  V30 18 O -2.203947 5.604944 -2.228249 0
M  V30 19 O -2.440721 5.926697 0.056517 0 CHG=-1 VAL=1
M  V30 20 C -1.095651 3.562810 0.465830 0
M  V30 21 C -0.424529 2.382940 0.684293 0
M  V30 22 C 0.025650 1.640072 -0.380480 0
M  V30 23 C 0.964398 -1.793262 0.622362 0
M  V30 24 H -1.697192 -5.631857 2.362934 0
M  V30 25 H -1.575900 -7.667321 1.756415 0
M  V30 26 H 0.465001 -6.607373 1.054115 0
M  V30 27 H 1.890673 -4.498569 0.930985 0
M  V30 28 H 2.354254 -2.793779 3.532156 0
M  V30 29 H 2.738311 -0.318101 3.732446 0
M  V30 30 H 1.966301 1.212427 1.902247 0
M  V30 31 H 0.394226 1.121585 -3.486293 0
M  V30 32 H -1.010198 3.549894 -2.933306 0
M  V30 33 H -1.462809 4.169940 1.304926 0
M  V30 34 H -0.270530 2.073749 1.695689 0
M  V30 35 H 0.466440 -2.156952 -0.261598 0
M  V30 END ATOM
M  V30 BEGIN BOND
M  V30 1 2 1 2
M  V30 2 1 2 3
M  V30 3 2 3 4
M  V30 4 1 3 5
M  V30 5 1 5 6
M  V30 6 2 6 7
M  V30 7 1 7 8
M  V30 8 2 8 9
M  V30 9 1 9 10
M  V30 10 1 10 11
M  V30 11 2 11 12
M  V30 12 1 12 13
M  V30 13 1 13 14
M  V30 14 2 14 15
M  V30 15 1 15 16
M  V30 16 1 16 17
M  V30 17 2 17 18
M  V30 18 1 17 19
M  V30 19 2 16 20
M  V30 20 1 20 21
M  V30 21 2 21 22
M  V30 22 2 10 23
M  V30 23 1 23 6
M  V30 24 1 22 11
M  V30 25 1 22 14
M  V30 26 1 1 24
M  V30 27 1 1 25
M  V30 28 1 2 26
M  V30 29 1 5 27
M  V30 30 1 7 28
M  V30 31 1 8 29
M  V30 32 1 9 30
M  V30 33 1 13 31
M  V30 34 1 15 32
M  V30 35 1 20 33
M  V30 36 1 21 34
M  V30 37 1 23 35
M  V30 END BOND
M  V30 END CTAB
M  END
>  <Dataset>  (249) 
ChEMBL_Kinases

>  <Ligand_Instance>  (249) 
nan

>  <PDB_ID>  (249) 
nan

>  <Standardized_SMILES>  (249) 
C=CC(=O)Nc1cccc(-c2n[nH]c3cc([N+](=O)[O-])ccc23)c1

>  <Name>  (249) 
nan

>  <Pocket>  (249) 
nan

>  <ATP_Site>  (249) 
nan

>  <Peripheral>  (249) 
nan

>  <Num_H_Atoms_ProtBoundConf>  (249) 
nan

>  <Num_Resolved_Atoms>  (249) 
nan

>  <Num_Not_Resolved_Atoms>  (249) 
nan

$$$$
CHEMBL4165173
     RDKit          3D

  0  0  0  0  0  0  0  0  0  0999 V3000
M  V30 BEGIN CTAB
M  V30 COUNTS 37 39 0 0 0
M  V30 BEGIN ATOM
M  V30 1 C -0.139847 -6.060196 3.015350 0
M  V30 2 C 0.249682 -4.689483 2.594984 0
M  V30 3 C 0.002704 -4.321263 1.291411 0
M  V30 4 C 0.396060 -3.038407 0.996545 0
M  V30 5 C 0.988705 -2.074879 1.783995 0
M  V30 6 C 1.333039 -0.733821 1.425824 0
M  V30 7 O 2.350907 -0.393917 2.103398 0
M  V30 8 C 0.851070 0.289883 0.535402 0
M  V30 9 C 1.669332 1.400242 0.292146 0
M  V30 10 N 2.986286 1.818298 0.721041 0
M  V30 11 C 0.943289 2.220710 -0.576428 0
M  V30 12 C 1.392458 3.498369 -1.113673 0
M  V30 13 N 0.580632 4.258778 -1.992346 0
M  V30 14 O 2.501195 4.024780 -0.856916 0
M  V30 15 C -0.274782 1.652538 -0.863923 0
M  V30 16 C -1.349744 2.034374 -1.632105 0
M  V30 17 C -2.496056 1.247618 -1.730259 0
M  V30 18 C -2.471581 0.067731 -1.005030 0
M  V30 19 C -1.369511 -0.244401 -0.266010 0
M  V30 20 N -0.266963 0.505827 -0.170118 0
M  V30 21 C 1.187133 -2.567587 3.078649 0
M  V30 22 C 0.836898 -3.829203 3.491955 0
M  V30 23 H -1.249259 -6.194846 2.913010 0
M  V30 24 H 0.137005 -6.201548 4.078033 0
M  V30 25 H 0.410576 -6.766352 2.372538 0
M  V30 26 H -0.455086 -4.960608 0.551114 0
M  V30 27 H 0.213004 -2.746680 -0.053506 0
M  V30 28 H 3.745560 2.036111 0.068361 0
M  V30 29 H 3.257504 1.927947 1.726778 0
M  V30 30 H 0.546693 4.347231 -3.020253 0
M  V30 31 H -0.078672 4.799347 -1.363746 0
M  V30 32 H -1.368948 2.939142 -2.187986 0
M  V30 33 H -3.326957 1.557737 -2.333821 0
M  V30 34 H -3.365056 -0.567397 -1.067446 0
M  V30 35 H -1.456859 -1.146742 0.265933 0
M  V30 36 H 1.654162 -1.918362 3.836078 0
M  V30 37 H 1.033076 -4.127391 4.533990 0
M  V30 END ATOM
M  V30 BEGIN BOND
M  V30 1 1 1 2
M  V30 2 2 2 3
M  V30 3 1 3 4
M  V30 4 2 4 5
M  V30 5 1 5 6
M  V30 6 2 6 7
M  V30 7 1 6 8
M  V30 8 2 8 9
M  V30 9 1 9 10
M  V30 10 1 9 11
M  V30 11 1 11 12
M  V30 12 1 12 13
M  V30 13 2 12 14
M  V30 14 2 11 15
M  V30 15 1 15 16
M  V30 16 2 16 17
M  V30 17 1 17 18
M  V30 18 2 18 19
M  V30 19 1 19 20
M  V30 20 1 5 21
M  V30 21 2 21 22
M  V30 22 1 22 2
M  V30 23 1 20 8
M  V30 24 1 20 15
M  V30 25 1 1 23
M  V30 26 1 1 24
M  V30 27 1 1 25
M  V30 28 1 3 26
M  V30 29 1 4 27
M  V30 30 1 10 28
M  V30 31 1 10 29
M  V30 32 1 13 30
M  V30 33 1 13 31
M  V30 34 1 16 32
M  V30 35 1 17 33
M  V30 36 1 18 34
M  V30 37 1 19 35
M  V30 38 1 21 36
M  V30 39 1 22 37
M  V30 END BOND
M  V30 END CTAB
M  END
>  <Dataset>  (250) 
ChEMBL_Kinases

>  <Ligand_Instance>  (250) 
nan

>  <PDB_ID>  (250) 
nan

>  <Standardized_SMILES>  (250) 
Cc1ccc(C(=O)c2c(N)c(C(N)=O)c3ccccn23)cc1

>  <Name>  (250) 
nan

>  <Pocket>  (250) 
nan

>  <ATP_Site>  (250) 
nan

>  <Peripheral>  (250) 
nan

>  <Num_H_Atoms_ProtBoundConf>  (250) 
nan

>  <Num_Resolved_Atoms>  (250) 
nan

>  <Num_Not_Resolved_Atoms>  (250) 
nan

$$$$
CHEMBL4787309
     RDKit          3D

  0  0  0  0  0  0  0  0  0  0999 V3000
M  V30 BEGIN CTAB
M  V30 COUNTS 53 56 0 0 0
M  V30 BEGIN ATOM
M  V30 1 C 2.486355 -4.539442 2.987307 0
M  V30 2 C 3.488213 -3.724942 2.250855 0
M  V30 3 O 4.278745 -4.456764 1.587990 0
M  V30 4 N 3.590271 -2.296155 2.255719 0
M  V30 5 C 4.635967 -1.690669 1.472423 0 CFG=2
M  V30 6 C 5.561264 -0.792084 2.211215 0
M  V30 7 C 5.027626 0.577565 2.430783 0
M  V30 8 C 3.574703 0.775971 2.175404 0
M  V30 9 C 3.098197 0.218474 0.879179 0 CFG=2
M  V30 10 C 1.739402 -0.320323 0.915054 0
M  V30 11 O 1.222514 -1.468877 0.693097 0
M  V30 12 N 0.659494 0.553587 1.268666 0
M  V30 13 C -0.629708 -0.096603 1.267826 0
M  V30 14 C -1.361169 -0.102168 0.104875 0
M  V30 15 C -2.611295 -0.723226 0.073623 0
M  V30 16 C -3.476845 -0.793994 -1.098841 0
M  V30 17 C -3.542388 -1.754317 -2.104051 0
M  V30 18 N -4.509614 -1.379254 -2.979152 0
M  V30 19 N -5.052942 -0.255516 -2.594554 0
M  V30 20 C -4.445378 0.125891 -1.452744 0
M  V30 21 C -4.947331 1.394048 -0.876013 0
M  V30 22 O -6.336033 1.260302 -0.809906 0
M  V30 23 C -6.939300 1.225539 -2.051521 0
M  V30 24 C -6.117129 0.602726 -3.130088 0
M  V30 25 C -3.074934 -1.323094 1.244118 0
M  V30 26 Cl -4.647530 -2.117065 1.245072 0
M  V30 27 C -2.306154 -1.299563 2.409876 0
M  V30 28 N -1.092087 -0.684027 2.400603 0
M  V30 29 C 4.015820 -0.883687 0.352365 0
M  V30 30 H 1.940801 -3.922730 3.745317 0
M  V30 31 H 1.744424 -5.028993 2.349126 0
M  V30 32 H 3.035433 -5.310786 3.560276 0
M  V30 33 H 2.840315 -1.913701 2.866637 0
M  V30 34 H 5.208275 -2.513377 0.987693 0
M  V30 35 H 6.477440 -0.695301 1.554699 0
M  V30 36 H 5.976945 -1.257055 3.144105 0
M  V30 37 H 5.570305 1.350565 1.810081 0
M  V30 38 H 5.209697 0.945315 3.483835 0
M  V30 39 H 2.953481 0.463682 3.066911 0
M  V30 40 H 3.407303 1.888856 2.157720 0
M  V30 41 H 3.095850 1.056061 0.121164 0
M  V30 42 H 0.765837 1.581533 1.512018 0
M  V30 43 H -1.041369 0.343644 -0.804950 0
M  V30 44 H -2.908758 -2.641117 -2.145803 0
M  V30 45 H -4.689116 2.264760 -1.526233 0
M  V30 46 H -4.570140 1.619832 0.122540 0
M  V30 47 H -7.222709 2.270618 -2.338139 0
M  V30 48 H -7.881192 0.640911 -1.936776 0
M  V30 49 H -6.718928 0.038265 -3.883510 0
M  V30 50 H -5.598533 1.429200 -3.667183 0
M  V30 51 H -2.673294 -1.767931 3.315415 0
M  V30 52 H 4.873796 -0.376446 -0.164274 0
M  V30 53 H 3.501465 -1.512122 -0.392243 0
M  V30 END ATOM
M  V30 BEGIN BOND
M  V30 1 1 1 2
M  V30 2 2 2 3
M  V30 3 1 2 4
M  V30 4 1 4 5
M  V30 5 1 5 6
M  V30 6 1 6 7
M  V30 7 1 7 8
M  V30 8 1 8 9
M  V30 9 1 9 10
M  V30 10 2 10 11
M  V30 11 1 10 12
M  V30 12 1 12 13
M  V30 13 2 13 14
M  V30 14 1 14 15
M  V30 15 1 15 16
M  V30 16 1 16 17
M  V30 17 2 17 18
M  V30 18 1 18 19
M  V30 19 1 19 20
M  V30 20 1 20 21
M  V30 21 1 21 22
M  V30 22 1 22 23
M  V30 23 1 23 24
M  V30 24 2 15 25
M  V30 25 1 25 26
M  V30 26 1 25 27
M  V30 27 2 27 28
M  V30 28 1 9 29
M  V30 29 1 29 5
M  V30 30 1 28 13
M  V30 31 2 20 16
M  V30 32 1 24 19
M  V30 33 1 1 30
M  V30 34 1 1 31
M  V30 35 1 1 32
M  V30 36 1 4 33
M  V30 37 1 5 34 CFG=3
M  V30 38 1 6 35
M  V30 39 1 6 36
M  V30 40 1 7 37
M  V30 41 1 7 38
M  V30 42 1 8 39
M  V30 43 1 8 40
M  V30 44 1 9 41 CFG=3
M  V30 45 1 12 42
M  V30 46 1 14 43
M  V30 47 1 17 44
M  V30 48 1 21 45
M  V30 49 1 21 46
M  V30 50 1 23 47
M  V30 51 1 23 48
M  V30 52 1 24 49
M  V30 53 1 24 50
M  V30 54 1 27 51
M  V30 55 1 29 52
M  V30 56 1 29 53
M  V30 END BOND
M  V30 END CTAB
M  END
>  <Dataset>  (251) 
ChEMBL_Kinases

>  <Ligand_Instance>  (251) 
nan

>  <PDB_ID>  (251) 
nan

>  <Standardized_SMILES>  (251) 
CC(=O)N[C@@H]1CCC[C@H](C(=O)Nc2cc(-c3cnn4c3COCC4)c(Cl)cn2)C1

>  <Name>  (251) 
nan

>  <Pocket>  (251) 
nan

>  <ATP_Site>  (251) 
nan

>  <Peripheral>  (251) 
nan

>  <Num_H_Atoms_ProtBoundConf>  (251) 
nan

>  <Num_Resolved_Atoms>  (251) 
nan

>  <Num_Not_Resolved_Atoms>  (251) 
nan

$$$$
CHEMBL4787335
     RDKit          3D

  0  0  0  0  0  0  0  0  0  0999 V3000
M  V30 BEGIN CTAB
M  V30 COUNTS 49 52 0 0 0
M  V30 BEGIN ATOM
M  V30 1 C 1.418591 -3.772114 2.660782 0
M  V30 2 N 0.280641 -4.072060 1.832247 0
M  V30 3 C 0.042704 -3.521032 0.630886 0
M  V30 4 C -1.142214 -4.017082 0.076633 0
M  V30 5 C -1.952947 -3.847502 -1.134925 0
M  V30 6 O -2.985914 -2.912451 -1.042187 0
M  V30 7 C -2.885534 -1.573845 -0.792649 0
M  V30 8 C -1.911892 -0.630215 -0.555408 0
M  V30 9 C -2.249188 0.687790 -0.339766 0
M  V30 10 C -1.099745 1.555695 -0.103208 0
M  V30 11 C -0.980360 2.908746 -0.437017 0
M  V30 12 N 0.232440 3.373035 -0.058821 0
M  V30 13 N 0.905429 2.360323 0.511584 0
M  V30 14 C 2.228897 2.215443 1.109463 0
M  V30 15 C 2.054145 1.549552 2.460056 0
M  V30 16 C 3.398932 1.506775 3.150556 0
M  V30 17 N 4.443931 1.095143 2.246591 0
M  V30 18 C 3.942331 0.373073 1.105586 0
M  V30 19 C 3.038546 1.226476 0.271080 0
M  V30 20 C 0.114569 1.249815 0.494139 0
M  V30 21 C -3.544734 1.128234 -0.348702 0
M  V30 22 N -4.522962 0.228093 -0.578680 0
M  V30 23 C -4.208039 -1.087651 -0.795268 0
M  V30 24 N -5.453051 -1.790237 -1.007681 0
M  V30 25 C -1.537403 -4.900747 1.094375 0
M  V30 26 N -0.674845 -4.923123 2.140520 0
M  V30 27 H 2.136458 -3.092515 2.181710 0
M  V30 28 H 1.111231 -3.253126 3.611092 0
M  V30 29 H 1.992150 -4.680784 2.932050 0
M  V30 30 H 0.595348 -2.792397 0.047627 0
M  V30 31 H -2.400456 -4.852610 -1.387355 0
M  V30 32 H -1.276488 -3.645429 -2.004822 0
M  V30 33 H -0.960170 -1.124081 -0.585195 0
M  V30 34 H -1.733315 3.520146 -0.927020 0
M  V30 35 H 2.715292 3.190959 1.143241 0
M  V30 36 H 1.312896 2.065174 3.078991 0
M  V30 37 H 1.760406 0.484926 2.227641 0
M  V30 38 H 3.624674 2.534657 3.492448 0
M  V30 39 H 3.413054 0.777958 3.993726 0
M  V30 40 H 5.049561 1.868614 1.940464 0
M  V30 41 H 3.459149 -0.579485 1.445015 0
M  V30 42 H 4.850208 0.140267 0.476721 0
M  V30 43 H 2.273017 0.521650 -0.168900 0
M  V30 44 H 3.520198 1.704070 -0.590396 0
M  V30 45 H 0.277267 0.241422 0.848625 0
M  V30 46 H -3.686677 2.182930 -0.167397 0
M  V30 47 H -5.957960 -2.172487 -0.175897 0
M  V30 48 H -6.006501 -2.020988 -1.873735 0
M  V30 49 H -2.428771 -5.536455 1.116779 0
M  V30 END ATOM
M  V30 BEGIN BOND
M  V30 1 1 1 2
M  V30 2 1 2 3
M  V30 3 2 3 4
M  V30 4 1 4 5
M  V30 5 1 5 6
M  V30 6 1 6 7
M  V30 7 2 7 8
M  V30 8 1 8 9
M  V30 9 1 9 10
M  V30 10 1 10 11
M  V30 11 2 11 12
M  V30 12 1 12 13
M  V30 13 1 13 14
M  V30 14 1 14 15
M  V30 15 1 15 16
M  V30 16 1 16 17
M  V30 17 1 17 18
M  V30 18 1 18 19
M  V30 19 1 13 20
M  V30 20 2 9 21
M  V30 21 1 21 22
M  V30 22 2 22 23
M  V30 23 1 23 24
M  V30 24 1 4 25
M  V30 25 2 25 26
M  V30 26 1 26 2
M  V30 27 1 23 7
M  V30 28 2 20 10
M  V30 29 1 19 14
M  V30 30 1 1 27
M  V30 31 1 1 28
M  V30 32 1 1 29
M  V30 33 1 3 30
M  V30 34 1 5 31
M  V30 35 1 5 32
M  V30 36 1 8 33
M  V30 37 1 11 34
M  V30 38 1 14 35
M  V30 39 1 15 36
M  V30 40 1 15 37
M  V30 41 1 16 38
M  V30 42 1 16 39
M  V30 43 1 17 40
M  V30 44 1 18 41
M  V30 45 1 18 42
M  V30 46 1 19 43
M  V30 47 1 19 44
M  V30 48 1 20 45
M  V30 49 1 21 46
M  V30 50 1 24 47
M  V30 51 1 24 48
M  V30 52 1 25 49
M  V30 END BOND
M  V30 END CTAB
M  END
>  <Dataset>  (252) 
ChEMBL_Kinases

>  <Ligand_Instance>  (252) 
nan

>  <PDB_ID>  (252) 
nan

>  <Standardized_SMILES>  (252) 
Cn1cc(COc2cc(-c3cnn(C4CCNCC4)c3)cnc2N)cn1

>  <Name>  (252) 
nan

>  <Pocket>  (252) 
nan

>  <ATP_Site>  (252) 
nan

>  <Peripheral>  (252) 
nan

>  <Num_H_Atoms_ProtBoundConf>  (252) 
nan

>  <Num_Resolved_Atoms>  (252) 
nan

>  <Num_Not_Resolved_Atoms>  (252) 
nan

$$$$
CHEMBL4165021
     RDKit          3D

  0  0  0  0  0  0  0  0  0  0999 V3000
M  V30 BEGIN CTAB
M  V30 COUNTS 69 73 0 0 0
M  V30 BEGIN ATOM
M  V30 1 C 7.125998 -2.021863 3.745724 0
M  V30 2 C 5.942470 -1.829447 4.643833 0
M  V30 3 C 5.869729 -0.447697 5.215302 0
M  V30 4 C 4.638144 -2.125050 3.938468 0
M  V30 5 C 4.412957 -1.249957 2.754379 0
M  V30 6 C 4.899847 -1.713251 1.526143 0
M  V30 7 C 4.732499 -0.962691 0.379500 0
M  V30 8 C 4.087034 0.254380 0.408413 0
M  V30 9 C 3.605618 0.714613 1.617238 0
M  V30 10 N 2.905871 1.941598 1.892914 0
M  V30 11 C 1.466836 1.935281 1.803281 0
M  V30 12 O 0.925190 0.828382 1.482888 0
M  V30 13 N 0.587100 3.026164 2.032583 0
M  V30 14 C -0.807755 2.696724 1.861764 0
M  V30 15 C -1.534859 2.241707 2.938780 0
M  V30 16 C -2.864498 1.936530 2.736230 0
M  V30 17 C -3.505860 2.065709 1.499088 0
M  V30 18 C -4.925121 1.685403 1.534182 0
M  V30 19 C -5.183486 0.230803 1.281147 0
M  V30 20 N -4.740262 -0.260865 0.009400 0
M  V30 21 C -4.937010 -1.635419 -0.311921 0
M  V30 22 N -5.531420 -2.442477 0.579504 0
M  V30 23 C -5.703249 -3.731716 0.250624 0
M  V30 24 N -5.298009 -4.244230 -0.947426 0
M  V30 25 C -4.696141 -3.434986 -1.854444 0
M  V30 26 O -4.219274 -3.655010 -3.051446 0
M  V30 27 C -3.719033 -2.566073 -3.574139 0
M  V30 28 C -3.139541 -2.605761 -4.902343 0
M  V30 29 C -3.108374 -3.773143 -5.619542 0
M  V30 30 C -2.566285 -3.870745 -6.895681 0
M  V30 31 C -2.022349 -2.767537 -7.510542 0
M  V30 32 C -2.034992 -1.581501 -6.824841 0
M  V30 33 C -2.583868 -1.536966 -5.562776 0
M  V30 34 C -3.896028 -1.597875 -2.637461 0
M  V30 35 Cl -3.395024 0.058377 -2.846550 0
M  V30 36 C -4.516679 -2.111014 -1.523520 0
M  V30 37 C -2.732426 2.524888 0.456614 0
M  V30 38 C -1.401448 2.838722 0.624590 0
M  V30 39 C 3.767376 -0.029994 2.776237 0
M  V30 40 H 7.298564 -1.174883 3.056831 0
M  V30 41 H 6.977422 -2.976592 3.204749 0
M  V30 42 H 8.020272 -2.137328 4.385680 0
M  V30 43 H 6.014669 -2.572879 5.464169 0
M  V30 44 H 6.035170 0.279885 4.386059 0
M  V30 45 H 4.871436 -0.235458 5.629888 0
M  V30 46 H 6.617108 -0.286786 6.026701 0
M  V30 47 H 3.816798 -2.063213 4.681582 0
M  V30 48 H 4.602987 -3.191860 3.582774 0
M  V30 49 H 5.427342 -2.662689 1.382393 0
M  V30 50 H 5.093336 -1.279651 -0.600678 0
M  V30 51 H 3.894882 0.929727 -0.413842 0
M  V30 52 H 3.264267 2.895559 2.162414 0
M  V30 53 H 1.071276 3.920750 2.294386 0
M  V30 54 H -1.052566 2.136866 3.901001 0
M  V30 55 H -3.372156 1.580261 3.647104 0
M  V30 56 H -5.400577 1.958987 2.501101 0
M  V30 57 H -5.473116 2.306044 0.773519 0
M  V30 58 H -6.270429 -0.013227 1.366147 0
M  V30 59 H -4.698812 -0.353918 2.114269 0
M  V30 60 H -4.302435 0.477980 -0.568404 0
M  V30 61 H -6.179465 -4.449954 0.925201 0
M  V30 62 H -3.512734 -4.718335 -5.231742 0
M  V30 63 H -2.561851 -4.821907 -7.432772 0
M  V30 64 H -1.613487 -2.894079 -8.502392 0
M  V30 65 H -1.612156 -0.721669 -7.301674 0
M  V30 66 H -2.551104 -0.571666 -5.102007 0
M  V30 67 H -3.269289 2.612594 -0.476478 0
M  V30 68 H -0.857299 3.196260 -0.251323 0
M  V30 69 H 3.427103 0.241393 3.773473 0
M  V30 END ATOM
M  V30 BEGIN BOND
M  V30 1 1 1 2
M  V30 2 1 2 3
M  V30 3 1 2 4
M  V30 4 1 4 5
M  V30 5 2 5 6
M  V30 6 1 6 7
M  V30 7 2 7 8
M  V30 8 1 8 9
M  V30 9 1 9 10
M  V30 10 1 10 11
M  V30 11 2 11 12
M  V30 12 1 11 13
M  V30 13 1 13 14
M  V30 14 2 14 15
M  V30 15 1 15 16
M  V30 16 2 16 17
M  V30 17 1 17 18
M  V30 18 1 18 19
M  V30 19 1 19 20
M  V30 20 1 20 21
M  V30 21 2 21 22
M  V30 22 1 22 23
M  V30 23 2 23 24
M  V30 24 1 24 25
M  V30 25 1 25 26
M  V30 26 1 26 27
M  V30 27 1 27 28
M  V30 28 2 28 29
M  V30 29 1 29 30
M  V30 30 2 30 31
M  V30 31 1 31 32
M  V30 32 2 32 33
M  V30 33 2 27 34
M  V30 34 1 34 35
M  V30 35 1 34 36
M  V30 36 1 17 37
M  V30 37 2 37 38
M  V30 38 2 9 39
M  V30 39 1 39 5
M  V30 40 1 38 14
M  V30 41 1 36 21
M  V30 42 2 36 25
M  V30 43 1 33 28
M  V30 44 1 1 40
M  V30 45 1 1 41
M  V30 46 1 1 42
M  V30 47 1 2 43
M  V30 48 1 3 44
M  V30 49 1 3 45
M  V30 50 1 3 46
M  V30 51 1 4 47
M  V30 52 1 4 48
M  V30 53 1 6 49
M  V30 54 1 7 50
M  V30 55 1 8 51
M  V30 56 1 10 52
M  V30 57 1 13 53
M  V30 58 1 15 54
M  V30 59 1 16 55
M  V30 60 1 18 56
M  V30 61 1 18 57
M  V30 62 1 19 58
M  V30 63 1 19 59
M  V30 64 1 20 60
M  V30 65 1 23 61
M  V30 66 1 29 62
M  V30 67 1 30 63
M  V30 68 1 31 64
M  V30 69 1 32 65
M  V30 70 1 33 66
M  V30 71 1 37 67
M  V30 72 1 38 68
M  V30 73 1 39 69
M  V30 END BOND
M  V30 END CTAB
M  END
>  <Dataset>  (253) 
ChEMBL_Kinases

>  <Ligand_Instance>  (253) 
nan

>  <PDB_ID>  (253) 
nan

>  <Standardized_SMILES>  (253) 
CC(C)Cc1cccc(NC(=O)Nc2ccc(CCNc3ncnc4oc(-c5ccccc5)c(Cl)c34)cc2)c1

>  <Name>  (253) 
nan

>  <Pocket>  (253) 
nan

>  <ATP_Site>  (253) 
nan

>  <Peripheral>  (253) 
nan

>  <Num_H_Atoms_ProtBoundConf>  (253) 
nan

>  <Num_Resolved_Atoms>  (253) 
nan

>  <Num_Not_Resolved_Atoms>  (253) 
nan

$$$$
CHEMBL4787336
     RDKit          3D

  0  0  0  0  0  0  0  0  0  0999 V3000
M  V30 BEGIN CTAB
M  V30 COUNTS 72 77 0 0 0
M  V30 BEGIN ATOM
M  V30 1 N 0.797788 -5.822842 3.875149 0
M  V30 2 C 1.256477 -6.393353 2.684432 0
M  V30 3 O 2.112911 -7.269961 2.501024 0
M  V30 4 C 0.652481 -5.897350 1.489055 0
M  V30 5 S 0.972042 -6.369712 -0.203960 0
M  V30 6 C -0.265251 -5.196378 -0.904243 0
M  V30 7 C -0.445424 -5.150996 -2.368946 0
M  V30 8 C 0.268462 -5.957415 -3.228641 0
M  V30 9 C -0.001016 -5.811643 -4.588593 0
M  V30 10 N -0.922855 -4.913836 -5.002243 0
M  V30 11 C -1.605410 -4.139284 -4.142780 0
M  V30 12 N -2.580016 -3.192402 -4.597337 0
M  V30 13 C -1.921570 -1.963397 -4.838343 0
M  V30 14 O -1.110030 -1.013417 -4.969693 0
M  V30 15 C -2.523355 -0.692291 -5.320328 0
M  V30 16 C -3.759187 -0.677139 -6.105797 0
M  V30 17 C -3.788707 -0.288045 -4.641926 0
M  V30 18 C -1.387828 -4.230967 -2.768825 0
M  V30 19 N -0.715996 -4.659272 0.056139 0
M  V30 20 C -0.371503 -4.890807 1.305277 0
M  V30 21 O -0.919573 -4.242725 2.420361 0
M  V30 22 C -1.923599 -3.249051 2.322365 0
M  V30 23 C -3.169059 -3.729673 1.678334 0
M  V30 24 O -4.192191 -2.845550 1.556179 0
M  V30 25 C -4.061963 -1.691419 0.884051 0
M  V30 26 C -3.137343 -0.698550 1.406904 0
M  V30 27 C -2.378301 0.147323 1.849337 0
M  V30 28 C -1.501702 1.158108 2.363308 0
M  V30 29 C -1.981777 1.862755 3.452578 0
M  V30 30 C -1.206613 2.854862 4.015689 0
M  V30 31 C 0.030011 3.106042 3.462689 0
M  V30 32 C 0.522398 2.421867 2.387419 0
M  V30 33 C -0.268603 1.428681 1.833340 0
M  V30 34 C 1.839303 2.952590 2.086716 0
M  V30 35 O 2.511820 2.503104 1.148145 0
M  V30 36 N 2.202622 3.995275 2.981086 0
M  V30 37 C 3.414466 4.807130 3.048731 0
M  V30 38 C 3.498253 5.718282 1.869200 0
M  V30 39 C 4.236284 5.169944 0.685565 0
M  V30 40 C 5.277306 4.184518 1.036011 0
M  V30 41 O 5.945935 3.882093 0.009311 0
M  V30 42 N 5.566040 3.605009 2.292595 0
M  V30 43 C 4.586962 3.956688 3.259270 0
M  V30 44 O 4.708595 3.503951 4.442379 0
M  V30 45 C 1.043180 4.072978 3.840600 0
M  V30 46 O 0.940005 4.887617 4.798239 0
M  V30 47 H 1.137242 -5.121249 4.569447 0
M  V30 48 H -0.140483 -6.149217 4.216868 0
M  V30 49 H 0.988404 -6.651628 -2.837075 0
M  V30 50 H 0.552475 -6.437168 -5.253147 0
M  V30 51 H -3.605493 -3.190417 -4.784704 0
M  V30 52 H -1.794418 0.132329 -5.439770 0
M  V30 53 H -4.233882 -1.647517 -6.398811 0
M  V30 54 H -3.953485 0.155006 -6.791432 0
M  V30 55 H -4.278223 -1.001588 -3.968636 0
M  V30 56 H -3.963001 0.767495 -4.379049 0
M  V30 57 H -1.947914 -3.598269 -2.094444 0
M  V30 58 H -1.445310 -2.469834 1.653390 0
M  V30 59 H -2.037959 -2.784844 3.310064 0
M  V30 60 H -2.974761 -4.287223 0.724988 0
M  V30 61 H -3.564527 -4.557911 2.358221 0
M  V30 62 H -5.059679 -1.161489 0.814094 0
M  V30 63 H -3.834856 -1.937548 -0.185542 0
M  V30 64 H -2.959286 1.672171 3.897856 0
M  V30 65 H -1.606685 3.399196 4.876713 0
M  V30 66 H 0.071950 0.866757 0.992023 0
M  V30 67 H 3.248211 5.492618 3.940619 0
M  V30 68 H 3.974598 6.675675 2.189680 0
M  V30 69 H 2.444842 5.907431 1.518636 0
M  V30 70 H 4.699686 6.055766 0.162145 0
M  V30 71 H 3.524645 4.720566 -0.044612 0
M  V30 72 H 6.395710 3.001421 2.463287 0
M  V30 END ATOM
M  V30 BEGIN BOND
M  V30 1 1 1 2
M  V30 2 2 2 3
M  V30 3 1 2 4
M  V30 4 1 4 5
M  V30 5 1 5 6
M  V30 6 1 6 7
M  V30 7 2 7 8
M  V30 8 1 8 9
M  V30 9 2 9 10
M  V30 10 1 10 11
M  V30 11 1 11 12
M  V30 12 1 12 13
M  V30 13 2 13 14
M  V30 14 1 13 15
M  V30 15 1 15 16
M  V30 16 1 16 17
M  V30 17 2 11 18
M  V30 18 2 6 19
M  V30 19 1 19 20
M  V30 20 1 20 21
M  V30 21 1 21 22
M  V30 22 1 22 23
M  V30 23 1 23 24
M  V30 24 1 24 25
M  V30 25 1 25 26
M  V30 26 3 26 27
M  V30 27 1 27 28
M  V30 28 2 28 29
M  V30 29 1 29 30
M  V30 30 2 30 31
M  V30 31 1 31 32
M  V30 32 2 32 33
M  V30 33 1 32 34
M  V30 34 2 34 35
M  V30 35 1 34 36
M  V30 36 1 36 37
M  V30 37 1 37 38
M  V30 38 1 38 39
M  V30 39 1 39 40
M  V30 40 2 40 41
M  V30 41 1 40 42
M  V30 42 1 42 43
M  V30 43 2 43 44
M  V30 44 1 36 45
M  V30 45 2 45 46
M  V30 46 2 20 4
M  V30 47 1 33 28
M  V30 48 1 43 37
M  V30 49 1 18 7
M  V30 50 1 45 31
M  V30 51 1 17 15
M  V30 52 1 1 47
M  V30 53 1 1 48
M  V30 54 1 8 49
M  V30 55 1 9 50
M  V30 56 1 12 51
M  V30 57 1 15 52
M  V30 58 1 16 53
M  V30 59 1 16 54
M  V30 60 1 17 55
M  V30 61 1 17 56
M  V30 62 1 18 57
M  V30 63 1 22 58
M  V30 64 1 22 59
M  V30 65 1 23 60
M  V30 66 1 23 61
M  V30 67 1 25 62
M  V30 68 1 25 63
M  V30 69 1 29 64
M  V30 70 1 30 65
M  V30 71 1 33 66
M  V30 72 1 37 67
M  V30 73 1 38 68
M  V30 74 1 38 69
M  V30 75 1 39 70
M  V30 76 1 39 71
M  V30 77 1 42 72
M  V30 END BOND
M  V30 END CTAB
M  END
>  <Dataset>  (254) 
ChEMBL_Kinases

>  <Ligand_Instance>  (254) 
nan

>  <PDB_ID>  (254) 
nan

>  <Standardized_SMILES>  (254) 
NC(=O)c1sc(-c2ccnc(NC(=O)C3CC3)c2)nc1OCCOCC#Cc1ccc2c(c1)C(=O)N(C1CCC(=O)NC1=O)C2=O

>  <Name>  (254) 
nan

>  <Pocket>  (254) 
nan

>  <ATP_Site>  (254) 
nan

>  <Peripheral>  (254) 
nan

>  <Num_H_Atoms_ProtBoundConf>  (254) 
nan

>  <Num_Resolved_Atoms>  (254) 
nan

>  <Num_Not_Resolved_Atoms>  (254) 
nan

$$$$
CHEMBL4164953
     RDKit          3D

  0  0  0  0  0  0  0  0  0  0999 V3000
M  V30 BEGIN CTAB
M  V30 COUNTS 63 68 0 0 0
M  V30 BEGIN ATOM
M  V30 1 C 1.917667 2.730572 -0.069367 0
M  V30 2 C 1.227698 2.238863 1.189312 0 CFG=2
M  V30 3 C 0.271099 3.317389 1.614726 0
M  V30 4 C 1.072290 4.434245 2.249608 0
M  V30 5 C 1.533877 3.930097 3.599887 0 CFG=2
M  V30 6 O 2.048810 4.953601 4.389586 0
M  V30 7 C 2.601981 2.883174 3.408621 0
M  V30 8 C 2.277920 1.988491 2.236503 0
M  V30 9 C 3.005617 0.871527 2.139700 0
M  V30 10 C 2.822961 -0.106698 1.066999 0
M  V30 11 C 1.505938 -0.079617 0.380826 0 CFG=2
M  V30 12 C 0.529120 0.941734 0.991016 0 CFG=2
M  V30 13 C -0.621893 0.999471 0.042521 0
M  V30 14 C -1.322115 -0.367439 0.021951 0
M  V30 15 C -0.402314 -1.358446 -0.557002 0 CFG=2
M  V30 16 C 0.096147 -1.031875 -1.942394 0
M  V30 17 C -0.770841 -2.764064 -0.557681 0
M  V30 18 C -1.964459 -3.548379 -0.861030 0
M  V30 19 C -3.123385 -2.974865 -1.333804 0
M  V30 20 C -4.273174 -3.673380 -1.618303 0
M  V30 21 C -4.329660 -5.021717 -1.441431 0
M  V30 22 C -5.441239 -5.792011 -1.702672 0
M  V30 23 C -5.458113 -7.172601 -1.507820 0
M  V30 24 N -4.313381 -7.720975 -1.043952 0
M  V30 25 C -3.200814 -7.017305 -0.772708 0
M  V30 26 C -3.200466 -5.653904 -0.970587 0
M  V30 27 C -2.075047 -4.911552 -0.700420 0
M  V30 28 C 0.308676 -3.480903 -0.172247 0
M  V30 29 C 1.452575 -2.588233 0.102945 0
M  V30 30 C 0.757224 -1.352791 0.455446 0 CFG=1
M  V30 31 H 1.445647 2.317154 -1.000954 0
M  V30 32 H 3.018902 2.564222 -0.049594 0
M  V30 33 H 1.785464 3.844987 -0.196323 0
M  V30 34 H -0.230902 3.772865 0.736305 0
M  V30 35 H -0.459036 2.939603 2.361442 0
M  V30 36 H 1.952989 4.709891 1.639194 0
M  V30 37 H 0.445893 5.333928 2.421737 0
M  V30 38 H 0.642686 3.531079 4.126437 0
M  V30 39 H 2.733381 4.539274 4.978152 0
M  V30 40 H 2.679723 2.310306 4.355580 0
M  V30 41 H 3.570465 3.367082 3.201933 0
M  V30 42 H 3.777628 0.652149 2.878453 0
M  V30 43 H 3.691192 0.035256 0.363050 0
M  V30 44 H 2.996522 -1.136671 1.479052 0
M  V30 45 H 1.686949 0.328350 -0.634175 0
M  V30 46 H 0.198495 0.554910 1.954914 0
M  V30 47 H -0.365963 1.353864 -0.953864 0
M  V30 48 H -1.391140 1.675994 0.515190 0
M  V30 49 H -2.289609 -0.185947 -0.405007 0
M  V30 50 H -1.452382 -0.617900 1.100306 0
M  V30 51 H -0.350914 -0.107848 -2.362418 0
M  V30 52 H -0.207985 -1.828041 -2.687750 0
M  V30 53 H 1.210439 -1.066342 -2.036409 0
M  V30 54 H -3.221249 -1.943717 -1.527692 0
M  V30 55 H -5.177897 -3.219093 -1.987967 0
M  V30 56 H -6.311054 -5.247090 -2.073788 0
M  V30 57 H -6.351308 -7.741118 -1.725013 0
M  V30 58 H -2.340489 -7.559707 -0.405152 0
M  V30 59 H -1.228332 -5.472267 -0.334235 0
M  V30 60 H 0.528011 -4.550541 -0.021423 0
M  V30 61 H 2.059720 -2.911205 0.990646 0
M  V30 62 H 2.095658 -2.432626 -0.785839 0
M  V30 63 H 0.270331 -1.415777 1.467273 0
M  V30 END ATOM
M  V30 BEGIN BOND
M  V30 1 1 2 1 CFG=3
M  V30 2 1 2 3
M  V30 3 1 3 4
M  V30 4 1 4 5
M  V30 5 1 5 6
M  V30 6 1 5 7
M  V30 7 1 7 8
M  V30 8 2 8 9
M  V30 9 1 9 10
M  V30 10 1 10 11
M  V30 11 1 11 12
M  V30 12 1 12 13
M  V30 13 1 13 14
M  V30 14 1 14 15
M  V30 15 1 15 16 CFG=3
M  V30 16 1 15 17
M  V30 17 1 17 18
M  V30 18 2 18 19
M  V30 19 1 19 20
M  V30 20 2 20 21
M  V30 21 1 21 22
M  V30 22 2 22 23
M  V30 23 1 23 24
M  V30 24 2 24 25
M  V30 25 1 25 26
M  V30 26 2 26 27
M  V30 27 2 17 28
M  V30 28 1 28 29
M  V30 29 1 29 30
M  V30 30 1 8 2
M  V30 31 1 30 11
M  V30 32 1 12 2
M  V30 33 1 30 15
M  V30 34 1 27 18
M  V30 35 1 26 21
M  V30 36 1 1 31
M  V30 37 1 1 32
M  V30 38 1 1 33
M  V30 39 1 3 34
M  V30 40 1 3 35
M  V30 41 1 4 36
M  V30 42 1 4 37
M  V30 43 1 5 38 CFG=1
M  V30 44 1 6 39
M  V30 45 1 7 40
M  V30 46 1 7 41
M  V30 47 1 9 42
M  V30 48 1 10 43
M  V30 49 1 10 44
M  V30 50 1 11 45 CFG=3
M  V30 51 1 12 46 CFG=1
M  V30 52 1 13 47
M  V30 53 1 13 48
M  V30 54 1 14 49
M  V30 55 1 14 50
M  V30 56 1 16 51
M  V30 57 1 16 52
M  V30 58 1 16 53
M  V30 59 1 19 54
M  V30 60 1 20 55
M  V30 61 1 22 56
M  V30 62 1 23 57
M  V30 63 1 25 58
M  V30 64 1 27 59
M  V30 65 1 28 60
M  V30 66 1 29 61
M  V30 67 1 29 62
M  V30 68 1 30 63 CFG=1
M  V30 END BOND
M  V30 END CTAB
M  END
>  <Dataset>  (255) 
ChEMBL_Kinases

>  <Ligand_Instance>  (255) 
nan

>  <PDB_ID>  (255) 
nan

>  <Standardized_SMILES>  (255) 
C[C@]12CC[C@H](O)CC1=CC[C@@H]1[C@@H]2CC[C@]2(C)C(c3ccc4ccncc4c3)=CC[C@@H]12

>  <Name>  (255) 
nan

>  <Pocket>  (255) 
nan

>  <ATP_Site>  (255) 
nan

>  <Peripheral>  (255) 
nan

>  <Num_H_Atoms_ProtBoundConf>  (255) 
nan

>  <Num_Resolved_Atoms>  (255) 
nan

>  <Num_Not_Resolved_Atoms>  (255) 
nan

$$$$
CHEMBL4164848
     RDKit          3D

  0  0  0  0  0  0  0  0  0  0999 V3000
M  V30 BEGIN CTAB
M  V30 COUNTS 40 43 0 0 0
M  V30 BEGIN ATOM
M  V30 1 C 1.276077 -4.862933 4.700200 0
M  V30 2 O 0.813716 -5.400980 3.458589 0
M  V30 3 C 0.556609 -4.569515 2.376189 0
M  V30 4 C 0.111099 -5.140979 1.198550 0
M  V30 5 C -0.165759 -4.360198 0.072697 0
M  V30 6 C 0.016621 -2.994462 0.162186 0
M  V30 7 C 0.460402 -2.399764 1.326418 0
M  V30 8 C 0.724903 -3.200214 2.420937 0
M  V30 9 N 0.527792 -1.079287 1.076503 0
M  V30 10 C 0.155731 -0.782550 -0.175243 0
M  V30 11 C 0.093701 0.444618 -0.795187 0
M  V30 12 N 0.411779 1.704525 -0.236455 0
M  V30 13 C 0.313377 2.898351 -1.062026 0
M  V30 14 C -0.626863 3.930620 -0.533887 0
M  V30 15 C -0.458914 4.101307 0.979620 0
M  V30 16 C 0.926480 3.566161 1.274340 0
M  V30 17 C 0.843983 2.045909 1.098124 0
M  V30 18 N -0.321854 0.408976 -2.069778 0
M  V30 19 C -0.654507 -0.710173 -2.709490 0
M  V30 20 C -0.585110 -1.920639 -2.072187 0
M  V30 21 C -0.169048 -1.984973 -0.761404 0
M  V30 22 H 2.346915 -4.621757 4.698619 0
M  V30 23 H 0.727282 -3.909560 4.947266 0
M  V30 24 H 1.092398 -5.573506 5.530647 0
M  V30 25 H -0.038638 -6.226426 1.112649 0
M  V30 26 H -0.515861 -4.777034 -0.863929 0
M  V30 27 H 1.069362 -2.728356 3.320809 0
M  V30 28 H 0.842332 -0.440740 1.823405 0
M  V30 29 H -0.086730 2.613958 -2.080215 0
M  V30 30 H 1.339768 3.248717 -1.258825 0
M  V30 31 H -0.312687 4.920866 -0.971923 0
M  V30 32 H -1.665578 3.797588 -0.839398 0
M  V30 33 H -0.608397 5.144419 1.252107 0
M  V30 34 H -1.160328 3.411280 1.504421 0
M  V30 35 H 1.710872 3.929403 0.612764 0
M  V30 36 H 1.220793 3.744521 2.330758 0
M  V30 37 H 0.006768 1.761367 1.803330 0
M  V30 38 H 1.822462 1.662599 1.384599 0
M  V30 39 H -0.986411 -0.676029 -3.749357 0
M  V30 40 H -0.851061 -2.823552 -2.580595 0
M  V30 END ATOM
M  V30 BEGIN BOND
M  V30 1 1 1 2
M  V30 2 1 2 3
M  V30 3 2 3 4
M  V30 4 1 4 5
M  V30 5 2 5 6
M  V30 6 1 6 7
M  V30 7 2 7 8
M  V30 8 1 7 9
M  V30 9 1 9 10
M  V30 10 2 10 11
M  V30 11 1 11 12
M  V30 12 1 12 13
M  V30 13 1 13 14
M  V30 14 1 14 15
M  V30 15 1 15 16
M  V30 16 1 16 17
M  V30 17 1 11 18
M  V30 18 2 18 19
M  V30 19 1 19 20
M  V30 20 2 20 21
M  V30 21 1 8 3
M  V30 22 1 21 10
M  V30 23 1 21 6
M  V30 24 1 17 12
M  V30 25 1 1 22
M  V30 26 1 1 23
M  V30 27 1 1 24
M  V30 28 1 4 25
M  V30 29 1 5 26
M  V30 30 1 8 27
M  V30 31 1 9 28
M  V30 32 1 13 29
M  V30 33 1 13 30
M  V30 34 1 14 31
M  V30 35 1 14 32
M  V30 36 1 15 33
M  V30 37 1 15 34
M  V30 38 1 16 35
M  V30 39 1 16 36
M  V30 40 1 17 37
M  V30 41 1 17 38
M  V30 42 1 19 39
M  V30 43 1 20 40
M  V30 END BOND
M  V30 END CTAB
M  END
>  <Dataset>  (256) 
ChEMBL_Kinases

>  <Ligand_Instance>  (256) 
nan

>  <PDB_ID>  (256) 
nan

>  <Standardized_SMILES>  (256) 
COc1ccc2c(c1)[nH]c1c(N3CCCCC3)nccc12

>  <Name>  (256) 
nan

>  <Pocket>  (256) 
nan

>  <ATP_Site>  (256) 
nan

>  <Peripheral>  (256) 
nan

>  <Num_H_Atoms_ProtBoundConf>  (256) 
nan

>  <Num_Resolved_Atoms>  (256) 
nan

>  <Num_Not_Resolved_Atoms>  (256) 
nan

$$$$
CHEMBL4164814
     RDKit          3D

  0  0  0  0  0  0  0  0  0  0999 V3000
M  V30 BEGIN CTAB
M  V30 COUNTS 39 42 0 0 0
M  V30 BEGIN ATOM
M  V30 1 N 2.383097 -6.265372 2.501596 0
M  V30 2 S 2.816184 -4.911515 3.470329 0
M  V30 3 O 2.024728 -4.918713 4.723543 0
M  V30 4 O 4.301891 -5.040745 3.777783 0
M  V30 5 C 2.613587 -3.391815 2.663617 0
M  V30 6 C 3.565886 -2.733594 1.909746 0
M  V30 7 C 3.299112 -1.521008 1.304925 0
M  V30 8 C 2.061364 -0.913934 1.430459 0
M  V30 9 C 1.701959 0.368115 0.822324 0
M  V30 10 C 2.624059 1.386717 0.626992 0
M  V30 11 N 2.242221 2.565816 0.052283 0
M  V30 12 C 0.940074 2.713376 -0.321505 0
M  V30 13 N 0.328041 3.759994 -0.896714 0
M  V30 14 C -0.974149 3.524925 -1.113627 0
M  V30 15 C -1.226361 2.260658 -0.657277 0
M  V30 16 C -2.496518 1.545628 -0.677146 0
M  V30 17 C -3.735485 2.009120 -0.301592 0
M  V30 18 C -4.851609 1.207216 -0.382795 0
M  V30 19 C -4.753826 -0.107515 -0.852147 0
M  V30 20 N -3.541887 -0.570953 -1.222894 0
M  V30 21 C -2.463757 0.228682 -1.135873 0
M  V30 22 C -0.040719 1.755535 -0.165321 0
M  V30 23 C 0.375614 0.567205 0.421679 0
M  V30 24 C 1.083176 -1.567105 2.191448 0
M  V30 25 C 1.360700 -2.782017 2.793508 0
M  V30 26 H 1.365124 -6.484622 2.554334 0
M  V30 27 H 2.734102 -6.205522 1.523171 0
M  V30 28 H 4.526494 -3.222030 1.822157 0
M  V30 29 H 4.049255 -1.013366 0.717260 0
M  V30 30 H 3.631325 1.150799 0.965901 0
M  V30 31 H 0.816278 4.663226 -1.148668 0
M  V30 32 H -1.645100 4.224683 -1.561237 0
M  V30 33 H -3.744995 3.037137 0.053634 0
M  V30 34 H -5.817609 1.617810 -0.073313 0
M  V30 35 H -5.690962 -0.640352 -0.872454 0
M  V30 36 H -1.575238 -0.319287 -1.481091 0
M  V30 37 H -0.347679 -0.213001 0.568542 0
M  V30 38 H 0.086159 -1.145483 2.332198 0
M  V30 39 H 0.562429 -3.259497 3.382338 0
M  V30 END ATOM
M  V30 BEGIN BOND
M  V30 1 1 1 2
M  V30 2 2 2 3
M  V30 3 2 2 4
M  V30 4 1 2 5
M  V30 5 2 5 6
M  V30 6 1 6 7
M  V30 7 2 7 8
M  V30 8 1 8 9
M  V30 9 2 9 10
M  V30 10 1 10 11
M  V30 11 2 11 12
M  V30 12 1 12 13
M  V30 13 1 13 14
M  V30 14 2 14 15
M  V30 15 1 15 16
M  V30 16 2 16 17
M  V30 17 1 17 18
M  V30 18 2 18 19
M  V30 19 1 19 20
M  V30 20 2 20 21
M  V30 21 1 15 22
M  V30 22 2 22 23
M  V30 23 1 8 24
M  V30 24 2 24 25
M  V30 25 1 25 5
M  V30 26 1 23 9
M  V30 27 1 22 12
M  V30 28 1 21 16
M  V30 29 1 1 26
M  V30 30 1 1 27
M  V30 31 1 6 28
M  V30 32 1 7 29
M  V30 33 1 10 30
M  V30 34 1 13 31
M  V30 35 1 14 32
M  V30 36 1 17 33
M  V30 37 1 18 34
M  V30 38 1 19 35
M  V30 39 1 21 36
M  V30 40 1 23 37
M  V30 41 1 24 38
M  V30 42 1 25 39
M  V30 END BOND
M  V30 END CTAB
M  END
>  <Dataset>  (257) 
ChEMBL_Kinases

>  <Ligand_Instance>  (257) 
nan

>  <PDB_ID>  (257) 
nan

>  <Standardized_SMILES>  (257) 
NS(=O)(=O)c1ccc(-c2cnc3[nH]cc(-c4cccnc4)c3c2)cc1

>  <Name>  (257) 
nan

>  <Pocket>  (257) 
nan

>  <ATP_Site>  (257) 
nan

>  <Peripheral>  (257) 
nan

>  <Num_H_Atoms_ProtBoundConf>  (257) 
nan

>  <Num_Resolved_Atoms>  (257) 
nan

>  <Num_Not_Resolved_Atoms>  (257) 
nan

$$$$
CHEMBL4164809
     RDKit          3D

  0  0  0  0  0  0  0  0  0  0999 V3000
M  V30 BEGIN CTAB
M  V30 COUNTS 57 61 0 0 0
M  V30 BEGIN ATOM
M  V30 1 C 1.304680 -4.759499 1.931664 0
M  V30 2 O 1.431032 -3.403621 1.579421 0
M  V30 3 C 2.627572 -2.740297 1.348124 0
M  V30 4 O 3.737869 -3.354593 1.451251 0
M  V30 5 C 2.472687 -1.341204 0.995515 0
M  V30 6 C 2.437563 -0.367939 1.969823 0
M  V30 7 C 2.558379 -0.745748 3.400976 0
M  V30 8 N 2.299056 0.930120 1.614814 0
M  V30 9 C 2.196640 1.244765 0.288099 0
M  V30 10 N 2.037387 2.637759 -0.003150 0
M  V30 11 N 0.640165 2.612210 -0.119297 0
M  V30 12 C -0.346239 2.801049 0.887389 0
M  V30 13 O -0.186968 3.038572 2.136564 0
M  V30 14 C -1.776536 2.748098 0.623238 0
M  V30 15 C -2.478921 3.887036 0.300183 0
M  V30 16 C -3.832918 3.829677 0.047994 0
M  V30 17 C -4.555407 2.656354 0.101331 0
M  V30 18 C -3.865486 1.504638 0.424555 0
M  V30 19 C -4.583469 0.332245 0.478523 0
M  V30 20 O -5.810868 0.275696 0.250374 0
M  V30 21 C -3.884465 -0.822433 0.803551 0
M  V30 22 C -4.559460 -2.025772 0.870206 0
M  V30 23 C -3.912822 -3.224027 1.191466 0
M  V30 24 C -2.550254 -3.123566 1.438325 0
M  V30 25 C -1.857428 -1.917854 1.374699 0
M  V30 26 C -2.534414 -0.761425 1.054280 0
M  V30 27 N -1.895804 0.420613 0.983433 0
M  V30 28 C -2.521473 1.588262 0.670442 0
M  V30 29 N 2.235272 0.268684 -0.636582 0
M  V30 30 C 2.371512 -1.044381 -0.347855 0
M  V30 31 C 2.410592 -1.950038 -1.481187 0
M  V30 32 C 1.526856 -2.985458 -1.707451 0
M  V30 33 C 1.613147 -3.812322 -2.834604 0
M  V30 34 C 2.622239 -3.597093 -3.774646 0
M  V30 35 C 3.550967 -2.560677 -3.601500 0
M  V30 36 C 3.370180 -1.812257 -2.457718 0
M  V30 37 F 4.274826 -0.812802 -2.290946 0
M  V30 38 H 1.086708 -5.431746 1.089337 0
M  V30 39 H 2.197364 -5.092756 2.506590 0
M  V30 40 H 0.434269 -4.871076 2.640989 0
M  V30 41 H 3.365141 -0.202120 3.920058 0
M  V30 42 H 2.816616 -1.819682 3.480585 0
M  V30 43 H 1.564170 -0.605461 3.854443 0
M  V30 44 H 2.826039 3.347958 -0.072985 0
M  V30 45 H 0.223062 2.434508 -1.060591 0
M  V30 46 H -1.911796 4.822160 0.255276 0
M  V30 47 H -4.377274 4.729046 -0.206584 0
M  V30 48 H -5.607395 2.663553 -0.103400 0
M  V30 49 H -5.624041 -2.123141 0.680586 0
M  V30 50 H -4.397249 -4.185792 1.255466 0
M  V30 51 H -2.011831 -4.007942 1.686889 0
M  V30 52 H -0.813921 -1.810801 1.559270 0
M  V30 53 H -0.878981 0.468047 1.172822 0
M  V30 54 H 0.730236 -3.176448 -1.008031 0
M  V30 55 H 0.890567 -4.614193 -2.965283 0
M  V30 56 H 2.652777 -4.254223 -4.627009 0
M  V30 57 H 4.331864 -2.396412 -4.328640 0
M  V30 END ATOM
M  V30 BEGIN BOND
M  V30 1 1 1 2
M  V30 2 1 2 3
M  V30 3 2 3 4
M  V30 4 1 3 5
M  V30 5 2 5 6
M  V30 6 1 6 7
M  V30 7 1 6 8
M  V30 8 2 8 9
M  V30 9 1 9 10
M  V30 10 1 10 11
M  V30 11 1 11 12
M  V30 12 2 12 13
M  V30 13 1 12 14
M  V30 14 2 14 15
M  V30 15 1 15 16
M  V30 16 2 16 17
M  V30 17 1 17 18
M  V30 18 1 18 19
M  V30 19 2 19 20
M  V30 20 1 19 21
M  V30 21 2 21 22
M  V30 22 1 22 23
M  V30 23 2 23 24
M  V30 24 1 24 25
M  V30 25 2 25 26
M  V30 26 1 26 27
M  V30 27 1 27 28
M  V30 28 1 9 29
M  V30 29 2 29 30
M  V30 30 1 30 31
M  V30 31 2 31 32
M  V30 32 1 32 33
M  V30 33 2 33 34
M  V30 34 1 34 35
M  V30 35 2 35 36
M  V30 36 1 36 37
M  V30 37 1 30 5
M  V30 38 1 36 31
M  V30 39 1 28 14
M  V30 40 2 28 18
M  V30 41 1 26 21
M  V30 42 1 1 38
M  V30 43 1 1 39
M  V30 44 1 1 40
M  V30 45 1 7 41
M  V30 46 1 7 42
M  V30 47 1 7 43
M  V30 48 1 10 44
M  V30 49 1 11 45
M  V30 50 1 15 46
M  V30 51 1 16 47
M  V30 52 1 17 48
M  V30 53 1 22 49
M  V30 54 1 23 50
M  V30 55 1 24 51
M  V30 56 1 25 52
M  V30 57 1 27 53
M  V30 58 1 32 54
M  V30 59 1 33 55
M  V30 60 1 34 56
M  V30 61 1 35 57
M  V30 END BOND
M  V30 END CTAB
M  END
>  <Dataset>  (258) 
ChEMBL_Kinases

>  <Ligand_Instance>  (258) 
nan

>  <PDB_ID>  (258) 
nan

>  <Standardized_SMILES>  (258) 
COC(=O)c1c(C)nc(NNC(=O)c2cccc3c(=O)c4ccccc4[nH]c23)nc1-c1ccccc1F

>  <Name>  (258) 
nan

>  <Pocket>  (258) 
nan

>  <ATP_Site>  (258) 
nan

>  <Peripheral>  (258) 
nan

>  <Num_H_Atoms_ProtBoundConf>  (258) 
nan

>  <Num_Resolved_Atoms>  (258) 
nan

>  <Num_Not_Resolved_Atoms>  (258) 
nan

$$$$
CHEMBL4787358
     RDKit          3D

  0  0  0  0  0  0  0  0  0  0999 V3000
M  V30 BEGIN CTAB
M  V30 COUNTS 57 61 0 0 0
M  V30 BEGIN ATOM
M  V30 1 C 7.928409 -3.128818 4.459461 0
M  V30 2 C 7.508700 -2.284856 3.305272 0
M  V30 3 C 8.489504 -1.754159 2.481776 0
M  V30 4 C 8.134286 -0.969049 1.405166 0
M  V30 5 C 6.771977 -0.742836 1.193789 0
M  V30 6 N 5.820569 -1.273237 2.014564 0
M  V30 7 C 4.473200 -0.953638 1.670399 0
M  V30 8 C 4.190476 0.337678 1.230935 0
M  V30 9 C 2.910903 0.737599 0.875010 0
M  V30 10 C 1.867363 -0.179395 0.957620 0
M  V30 11 C 0.511151 0.234992 0.582711 0
M  V30 12 C -0.325057 -0.532906 -0.211511 0
M  V30 13 C -1.586286 -0.054343 -0.508976 0
M  V30 14 C -1.958187 1.164884 -0.003606 0
M  V30 15 C -3.182774 1.746174 -0.227977 0
M  V30 16 C -4.432076 1.520475 -0.909959 0
M  V30 17 O -5.423021 2.315580 -0.900419 0
M  V30 18 N -4.921784 0.474509 -1.718564 0
M  V30 19 C -6.255487 0.646288 -2.212085 0
M  V30 20 C -6.654247 -0.521506 -3.052600 0
M  V30 21 C -6.644199 -1.822453 -2.366572 0
M  V30 22 C -5.630860 -2.743564 -2.264989 0
M  V30 23 C -5.756568 -3.926181 -1.584325 0
M  V30 24 N -6.925246 -4.232528 -0.969996 0
M  V30 25 C -7.950338 -3.377995 -1.031610 0
M  V30 26 C -7.837507 -2.169203 -1.721226 0
M  V30 27 N -3.089033 2.919926 0.459761 0
M  V30 28 N -1.907208 3.000552 1.029392 0
M  V30 29 C -1.132721 1.932639 0.785811 0
M  V30 30 C 0.127131 1.464061 1.088163 0
M  V30 31 C 2.160455 -1.459711 1.395726 0
M  V30 32 Cl 0.881600 -2.649997 1.517228 0
M  V30 33 C 3.430544 -1.868864 1.752667 0
M  V30 34 C 6.172191 -2.039983 3.065633 0
M  V30 35 O 5.261087 -2.508493 3.796182 0
M  V30 36 H 7.217173 -2.935019 5.293003 0
M  V30 37 H 8.911416 -2.797547 4.839687 0
M  V30 38 H 7.875888 -4.197318 4.223265 0
M  V30 39 H 9.548503 -1.913646 2.623151 0
M  V30 40 H 8.859857 -0.530550 0.731355 0
M  V30 41 H 6.523347 -0.120444 0.337705 0
M  V30 42 H 5.010353 1.042023 1.170827 0
M  V30 43 H 2.750902 1.763443 0.537788 0
M  V30 44 H 0.021734 -1.476384 -0.576400 0
M  V30 45 H -2.211324 -0.668584 -1.124225 0
M  V30 46 H -4.259909 -0.309748 -1.870383 0
M  V30 47 H -7.000177 0.877007 -1.420438 0
M  V30 48 H -6.224439 1.527584 -2.896694 0
M  V30 49 H -5.974526 -0.529257 -3.938352 0
M  V30 50 H -7.680322 -0.307221 -3.451579 0
M  V30 51 H -4.718206 -2.467634 -2.768082 0
M  V30 52 H -4.889145 -4.575316 -1.571753 0
M  V30 53 H -8.825426 -3.713387 -0.514981 0
M  V30 54 H -8.689230 -1.533592 -1.732549 0
M  V30 55 H -1.591034 3.810207 1.615528 0
M  V30 56 H 0.728754 2.106125 1.708904 0
M  V30 57 H 3.650880 -2.866136 2.092460 0
M  V30 END ATOM
M  V30 BEGIN BOND
M  V30 1 1 1 2
M  V30 2 2 2 3
M  V30 3 1 3 4
M  V30 4 2 4 5
M  V30 5 1 5 6
M  V30 6 1 6 7
M  V30 7 2 7 8
M  V30 8 1 8 9
M  V30 9 2 9 10
M  V30 10 1 10 11
M  V30 11 2 11 12
M  V30 12 1 12 13
M  V30 13 2 13 14
M  V30 14 1 14 15
M  V30 15 1 15 16
M  V30 16 2 16 17
M  V30 17 1 16 18
M  V30 18 1 18 19
M  V30 19 1 19 20
M  V30 20 1 20 21
M  V30 21 2 21 22
M  V30 22 1 22 23
M  V30 23 2 23 24
M  V30 24 1 24 25
M  V30 25 2 25 26
M  V30 26 2 15 27
M  V30 27 1 27 28
M  V30 28 1 28 29
M  V30 29 2 29 30
M  V30 30 1 10 31
M  V30 31 1 31 32
M  V30 32 2 31 33
M  V30 33 1 6 34
M  V30 34 2 34 35
M  V30 35 1 34 2
M  V30 36 1 33 7
M  V30 37 1 30 11
M  V30 38 1 29 14
M  V30 39 1 26 21
M  V30 40 1 1 36
M  V30 41 1 1 37
M  V30 42 1 1 38
M  V30 43 1 3 39
M  V30 44 1 4 40
M  V30 45 1 5 41
M  V30 46 1 8 42
M  V30 47 1 9 43
M  V30 48 1 12 44
M  V30 49 1 13 45
M  V30 50 1 18 46
M  V30 51 1 19 47
M  V30 52 1 19 48
M  V30 53 1 20 49
M  V30 54 1 20 50
M  V30 55 1 22 51
M  V30 56 1 23 52
M  V30 57 1 25 53
M  V30 58 1 26 54
M  V30 59 1 28 55
M  V30 60 1 30 56
M  V30 61 1 33 57
M  V30 END BOND
M  V30 END CTAB
M  END
>  <Dataset>  (259) 
ChEMBL_Kinases

>  <Ligand_Instance>  (259) 
nan

>  <PDB_ID>  (259) 
nan

>  <Standardized_SMILES>  (259) 
Cc1cccn(-c2ccc(-c3ccc4c(C(=O)NCCc5ccncc5)n[nH]c4c3)c(Cl)c2)c1=O

>  <Name>  (259) 
nan

>  <Pocket>  (259) 
nan

>  <ATP_Site>  (259) 
nan

>  <Peripheral>  (259) 
nan

>  <Num_H_Atoms_ProtBoundConf>  (259) 
nan

>  <Num_Resolved_Atoms>  (259) 
nan

>  <Num_Not_Resolved_Atoms>  (259) 
nan

$$$$
CHEMBL4787876
     RDKit          3D

  0  0  0  0  0  0  0  0  0  0999 V3000
M  V30 BEGIN CTAB
M  V30 COUNTS 63 68 0 0 0
M  V30 BEGIN ATOM
M  V30 1 C 3.335877 -4.534464 2.354757 0
M  V30 2 N 2.611996 -3.998400 1.209518 0
M  V30 3 C 3.625765 -3.663864 0.219857 0
M  V30 4 C 4.184754 -2.342037 0.685751 0
M  V30 5 C 3.452966 -1.263229 0.904188 0
M  V30 6 C 3.948147 -0.004587 1.343515 0
M  V30 7 C 5.271317 0.186226 1.659984 0
M  V30 8 O 6.281800 -0.760330 1.598448 0
M  V30 9 C 5.814858 1.371999 2.098534 0
M  V30 10 C 5.034827 2.497128 2.256528 0
M  V30 11 O 5.524144 3.717179 2.694323 0
M  V30 12 C 3.681749 2.317112 1.935990 0
M  V30 13 C 2.897936 3.451938 2.095847 0
M  V30 14 O 3.400051 4.540143 2.500871 0
M  V30 15 C 1.558810 3.324063 1.791627 0
M  V30 16 C 1.044295 2.103840 1.347045 0
M  V30 17 C -0.378933 2.093624 1.052388 0
M  V30 18 C -1.090769 1.068015 0.475339 0
M  V30 19 C -2.430225 1.015007 0.215889 0
M  V30 20 C -3.198692 2.104783 0.559413 0
M  V30 21 S -4.958174 2.177081 0.282561 0
M  V30 22 C -5.552928 0.683253 -0.479303 0
M  V30 23 N -5.079244 -0.492985 -0.919607 0
M  V30 24 C -6.071804 -1.246961 -1.421342 0
M  V30 25 C -5.917248 -2.580519 -1.987507 0
M  V30 26 C -6.994239 -3.284927 -2.480621 0
M  V30 27 C -6.789782 -4.543541 -3.006834 0
M  V30 28 C -5.536116 -5.138279 -3.062203 0
M  V30 29 C -4.441340 -4.431884 -2.565324 0
M  V30 30 C -4.670437 -3.169197 -2.041699 0
M  V30 31 C -7.221637 -0.503119 -1.285833 0
M  V30 32 N -6.897707 0.673544 -0.710285 0
M  V30 33 C -2.555785 3.183575 1.147076 0
M  V30 34 C -1.198380 3.147481 1.370940 0
M  V30 35 O 1.880692 1.117826 1.240199 0
M  V30 36 C 3.156816 1.113352 1.495812 0
M  V30 37 C 2.086811 -1.693002 0.618986 0
M  V30 38 C 1.794469 -2.880927 1.557163 0
M  V30 39 H 2.874387 -5.505112 2.617097 0
M  V30 40 H 4.402564 -4.715254 2.131920 0
M  V30 41 H 3.283248 -3.860809 3.232674 0
M  V30 42 H 3.256954 -3.641486 -0.803833 0
M  V30 43 H 4.374580 -4.461449 0.281304 0
M  V30 44 H 5.239577 -2.383464 0.813289 0
M  V30 45 H 6.991060 -0.606886 0.866184 0
M  V30 46 H 6.860780 1.554609 2.357017 0
M  V30 47 H 5.806219 4.384092 1.968432 0
M  V30 48 H 1.037481 4.279924 1.949762 0
M  V30 49 H -0.567751 0.177804 0.166241 0
M  V30 50 H -2.914052 0.167197 -0.242375 0
M  V30 51 H -8.007464 -2.862794 -2.462059 0
M  V30 52 H -7.568325 -5.160133 -3.410414 0
M  V30 53 H -5.334264 -6.117910 -3.465294 0
M  V30 54 H -3.419869 -4.801195 -2.559459 0
M  V30 55 H -3.838145 -2.581913 -1.641485 0
M  V30 56 H -8.159289 -0.913327 -1.626053 0
M  V30 57 H -7.705922 1.329404 -0.557886 0
M  V30 58 H -3.185688 4.033369 1.408583 0
M  V30 59 H -0.857536 4.046486 1.833546 0
M  V30 60 H 1.981227 -2.117197 -0.422538 0
M  V30 61 H 1.318949 -0.945499 0.703218 0
M  V30 62 H 0.707290 -3.068797 1.574278 0
M  V30 63 H 2.163886 -2.517147 2.556152 0
M  V30 END ATOM
M  V30 BEGIN BOND
M  V30 1 1 1 2
M  V30 2 1 2 3
M  V30 3 1 3 4
M  V30 4 2 4 5
M  V30 5 1 5 6
M  V30 6 2 6 7
M  V30 7 1 7 8
M  V30 8 1 7 9
M  V30 9 2 9 10
M  V30 10 1 10 11
M  V30 11 1 10 12
M  V30 12 1 12 13
M  V30 13 2 13 14
M  V30 14 1 13 15
M  V30 15 2 15 16
M  V30 16 1 16 17
M  V30 17 2 17 18
M  V30 18 1 18 19
M  V30 19 2 19 20
M  V30 20 1 20 21
M  V30 21 1 21 22
M  V30 22 2 22 23
M  V30 23 1 23 24
M  V30 24 1 24 25
M  V30 25 2 25 26
M  V30 26 1 26 27
M  V30 27 2 27 28
M  V30 28 1 28 29
M  V30 29 2 29 30
M  V30 30 2 24 31
M  V30 31 1 31 32
M  V30 32 1 20 33
M  V30 33 2 33 34
M  V30 34 1 16 35
M  V30 35 1 35 36
M  V30 36 1 5 37
M  V30 37 1 37 38
M  V30 38 1 38 2
M  V30 39 1 36 6
M  V30 40 2 36 12
M  V30 41 1 34 17
M  V30 42 1 32 22
M  V30 43 1 30 25
M  V30 44 1 1 39
M  V30 45 1 1 40
M  V30 46 1 1 41
M  V30 47 1 3 42
M  V30 48 1 3 43
M  V30 49 1 4 44
M  V30 50 1 8 45
M  V30 51 1 9 46
M  V30 52 1 11 47
M  V30 53 1 15 48
M  V30 54 1 18 49
M  V30 55 1 19 50
M  V30 56 1 26 51
M  V30 57 1 27 52
M  V30 58 1 28 53
M  V30 59 1 29 54
M  V30 60 1 30 55
M  V30 61 1 31 56
M  V30 62 1 32 57
M  V30 63 1 33 58
M  V30 64 1 34 59
M  V30 65 1 37 60
M  V30 66 1 37 61
M  V30 67 1 38 62
M  V30 68 1 38 63
M  V30 END BOND
M  V30 END CTAB
M  END
>  <Dataset>  (260) 
ChEMBL_Kinases

>  <Ligand_Instance>  (260) 
nan

>  <PDB_ID>  (260) 
nan

>  <Standardized_SMILES>  (260) 
CN1CC=C(c2c(O)cc(O)c3c(=O)cc(-c4ccc(Sc5nc(-c6ccccc6)c[nH]5)cc4)oc23)CC1

>  <Name>  (260) 
nan

>  <Pocket>  (260) 
nan

>  <ATP_Site>  (260) 
nan

>  <Peripheral>  (260) 
nan

>  <Num_H_Atoms_ProtBoundConf>  (260) 
nan

>  <Num_Resolved_Atoms>  (260) 
nan

>  <Num_Not_Resolved_Atoms>  (260) 
nan

$$$$
CHEMBL4787455
     RDKit          3D

  0  0  0  0  0  0  0  0  0  0999 V3000
M  V30 BEGIN CTAB
M  V30 COUNTS 57 61 0 0 0
M  V30 BEGIN ATOM
M  V30 1 C 0.503440 -3.324501 1.548767 0
M  V30 2 N 1.768579 -3.784039 2.014134 0
M  V30 3 C 2.537328 -2.887320 2.789887 0
M  V30 4 C 3.946717 -2.624612 2.239583 0
M  V30 5 N 3.912971 -2.965878 0.890502 0
M  V30 6 C 4.178179 -2.068603 -0.131363 0
M  V30 7 C 3.173073 -0.943910 -0.072686 0
M  V30 8 C 3.391304 0.217201 0.631410 0
M  V30 9 C 2.451987 1.232109 0.675435 0
M  V30 10 C 1.265852 1.070245 -0.007117 0
M  V30 11 C 0.186589 2.061978 -0.048833 0
M  V30 12 C 0.335780 3.432092 -0.003945 0
M  V30 13 N -0.730452 4.250580 -0.045218 0
M  V30 14 C -1.998157 3.803770 -0.131709 0
M  V30 15 N -3.229876 4.356847 -0.188038 0
M  V30 16 C -4.182996 3.389061 -0.268301 0
M  V30 17 C -3.587204 2.130593 -0.267437 0
M  V30 18 C -4.181980 0.808320 -0.339134 0
M  V30 19 C -5.263817 0.576497 0.498652 0
M  V30 20 C -5.903030 -0.660711 0.503819 0
M  V30 21 C -5.499472 -1.699303 -0.309755 0
M  V30 22 C -4.421866 -1.424972 -1.124986 0
M  V30 23 N -3.956763 -2.475983 -1.996886 0
M  V30 24 C -3.749053 -0.220056 -1.173677 0
M  V30 25 C -2.246585 2.446890 -0.182245 0
M  V30 26 C -1.129366 1.622784 -0.137922 0
M  V30 27 C 1.058466 -0.110939 -0.716229 0
M  V30 28 C 1.983616 -1.146233 -0.777881 0
M  V30 29 C 3.766501 -4.339650 0.672890 0
M  V30 30 C 2.423588 -4.758904 1.232812 0
M  V30 31 H 0.324596 -3.466203 0.467685 0
M  V30 32 H -0.287674 -3.957702 2.049408 0
M  V30 33 H 0.270692 -2.279694 1.836713 0
M  V30 34 H 2.040145 -1.876195 2.697834 0
M  V30 35 H 2.547350 -3.078744 3.878022 0
M  V30 36 H 4.593863 -3.378668 2.781540 0
M  V30 37 H 4.296202 -1.614770 2.521694 0
M  V30 38 H 5.166054 -1.532509 -0.009673 0
M  V30 39 H 4.209593 -2.479614 -1.146962 0
M  V30 40 H 4.314677 0.354729 1.167503 0
M  V30 41 H 2.604405 2.142426 1.217915 0
M  V30 42 H 1.359340 3.792888 0.066848 0
M  V30 43 H -3.365499 5.396254 -0.168388 0
M  V30 44 H -5.264747 3.548780 -0.325609 0
M  V30 45 H -5.713412 1.282973 1.204730 0
M  V30 46 H -6.762597 -0.891274 1.149839 0
M  V30 47 H -5.966546 -2.661142 -0.330895 0
M  V30 48 H -4.498742 -2.628094 -2.894646 0
M  V30 49 H -3.107732 -3.031534 -1.694670 0
M  V30 50 H -2.911994 -0.023513 -1.817281 0
M  V30 51 H -1.284486 0.555461 -0.171918 0
M  V30 52 H 0.154622 -0.341146 -1.291726 0
M  V30 53 H 1.837535 -2.050592 -1.314895 0
M  V30 54 H 3.940924 -4.686749 -0.365875 0
M  V30 55 H 4.522461 -4.886579 1.311896 0
M  V30 56 H 1.772923 -4.949648 0.328164 0
M  V30 57 H 2.466709 -5.736247 1.769311 0
M  V30 END ATOM
M  V30 BEGIN BOND
M  V30 1 1 1 2
M  V30 2 1 2 3
M  V30 3 1 3 4
M  V30 4 1 4 5
M  V30 5 1 5 6
M  V30 6 1 6 7
M  V30 7 2 7 8
M  V30 8 1 8 9
M  V30 9 2 9 10
M  V30 10 1 10 11
M  V30 11 2 11 12
M  V30 12 1 12 13
M  V30 13 2 13 14
M  V30 14 1 14 15
M  V30 15 1 15 16
M  V30 16 2 16 17
M  V30 17 1 17 18
M  V30 18 2 18 19
M  V30 19 1 19 20
M  V30 20 2 20 21
M  V30 21 1 21 22
M  V30 22 1 22 23
M  V30 23 2 22 24
M  V30 24 1 17 25
M  V30 25 2 25 26
M  V30 26 1 10 27
M  V30 27 2 27 28
M  V30 28 1 5 29
M  V30 29 1 29 30
M  V30 30 1 30 2
M  V30 31 1 28 7
M  V30 32 1 26 11
M  V30 33 1 25 14
M  V30 34 1 24 18
M  V30 35 1 1 31
M  V30 36 1 1 32
M  V30 37 1 1 33
M  V30 38 1 3 34
M  V30 39 1 3 35
M  V30 40 1 4 36
M  V30 41 1 4 37
M  V30 42 1 6 38
M  V30 43 1 6 39
M  V30 44 1 8 40
M  V30 45 1 9 41
M  V30 46 1 12 42
M  V30 47 1 15 43
M  V30 48 1 16 44
M  V30 49 1 19 45
M  V30 50 1 20 46
M  V30 51 1 21 47
M  V30 52 1 23 48
M  V30 53 1 23 49
M  V30 54 1 24 50
M  V30 55 1 26 51
M  V30 56 1 27 52
M  V30 57 1 28 53
M  V30 58 1 29 54
M  V30 59 1 29 55
M  V30 60 1 30 56
M  V30 61 1 30 57
M  V30 END BOND
M  V30 END CTAB
M  END
>  <Dataset>  (261) 
ChEMBL_Kinases

>  <Ligand_Instance>  (261) 
nan

>  <PDB_ID>  (261) 
nan

>  <Standardized_SMILES>  (261) 
CN1CCN(Cc2ccc(-c3cnc4[nH]cc(-c5cccc(N)c5)c4c3)cc2)CC1

>  <Name>  (261) 
nan

>  <Pocket>  (261) 
nan

>  <ATP_Site>  (261) 
nan

>  <Peripheral>  (261) 
nan

>  <Num_H_Atoms_ProtBoundConf>  (261) 
nan

>  <Num_Resolved_Atoms>  (261) 
nan

>  <Num_Not_Resolved_Atoms>  (261) 
nan

$$$$
CHEMBL4164416
     RDKit          3D

  0  0  0  0  0  0  0  0  0  0999 V3000
M  V30 BEGIN CTAB
M  V30 COUNTS 58 63 0 0 0
M  V30 BEGIN ATOM
M  V30 1 C 2.764584 -1.281715 4.947026 0
M  V30 2 C 3.303357 -1.720064 3.601602 0
M  V30 3 C 4.719506 -2.249095 3.722760 0
M  V30 4 O 3.277294 -0.699317 2.646451 0
M  V30 5 C 2.478700 -1.063555 1.588315 0
M  V30 6 C 1.302849 -0.117951 1.356503 0
M  V30 7 N 0.302487 -0.871027 0.590368 0
M  V30 8 C -1.022331 -0.723267 0.827504 0
M  V30 9 C -1.684224 -1.584886 -0.055824 0
M  V30 10 C -3.140078 -1.577035 0.030723 0
M  V30 11 C -3.940320 -0.528957 0.081306 0
M  V30 12 C -3.768987 0.940361 0.069731 0
M  V30 13 C -4.303818 1.921793 0.884665 0
M  V30 14 N -3.887252 3.116073 0.461193 0
M  V30 15 C -3.107578 2.921968 -0.593606 0
M  V30 16 C -2.476494 3.897992 -1.342181 0
M  V30 17 C -1.697474 3.517625 -2.436340 0
M  V30 18 C -1.604210 2.162158 -2.708354 0
M  V30 19 C -2.270467 1.263792 -1.903257 0
M  V30 20 N -3.026397 1.604593 -0.843729 0
M  V30 21 C -5.334301 -1.026611 0.171588 0
M  V30 22 O -6.433669 -0.371249 0.243059 0
M  V30 23 N -5.320515 -2.452145 0.172140 0
M  V30 24 C -3.963783 -2.787915 0.085380 0
M  V30 25 O -3.584611 -3.987564 0.063367 0
M  V30 26 C -0.727680 -2.225566 -0.801367 0
M  V30 27 C -0.949009 -3.143528 -1.782781 0
M  V30 28 C 0.170044 -3.655108 -2.408586 0
M  V30 29 C 1.452579 -3.236257 -2.035854 0
M  V30 30 C 1.604526 -2.300965 -1.032705 0
M  V30 31 C 0.522119 -1.765787 -0.383319 0
M  V30 32 C 3.044339 -1.988762 -0.786743 0
M  V30 33 N 3.202017 -1.055455 0.311319 0
M  V30 34 C 4.106743 0.047525 0.330638 0
M  V30 35 O 4.292057 0.886344 1.241538 0
M  V30 36 H 1.751394 -1.682878 5.164384 0
M  V30 37 H 3.434288 -1.707553 5.743023 0
M  V30 38 H 2.697282 -0.186959 5.066848 0
M  V30 39 H 2.667935 -2.554596 3.239950 0
M  V30 40 H 5.362330 -1.776008 2.966942 0
M  V30 41 H 5.101429 -1.979690 4.732883 0
M  V30 42 H 4.794108 -3.340503 3.574737 0
M  V30 43 H 2.047997 -2.071665 1.749372 0
M  V30 44 H 0.881703 0.222803 2.318956 0
M  V30 45 H 1.635594 0.785362 0.807639 0
M  V30 46 H -1.401021 -0.028332 1.595728 0
M  V30 47 H -4.945707 1.646418 1.703828 0
M  V30 48 H -2.517638 4.959154 -1.175199 0
M  V30 49 H -1.184967 4.244463 -3.051056 0
M  V30 50 H -0.999368 1.863134 -3.555334 0
M  V30 51 H -2.144089 0.252448 -2.189876 0
M  V30 52 H -6.140173 -3.076671 0.225578 0
M  V30 53 H -1.944964 -3.458623 -2.065686 0
M  V30 54 H 0.076055 -4.398853 -3.210699 0
M  V30 55 H 2.370703 -3.614601 -2.508475 0
M  V30 56 H 3.569783 -2.931044 -0.547044 0
M  V30 57 H 3.469189 -1.612577 -1.726720 0
M  V30 58 H 4.862742 0.542475 -0.285038 0
M  V30 END ATOM
M  V30 BEGIN BOND
M  V30 1 1 1 2
M  V30 2 1 2 3
M  V30 3 1 2 4
M  V30 4 1 4 5
M  V30 5 1 5 6
M  V30 6 1 6 7
M  V30 7 1 7 8
M  V30 8 2 8 9
M  V30 9 1 9 10
M  V30 10 2 10 11
M  V30 11 1 11 12
M  V30 12 2 12 13
M  V30 13 1 13 14
M  V30 14 2 14 15
M  V30 15 1 15 16
M  V30 16 2 16 17
M  V30 17 1 17 18
M  V30 18 2 18 19
M  V30 19 1 19 20
M  V30 20 1 11 21
M  V30 21 2 21 22
M  V30 22 1 21 23
M  V30 23 1 23 24
M  V30 24 2 24 25
M  V30 25 1 9 26
M  V30 26 2 26 27
M  V30 27 1 27 28
M  V30 28 2 28 29
M  V30 29 1 29 30
M  V30 30 2 30 31
M  V30 31 1 30 32
M  V30 32 1 32 33
M  V30 33 1 33 34
M  V30 34 2 34 35
M  V30 35 1 33 5
M  V30 36 1 31 7
M  V30 37 1 24 10
M  V30 38 1 31 26
M  V30 39 1 20 12
M  V30 40 1 20 15
M  V30 41 1 1 36
M  V30 42 1 1 37
M  V30 43 1 1 38
M  V30 44 1 2 39
M  V30 45 1 3 40
M  V30 46 1 3 41
M  V30 47 1 3 42
M  V30 48 1 5 43
M  V30 49 1 6 44
M  V30 50 1 6 45
M  V30 51 1 8 46
M  V30 52 1 13 47
M  V30 53 1 16 48
M  V30 54 1 17 49
M  V30 55 1 18 50
M  V30 56 1 19 51
M  V30 57 1 23 52
M  V30 58 1 27 53
M  V30 59 1 28 54
M  V30 60 1 29 55
M  V30 61 1 32 56
M  V30 62 1 32 57
M  V30 63 1 34 58
M  V30 END BOND
M  V30 END CTAB
M  END
>  <Dataset>  (262) 
ChEMBL_Kinases

>  <Ligand_Instance>  (262) 
nan

>  <PDB_ID>  (262) 
nan

>  <Standardized_SMILES>  (262) 
CC(C)OC1Cn2cc(C3=C(c4cnc5ccccn45)C(=O)NC3=O)c3cccc(c32)CN1C=O

>  <Name>  (262) 
nan

>  <Pocket>  (262) 
nan

>  <ATP_Site>  (262) 
nan

>  <Peripheral>  (262) 
nan

>  <Num_H_Atoms_ProtBoundConf>  (262) 
nan

>  <Num_Resolved_Atoms>  (262) 
nan

>  <Num_Not_Resolved_Atoms>  (262) 
nan

$$$$
CHEMBL4164408
     RDKit          3D

  0  0  0  0  0  0  0  0  0  0999 V3000
M  V30 BEGIN CTAB
M  V30 COUNTS 41 44 0 0 0
M  V30 BEGIN ATOM
M  V30 1 C 1.250323 -5.458606 1.711824 0
M  V30 2 C 1.502868 -4.357366 2.718201 0
M  V30 3 C 2.300683 -4.447387 3.843721 0
M  V30 4 C 2.425345 -3.359950 4.676908 0
M  V30 5 C 1.749948 -2.190779 4.374883 0
M  V30 6 C 0.953891 -2.090510 3.256989 0
M  V30 7 N 0.236634 -0.898498 2.946402 0
M  V30 8 C -0.498431 -0.637286 1.759293 0
M  V30 9 N 0.073779 0.320584 0.969769 0
M  V30 10 C -0.463247 0.707949 -0.204092 0
M  V30 11 N 0.219357 1.733133 -0.945350 0
M  V30 12 C -0.379265 3.020295 -1.336261 0
M  V30 13 C 0.487712 4.096698 -0.701958 0
M  V30 14 O 1.446533 3.545790 0.172204 0
M  V30 15 C 2.359340 2.742121 -0.533859 0
M  V30 16 C 1.595184 1.789478 -1.467130 0
M  V30 17 C -1.618300 0.161912 -0.676961 0
M  V30 18 N -2.387712 0.317480 -1.769938 0
M  V30 19 C -3.426417 -0.550399 -1.638863 0
M  V30 20 N -3.318254 -1.252275 -0.471232 0
M  V30 21 C -2.196873 -0.811683 0.127645 0
M  V30 22 N -1.650356 -1.188233 1.296975 0
M  V30 23 C 0.837641 -3.184862 2.432005 0
M  V30 24 H 1.227793 -5.049641 0.677252 0
M  V30 25 H 0.181090 -5.787934 1.909617 0
M  V30 26 H 1.933417 -6.294768 1.866370 0
M  V30 27 H 2.777118 -5.399794 3.980551 0
M  V30 28 H 3.046268 -3.444466 5.548854 0
M  V30 29 H 1.817928 -1.312447 5.001235 0
M  V30 30 H 0.250865 -0.127923 3.663834 0
M  V30 31 H -0.382723 3.075233 -2.436683 0
M  V30 32 H -1.394777 3.126537 -0.971758 0
M  V30 33 H 0.987082 4.675917 -1.508238 0
M  V30 34 H -0.137163 4.752299 -0.082135 0
M  V30 35 H 3.081340 3.357415 -1.104898 0
M  V30 36 H 2.942685 2.186936 0.231210 0
M  V30 37 H 2.093991 0.803103 -1.334378 0
M  V30 38 H 1.658080 2.079011 -2.510239 0
M  V30 39 H -4.240262 -0.681626 -2.351072 0
M  V30 40 H -3.986659 -1.991242 -0.122199 0
M  V30 41 H 0.196379 -3.070267 1.556583 0
M  V30 END ATOM
M  V30 BEGIN BOND
M  V30 1 1 1 2
M  V30 2 2 2 3
M  V30 3 1 3 4
M  V30 4 2 4 5
M  V30 5 1 5 6
M  V30 6 1 6 7
M  V30 7 1 7 8
M  V30 8 2 8 9
M  V30 9 1 9 10
M  V30 10 1 10 11
M  V30 11 1 11 12
M  V30 12 1 12 13
M  V30 13 1 13 14
M  V30 14 1 14 15
M  V30 15 1 15 16
M  V30 16 2 10 17
M  V30 17 1 17 18
M  V30 18 2 18 19
M  V30 19 1 19 20
M  V30 20 1 20 21
M  V30 21 2 21 22
M  V30 22 2 6 23
M  V30 23 1 23 2
M  V30 24 1 22 8
M  V30 25 1 16 11
M  V30 26 1 21 17
M  V30 27 1 1 24
M  V30 28 1 1 25
M  V30 29 1 1 26
M  V30 30 1 3 27
M  V30 31 1 4 28
M  V30 32 1 5 29
M  V30 33 1 7 30
M  V30 34 1 12 31
M  V30 35 1 12 32
M  V30 36 1 13 33
M  V30 37 1 13 34
M  V30 38 1 15 35
M  V30 39 1 15 36
M  V30 40 1 16 37
M  V30 41 1 16 38
M  V30 42 1 19 39
M  V30 43 1 20 40
M  V30 44 1 23 41
M  V30 END BOND
M  V30 END CTAB
M  END
>  <Dataset>  (263) 
ChEMBL_Kinases

>  <Ligand_Instance>  (263) 
nan

>  <PDB_ID>  (263) 
nan

>  <Standardized_SMILES>  (263) 
Cc1cccc(Nc2nc(N3CCOCC3)c3nc[nH]c3n2)c1

>  <Name>  (263) 
nan

>  <Pocket>  (263) 
nan

>  <ATP_Site>  (263) 
nan

>  <Peripheral>  (263) 
nan

>  <Num_H_Atoms_ProtBoundConf>  (263) 
nan

>  <Num_Resolved_Atoms>  (263) 
nan

>  <Num_Not_Resolved_Atoms>  (263) 
nan

$$$$
CHEMBL4787460
     RDKit          3D

  0  0  0  0  0  0  0  0  0  0999 V3000
M  V30 BEGIN CTAB
M  V30 COUNTS 40 43 0 0 0
M  V30 BEGIN ATOM
M  V30 1 C 0.141305 -4.659470 3.043456 0
M  V30 2 C 0.502175 -3.200000 3.174582 0
M  V30 3 O 1.726406 -3.062771 3.823969 0
M  V30 4 C 0.604347 -2.621634 1.818202 0
M  V30 5 C 0.692652 -2.130706 0.717389 0
M  V30 6 C 0.795532 -1.522245 -0.586626 0
M  V30 7 C 0.914536 -2.310662 -1.727708 0
M  V30 8 C 1.011343 -1.676928 -2.970767 0
M  V30 9 C 0.993148 -0.304622 -3.104319 0
M  V30 10 N 1.083080 0.301314 -4.301639 0
M  V30 11 C 1.060365 1.641535 -4.414514 0
M  V30 12 C 0.940631 2.352940 -3.239777 0
M  V30 13 C 0.842369 1.795499 -1.958080 0
M  V30 14 C 0.736371 2.717896 -0.836714 0
M  V30 15 C -0.204498 3.751155 -0.907557 0
M  V30 16 N -0.130323 4.486041 0.223000 0
M  V30 17 N 0.813623 3.971773 1.013695 0
M  V30 18 C 1.343450 2.906491 0.387021 0
M  V30 19 C 0.874165 0.419208 -1.944975 0
M  V30 20 C 0.775706 -0.157014 -0.700416 0
M  V30 21 C -0.514032 -2.456315 3.992824 0
M  V30 22 C -1.650761 -2.761834 4.629835 0
M  V30 23 C -2.366128 -1.845498 5.301952 0
M  V30 24 C -1.766918 -0.496598 5.256781 0
M  V30 25 S -0.208936 -0.771876 4.213906 0
M  V30 26 H -0.351292 -5.000201 3.956688 0
M  V30 27 H 1.042018 -5.202357 2.751546 0
M  V30 28 H -0.604310 -4.750975 2.212895 0
M  V30 29 H 1.643844 -2.588088 4.687059 0
M  V30 30 H 0.932513 -3.393441 -1.662161 0
M  V30 31 H 1.105237 -2.301686 -3.871279 0
M  V30 32 H 1.129834 2.165444 -5.357041 0
M  V30 33 H 0.922539 3.441873 -3.335440 0
M  V30 34 H -0.913173 4.018026 -1.665643 0
M  V30 35 H 1.119206 4.306277 1.960213 0
M  V30 36 H 2.128546 2.227517 0.688182 0
M  V30 37 H 0.678609 0.422936 0.198106 0
M  V30 38 H -1.909004 -3.806296 4.535994 0
M  V30 39 H -3.283207 -2.077035 5.819528 0
M  V30 40 H -2.447490 0.323882 5.883658 0
M  V30 END ATOM
M  V30 BEGIN BOND
M  V30 1 1 1 2
M  V30 2 1 2 3
M  V30 3 1 2 4
M  V30 4 3 4 5
M  V30 5 1 5 6
M  V30 6 2 6 7
M  V30 7 1 7 8
M  V30 8 2 8 9
M  V30 9 1 9 10
M  V30 10 2 10 11
M  V30 11 1 11 12
M  V30 12 2 12 13
M  V30 13 1 13 14
M  V30 14 1 14 15
M  V30 15 2 15 16
M  V30 16 1 16 17
M  V30 17 1 17 18
M  V30 18 1 13 19
M  V30 19 2 19 20
M  V30 20 1 2 21
M  V30 21 2 21 22
M  V30 22 1 22 23
M  V30 23 2 23 24
M  V30 24 1 24 25
M  V30 25 1 20 6
M  V30 26 1 25 21
M  V30 27 1 19 9
M  V30 28 2 18 14
M  V30 29 1 1 26
M  V30 30 1 1 27
M  V30 31 1 1 28
M  V30 32 1 3 29
M  V30 33 1 7 30
M  V30 34 1 8 31
M  V30 35 1 11 32
M  V30 36 1 12 33
M  V30 37 1 15 34
M  V30 38 1 17 35
M  V30 39 1 18 36
M  V30 40 1 20 37
M  V30 41 1 22 38
M  V30 42 1 23 39
M  V30 43 1 24 40
M  V30 END BOND
M  V30 END CTAB
M  END
>  <Dataset>  (264) 
ChEMBL_Kinases

>  <Ligand_Instance>  (264) 
nan

>  <PDB_ID>  (264) 
nan

>  <Standardized_SMILES>  (264) 
CC(O)(C#Cc1ccc2nccc(-c3cn[nH]c3)c2c1)c1cccs1

>  <Name>  (264) 
nan

>  <Pocket>  (264) 
nan

>  <ATP_Site>  (264) 
nan

>  <Peripheral>  (264) 
nan

>  <Num_H_Atoms_ProtBoundConf>  (264) 
nan

>  <Num_Resolved_Atoms>  (264) 
nan

>  <Num_Not_Resolved_Atoms>  (264) 
nan

$$$$
CHEMBL4787496
     RDKit          3D

  0  0  0  0  0  0  0  0  0  0999 V3000
M  V30 BEGIN CTAB
M  V30 COUNTS 60 63 0 0 0
M  V30 BEGIN ATOM
M  V30 1 C 6.467755 -4.257815 -1.553523 0
M  V30 2 O 6.717727 -2.967174 -0.975047 0
M  V30 3 C 5.676906 -2.060013 -0.873732 0
M  V30 4 O 4.595736 -2.503319 -1.326401 0
M  V30 5 C 5.951704 -0.804700 -0.296473 0
M  V30 6 S 7.521204 -0.229177 0.332030 0
M  V30 7 C 6.923574 1.431745 0.874984 0
M  V30 8 C 5.596090 1.408800 0.536491 0
M  V30 9 C 5.086167 0.289865 -0.055711 0
M  V30 10 N 3.726174 0.196571 -0.436451 0
M  V30 11 C 2.697857 1.132416 -0.282617 0
M  V30 12 N 1.786728 1.086702 0.694606 0
M  V30 13 C 0.790397 2.003144 0.844893 0
M  V30 14 N -0.002882 1.636171 1.987420 0
M  V30 15 C -1.164280 0.828206 1.694663 0
M  V30 16 C -1.533875 0.485052 0.408505 0
M  V30 17 C -2.659463 -0.284877 0.186896 0
M  V30 18 C -3.454524 -0.741211 1.214811 0
M  V30 19 N -4.586221 -1.514734 0.859376 0
M  V30 20 C -5.327546 -1.444246 -0.378891 0
M  V30 21 C -5.480927 -2.765213 -1.073433 0
M  V30 22 N -4.880124 -3.870381 -0.386363 0
M  V30 23 C -3.572453 -4.239610 -0.876539 0
M  V30 24 C -5.042308 -3.909686 1.026948 0
M  V30 25 C -5.178526 -2.555306 1.693156 0
M  V30 26 C -3.071243 -0.390597 2.470670 0
M  V30 27 C -1.963686 0.372727 2.754472 0
M  V30 28 O -1.567679 0.734094 4.029760 0
M  V30 29 C -2.343159 0.302209 5.129151 0
M  V30 30 N 0.705861 3.027554 -0.040369 0
M  V30 31 C 1.596978 3.112754 -1.034426 0
M  V30 32 C 2.610185 2.171495 -1.179383 0
M  V30 33 N 3.507346 2.347605 -2.275551 0 CHG=1 VAL=4
M  V30 34 O 3.728333 3.500220 -2.753367 0
M  V30 35 O 4.188347 1.291909 -2.885931 0 CHG=-1 VAL=1
M  V30 36 H 7.241735 -4.987748 -1.228322 0
M  V30 37 H 6.367505 -4.191889 -2.651245 0
M  V30 38 H 5.485236 -4.586109 -1.149186 0
M  V30 39 H 7.553883 2.158234 1.334719 0
M  V30 40 H 5.047875 2.304841 0.775008 0
M  V30 41 H 3.304539 -0.622912 -0.898967 0
M  V30 42 H 0.185864 1.895558 2.962685 0
M  V30 43 H -0.926854 0.830612 -0.415120 0
M  V30 44 H -2.866898 -0.501709 -0.843710 0
M  V30 45 H -6.314738 -0.966569 -0.136899 0
M  V30 46 H -4.843715 -0.756797 -1.089566 0
M  V30 47 H -5.044257 -2.747204 -2.115644 0
M  V30 48 H -6.569944 -2.958377 -1.214518 0
M  V30 49 H -3.392845 -5.291386 -0.648150 0
M  V30 50 H -3.608856 -4.087576 -1.987718 0
M  V30 51 H -2.752643 -3.614609 -0.512876 0
M  V30 52 H -5.863551 -4.582704 1.324290 0
M  V30 53 H -4.081697 -4.343776 1.436836 0
M  V30 54 H -4.759420 -2.583635 2.697855 0
M  V30 55 H -6.256157 -2.329803 1.776378 0
M  V30 56 H -3.697520 -0.746390 3.302205 0
M  V30 57 H -2.426508 -0.793571 5.076541 0
M  V30 58 H -1.936989 0.626818 6.104724 0
M  V30 59 H -3.362629 0.748531 4.977904 0
M  V30 60 H 1.429083 3.962029 -1.666981 0
M  V30 END ATOM
M  V30 BEGIN BOND
M  V30 1 1 1 2
M  V30 2 1 2 3
M  V30 3 2 3 4
M  V30 4 1 3 5
M  V30 5 1 5 6
M  V30 6 1 6 7
M  V30 7 2 7 8
M  V30 8 1 8 9
M  V30 9 1 9 10
M  V30 10 1 10 11
M  V30 11 2 11 12
M  V30 12 1 12 13
M  V30 13 1 13 14
M  V30 14 1 14 15
M  V30 15 2 15 16
M  V30 16 1 16 17
M  V30 17 2 17 18
M  V30 18 1 18 19
M  V30 19 1 19 20
M  V30 20 1 20 21
M  V30 21 1 21 22
M  V30 22 1 22 23
M  V30 23 1 22 24
M  V30 24 1 24 25
M  V30 25 1 18 26
M  V30 26 2 26 27
M  V30 27 1 27 28
M  V30 28 1 28 29
M  V30 29 2 13 30
M  V30 30 1 30 31
M  V30 31 2 31 32
M  V30 32 1 32 33
M  V30 33 2 33 34
M  V30 34 1 33 35
M  V30 35 2 9 5
M  V30 36 1 32 11
M  V30 37 1 27 15
M  V30 38 1 25 19
M  V30 39 1 1 36
M  V30 40 1 1 37
M  V30 41 1 1 38
M  V30 42 1 7 39
M  V30 43 1 8 40
M  V30 44 1 10 41
M  V30 45 1 14 42
M  V30 46 1 16 43
M  V30 47 1 17 44
M  V30 48 1 20 45
M  V30 49 1 20 46
M  V30 50 1 21 47
M  V30 51 1 21 48
M  V30 52 1 23 49
M  V30 53 1 23 50
M  V30 54 1 23 51
M  V30 55 1 24 52
M  V30 56 1 24 53
M  V30 57 1 25 54
M  V30 58 1 25 55
M  V30 59 1 26 56
M  V30 60 1 29 57
M  V30 61 1 29 58
M  V30 62 1 29 59
M  V30 63 1 31 60
M  V30 END BOND
M  V30 END CTAB
M  END
>  <Dataset>  (265) 
ChEMBL_Kinases

>  <Ligand_Instance>  (265) 
nan

>  <PDB_ID>  (265) 
nan

>  <Standardized_SMILES>  (265) 
COC(=O)c1sccc1Nc1nc(Nc2ccc(N3CCN(C)CC3)cc2OC)ncc1[N+](=O)[O-]

>  <Name>  (265) 
nan

>  <Pocket>  (265) 
nan

>  <ATP_Site>  (265) 
nan

>  <Peripheral>  (265) 
nan

>  <Num_H_Atoms_ProtBoundConf>  (265) 
nan

>  <Num_Resolved_Atoms>  (265) 
nan

>  <Num_Not_Resolved_Atoms>  (265) 
nan

$$$$
CHEMBL4787515
     RDKit          3D

  0  0  0  0  0  0  0  0  0  0999 V3000
M  V30 BEGIN CTAB
M  V30 COUNTS 65 69 0 0 0
M  V30 BEGIN ATOM
M  V30 1 C 2.896322 -2.015131 3.806907 0
M  V30 2 C 3.150074 -0.979516 2.760600 0
M  V30 3 C 4.414573 -0.522813 2.466150 0
M  V30 4 C 4.621308 0.448872 1.479981 0
M  V30 5 C 3.519459 0.961950 0.783867 0
M  V30 6 N 3.713859 1.965015 -0.237235 0
M  V30 7 C 3.921144 1.476053 -1.538702 0
M  V30 8 O 3.912244 0.224029 -1.657041 0
M  V30 9 C 4.139757 2.291514 -2.729325 0
M  V30 10 C 4.323607 1.622493 -3.923011 0
M  V30 11 C 4.533676 2.361278 -5.072379 0
M  V30 12 C 4.565740 3.741857 -5.066836 0
M  V30 13 C 4.377966 4.370096 -3.855527 0
M  V30 14 C 4.404787 5.841881 -3.805311 0
M  V30 15 F 3.128420 6.365272 -3.848248 0
M  V30 16 F 4.990430 6.273309 -2.615977 0
M  V30 17 F 5.088687 6.378827 -4.885560 0
M  V30 18 C 4.161801 3.668077 -2.664599 0
M  V30 19 C 2.250643 0.473395 1.111007 0
M  V30 20 C 2.063507 -0.479363 2.080206 0
M  V30 21 C 0.712277 -0.906106 2.330337 0
M  V30 22 C -0.427478 -1.263049 2.519939 0
M  V30 23 C -1.788682 -1.685201 2.732349 0
M  V30 24 N -2.571424 -2.195451 1.764528 0
M  V30 25 N -3.778125 -2.506046 2.212214 0
M  V30 26 C -4.884398 -3.077710 1.453536 0
M  V30 27 C -4.420200 -4.244791 0.609381 0
M  V30 28 C -3.822804 -3.696737 -0.662297 0
M  V30 29 N -4.878373 -3.200199 -1.505285 0
M  V30 30 C -5.190146 -4.169541 -2.511080 0
M  V30 31 C -5.998725 -2.713830 -0.759096 0
M  V30 32 C -5.465348 -2.043914 0.494951 0
M  V30 33 C -3.768900 -2.182096 3.519197 0
M  V30 34 N -4.693723 -2.262948 4.503096 0
M  V30 35 C -4.405405 -1.851564 5.770179 0
M  V30 36 N -3.185241 -1.346338 6.096425 0
M  V30 37 C -2.222656 -1.240303 5.161604 0
M  V30 38 N -0.920981 -0.725787 5.409814 0
M  V30 39 C -2.542763 -1.664274 3.888353 0
M  V30 40 H 2.643320 -2.994160 3.357265 0
M  V30 41 H 2.091302 -1.706066 4.503618 0
M  V30 42 H 3.799293 -2.169192 4.433443 0
M  V30 43 H 5.273518 -0.921701 3.007711 0
M  V30 44 H 5.607691 0.816694 1.238236 0
M  V30 45 H 3.715525 3.017474 -0.104049 0
M  V30 46 H 4.312938 0.534018 -4.014583 0
M  V30 47 H 4.683437 1.867406 -6.037666 0
M  V30 48 H 4.731339 4.330574 -5.971934 0
M  V30 49 H 4.019860 4.195482 -1.741895 0
M  V30 50 H 1.408702 0.892131 0.551274 0
M  V30 51 H -5.673636 -3.387870 2.179933 0
M  V30 52 H -3.643002 -4.815256 1.190288 0
M  V30 53 H -5.297494 -4.888460 0.396717 0
M  V30 54 H -3.211524 -4.477987 -1.172795 0
M  V30 55 H -3.165015 -2.839299 -0.447997 0
M  V30 56 H -6.165397 -3.873107 -2.992219 0
M  V30 57 H -5.277423 -5.176262 -2.092464 0
M  V30 58 H -4.375920 -4.170844 -3.288128 0
M  V30 59 H -6.721859 -3.517244 -0.523499 0
M  V30 60 H -6.490617 -1.914632 -1.351657 0
M  V30 61 H -4.614765 -1.404134 0.168166 0
M  V30 62 H -6.200200 -1.379299 0.982205 0
M  V30 63 H -5.117625 -1.898912 6.588342 0
M  V30 64 H -0.424742 0.027044 4.886710 0
M  V30 65 H -0.513678 -1.245418 6.242657 0
M  V30 END ATOM
M  V30 BEGIN BOND
M  V30 1 1 1 2
M  V30 2 2 2 3
M  V30 3 1 3 4
M  V30 4 2 4 5
M  V30 5 1 5 6
M  V30 6 1 6 7
M  V30 7 2 7 8
M  V30 8 1 7 9
M  V30 9 2 9 10
M  V30 10 1 10 11
M  V30 11 2 11 12
M  V30 12 1 12 13
M  V30 13 1 13 14
M  V30 14 1 14 15
M  V30 15 1 14 16
M  V30 16 1 14 17
M  V30 17 2 13 18
M  V30 18 1 5 19
M  V30 19 2 19 20
M  V30 20 1 20 21
M  V30 21 3 21 22
M  V30 22 1 22 23
M  V30 23 2 23 24
M  V30 24 1 24 25
M  V30 25 1 25 26
M  V30 26 1 26 27
M  V30 27 1 27 28
M  V30 28 1 28 29
M  V30 29 1 29 30
M  V30 30 1 29 31
M  V30 31 1 31 32
M  V30 32 1 25 33
M  V30 33 2 33 34
M  V30 34 1 34 35
M  V30 35 2 35 36
M  V30 36 1 36 37
M  V30 37 1 37 38
M  V30 38 2 37 39
M  V30 39 1 20 2
M  V30 40 1 39 23
M  V30 41 1 18 9
M  V30 42 1 32 26
M  V30 43 1 39 33
M  V30 44 1 1 40
M  V30 45 1 1 41
M  V30 46 1 1 42
M  V30 47 1 3 43
M  V30 48 1 4 44
M  V30 49 1 6 45
M  V30 50 1 10 46
M  V30 51 1 11 47
M  V30 52 1 12 48
M  V30 53 1 18 49
M  V30 54 1 19 50
M  V30 55 1 26 51
M  V30 56 1 27 52
M  V30 57 1 27 53
M  V30 58 1 28 54
M  V30 59 1 28 55
M  V30 60 1 30 56
M  V30 61 1 30 57
M  V30 62 1 30 58
M  V30 63 1 31 59
M  V30 64 1 31 60
M  V30 65 1 32 61
M  V30 66 1 32 62
M  V30 67 1 35 63
M  V30 68 1 38 64
M  V30 69 1 38 65
M  V30 END BOND
M  V30 END CTAB
M  END
>  <Dataset>  (266) 
ChEMBL_Kinases

>  <Ligand_Instance>  (266) 
nan

>  <PDB_ID>  (266) 
nan

>  <Standardized_SMILES>  (266) 
Cc1ccc(NC(=O)c2cccc(C(F)(F)F)c2)cc1C#Cc1nn(C2CCN(C)CC2)c2ncnc(N)c12

>  <Name>  (266) 
nan

>  <Pocket>  (266) 
nan

>  <ATP_Site>  (266) 
nan

>  <Peripheral>  (266) 
nan

>  <Num_H_Atoms_ProtBoundConf>  (266) 
nan

>  <Num_Resolved_Atoms>  (266) 
nan

>  <Num_Not_Resolved_Atoms>  (266) 
nan

$$$$
CHEMBL4787590
     RDKit          3D

  0  0  0  0  0  0  0  0  0  0999 V3000
M  V30 BEGIN CTAB
M  V30 COUNTS 85 91 0 0 0
M  V30 BEGIN ATOM
M  V30 1 C -1.403072 -5.486806 8.276062 0
M  V30 2 N -0.804233 -4.593362 7.274811 0
M  V30 3 C -1.277970 -4.725859 5.932137 0
M  V30 4 O -2.161533 -5.644173 5.927968 0
M  V30 5 C -0.697418 -3.858841 4.948461 0
M  V30 6 S 0.588246 -2.596716 5.228693 0
M  V30 7 C 0.625536 -2.093775 3.456644 0
M  V30 8 C 1.481250 -1.052901 2.915088 0
M  V30 9 C 1.414481 -0.772556 1.573612 0
M  V30 10 C 2.248134 0.229091 1.130325 0
M  V30 11 N 3.082159 0.902597 1.941759 0
M  V30 12 C 3.173756 0.655352 3.256724 0
M  V30 13 N 4.075906 1.417679 4.018051 0
M  V30 14 C 4.360375 1.354061 5.401106 0
M  V30 15 O 3.760042 0.521071 6.116075 0
M  V30 16 C 5.343684 2.220300 6.102359 0
M  V30 17 C 5.196230 2.479972 7.557993 0
M  V30 18 C 6.206181 1.466439 7.123768 0
M  V30 19 C 2.338749 -0.345233 3.688619 0
M  V30 20 N -0.203022 -2.815561 2.925437 0
M  V30 21 C -0.902170 -3.718247 3.602081 0
M  V30 22 O -1.852669 -4.552585 3.036887 0
M  V30 23 C -2.217303 -4.589233 1.679192 0
M  V30 24 C -2.714951 -3.233730 1.270659 0
M  V30 25 C -3.140886 -3.194025 -0.170128 0
M  V30 26 C -2.147863 -2.898710 -1.111044 0
M  V30 27 N -2.774485 -2.937708 -2.321044 0
M  V30 28 C -2.063714 -2.694491 -3.584787 0
M  V30 29 C -2.094576 -1.201650 -3.862189 0
M  V30 30 N -1.423245 -0.861026 -5.087933 0
M  V30 31 C -1.398301 0.534575 -5.210574 0
M  V30 32 C -2.300277 1.395473 -5.791507 0
M  V30 33 C -2.146738 2.748601 -5.835769 0
M  V30 34 N -1.062368 3.287035 -5.287321 0
M  V30 35 C -0.124345 2.500914 -4.693485 0
M  V30 36 C 1.008597 3.089483 -4.121753 0
M  V30 37 C 1.973537 2.307667 -3.511799 0
M  V30 38 C 1.858390 0.932826 -3.444313 0
M  V30 39 O 2.773691 0.072592 -2.855631 0
M  V30 40 C 3.955807 0.524389 -2.243923 0
M  V30 41 C 0.738488 0.367764 -4.011385 0
M  V30 42 C -0.263889 1.112589 -4.638434 0
M  V30 43 C -3.249993 3.437130 -6.511185 0
M  V30 44 C -4.614785 2.924770 -6.212752 0
M  V30 45 C -4.694706 1.490227 -5.798163 0
M  V30 46 C -3.491006 0.764554 -6.386819 0
M  V30 47 N -4.048882 -3.233330 -2.133136 0
M  V30 48 N -4.290973 -3.393047 -0.837743 0
M  V30 49 H -2.475006 -5.654213 8.110481 0
M  V30 50 H -0.817443 -6.444503 8.230361 0
M  V30 51 H -1.273007 -5.103231 9.301317 0
M  V30 52 H -0.078874 -3.934019 7.641582 0
M  V30 53 H 0.732218 -1.338243 0.955683 0
M  V30 54 H 2.240062 0.491209 0.091808 0
M  V30 55 H 4.648474 2.155459 3.554594 0
M  V30 56 H 5.899023 2.975045 5.493565 0
M  V30 57 H 4.287351 2.198415 8.106149 0
M  V30 58 H 5.660489 3.418560 7.943009 0
M  V30 59 H 5.948183 0.424078 7.372811 0
M  V30 60 H 7.282512 1.675881 7.150360 0
M  V30 61 H 2.351514 -0.607044 4.735819 0
M  V30 62 H -2.985476 -5.376942 1.555991 0
M  V30 63 H -1.287953 -4.812918 1.111201 0
M  V30 64 H -3.661344 -3.049283 1.857423 0
M  V30 65 H -2.054955 -2.405862 1.520432 0
M  V30 66 H -1.079366 -2.674559 -0.982018 0
M  V30 67 H -1.041108 -3.081436 -3.565158 0
M  V30 68 H -2.642346 -3.251945 -4.375811 0
M  V30 69 H -1.578570 -0.716927 -3.025329 0
M  V30 70 H -3.186944 -0.918612 -3.897673 0
M  V30 71 H -1.042327 -1.612055 -5.734014 0
M  V30 72 H 1.166559 4.169890 -4.137014 0
M  V30 73 H 2.859556 2.739795 -3.060397 0
M  V30 74 H 4.650526 0.815689 -3.057975 0
M  V30 75 H 3.746373 1.452951 -1.662838 0
M  V30 76 H 4.442981 -0.261620 -1.634970 0
M  V30 77 H 0.616253 -0.719550 -3.978366 0
M  V30 78 H -3.149522 4.540946 -6.302794 0
M  V30 79 H -3.057475 3.361561 -7.616571 0
M  V30 80 H -5.073998 3.600853 -5.436059 0
M  V30 81 H -5.274476 3.057456 -7.122228 0
M  V30 82 H -4.629777 1.428358 -4.677464 0
M  V30 83 H -5.651818 1.062873 -6.156617 0
M  V30 84 H -3.544922 -0.317259 -6.283593 0
M  V30 85 H -3.526832 1.014263 -7.484647 0
M  V30 END ATOM
M  V30 BEGIN BOND
M  V30 1 1 1 2
M  V30 2 1 2 3
M  V30 3 2 3 4
M  V30 4 1 3 5
M  V30 5 1 5 6
M  V30 6 1 6 7
M  V30 7 1 7 8
M  V30 8 2 8 9
M  V30 9 1 9 10
M  V30 10 2 10 11
M  V30 11 1 11 12
M  V30 12 1 12 13
M  V30 13 1 13 14
M  V30 14 2 14 15
M  V30 15 1 14 16
M  V30 16 1 16 17
M  V30 17 1 17 18
M  V30 18 2 12 19
M  V30 19 2 7 20
M  V30 20 1 20 21
M  V30 21 1 21 22
M  V30 22 1 22 23
M  V30 23 1 23 24
M  V30 24 1 24 25
M  V30 25 2 25 26
M  V30 26 1 26 27
M  V30 27 1 27 28
M  V30 28 1 28 29
M  V30 29 1 29 30
M  V30 30 1 30 31
M  V30 31 2 31 32
M  V30 32 1 32 33
M  V30 33 2 33 34
M  V30 34 1 34 35
M  V30 35 2 35 36
M  V30 36 1 36 37
M  V30 37 2 37 38
M  V30 38 1 38 39
M  V30 39 1 39 40
M  V30 40 1 38 41
M  V30 41 2 41 42
M  V30 42 1 33 43
M  V30 43 1 43 44
M  V30 44 1 44 45
M  V30 45 1 45 46
M  V30 46 1 27 47
M  V30 47 2 47 48
M  V30 48 2 21 5
M  V30 49 1 48 25
M  V30 50 1 19 8
M  V30 51 1 42 31
M  V30 52 1 18 16
M  V30 53 1 46 32
M  V30 54 1 42 35
M  V30 55 1 1 49
M  V30 56 1 1 50
M  V30 57 1 1 51
M  V30 58 1 2 52
M  V30 59 1 9 53
M  V30 60 1 10 54
M  V30 61 1 13 55
M  V30 62 1 16 56
M  V30 63 1 17 57
M  V30 64 1 17 58
M  V30 65 1 18 59
M  V30 66 1 18 60
M  V30 67 1 19 61
M  V30 68 1 23 62
M  V30 69 1 23 63
M  V30 70 1 24 64
M  V30 71 1 24 65
M  V30 72 1 26 66
M  V30 73 1 28 67
M  V30 74 1 28 68
M  V30 75 1 29 69
M  V30 76 1 29 70
M  V30 77 1 30 71
M  V30 78 1 36 72
M  V30 79 1 37 73
M  V30 80 1 40 74
M  V30 81 1 40 75
M  V30 82 1 40 76
M  V30 83 1 41 77
M  V30 84 1 43 78
M  V30 85 1 43 79
M  V30 86 1 44 80
M  V30 87 1 44 81
M  V30 88 1 45 82
M  V30 89 1 45 83
M  V30 90 1 46 84
M  V30 91 1 46 85
M  V30 END BOND
M  V30 END CTAB
M  END
>  <Dataset>  (267) 
ChEMBL_Kinases

>  <Ligand_Instance>  (267) 
nan

>  <PDB_ID>  (267) 
nan

>  <Standardized_SMILES>  (267) 
CNC(=O)c1sc(-c2ccnc(NC(=O)C3CC3)c2)nc1OCCc1cn(CCNc2c3c(nc4ccc(OC)cc24)CCCC3)nn1

>  <Name>  (267) 
nan

>  <Pocket>  (267) 
nan

>  <ATP_Site>  (267) 
nan

>  <Peripheral>  (267) 
nan

>  <Num_H_Atoms_ProtBoundConf>  (267) 
nan

>  <Num_Resolved_Atoms>  (267) 
nan

>  <Num_Not_Resolved_Atoms>  (267) 
nan

$$$$
CHEMBL4787756
     RDKit          3D

  0  0  0  0  0  0  0  0  0  0999 V3000
M  V30 BEGIN CTAB
M  V30 COUNTS 95 101 0 0 0
M  V30 BEGIN ATOM
M  V30 1 N -3.492427 -5.761183 -3.049440 0
M  V30 2 C -2.794132 -6.755446 -2.280456 0
M  V30 3 C -1.452724 -7.021510 -2.119558 0
M  V30 4 C -0.418477 -6.246877 -2.771932 0
M  V30 5 O -0.856832 -5.312800 -3.533306 0
M  V30 6 N 0.987706 -6.349937 -2.705216 0
M  V30 7 C 1.907816 -5.459705 -3.436114 0
M  V30 8 C 2.043798 -4.155008 -2.738448 0
M  V30 9 C 3.081626 -4.065004 -1.800209 0
M  V30 10 C 3.365149 -2.934079 -1.017951 0
M  V30 11 C 2.538117 -1.821664 -1.201649 0
M  V30 12 C 2.841379 -0.641815 -0.360162 0
M  V30 13 O 3.910574 -0.023672 -0.156239 0
M  V30 14 N 1.926733 0.121430 0.464660 0
M  V30 15 C 1.038473 0.904194 1.298918 0 CFG=1
M  V30 16 C 1.624872 2.340160 1.439478 0
M  V30 17 C 2.938615 2.423345 2.084811 0
M  V30 18 C 2.995635 1.909817 3.498802 0
M  V30 19 C 2.088453 2.623186 4.457136 0
M  V30 20 C 2.058711 1.793748 5.728937 0
M  V30 21 C 3.227711 0.844239 5.819768 0
M  V30 22 C 4.527038 1.422006 5.330732 0
M  V30 23 C 4.412757 2.149235 4.008457 0
M  V30 24 C -0.220009 1.128183 0.616163 0
M  V30 25 O -0.040448 0.712636 -0.524005 0
M  V30 26 N -1.455057 1.359621 -0.016560 0
M  V30 27 C -1.824168 1.060427 -1.404505 0
M  V30 28 C -2.472890 2.267146 -2.053158 0
M  V30 29 N -2.374455 3.410386 -1.164060 0
M  V30 30 C -1.672952 4.661611 -1.425793 0
M  V30 31 N -1.404807 5.721685 -0.990005 0
M  V30 32 C -0.670311 6.615242 -1.631441 0
M  V30 33 C -0.357439 7.851206 -1.113624 0
M  V30 34 C 0.400434 8.769099 -1.765389 0
M  V30 35 C 0.930393 8.517044 -3.044697 0
M  V30 36 C 0.611957 7.267674 -3.565984 0
M  V30 37 C -0.168968 6.356054 -2.862281 0
M  V30 38 S -0.803040 4.705748 -3.111419 0
M  V30 39 C -3.055737 3.243881 0.097317 0
M  V30 40 C -2.553195 1.952279 0.710766 0
M  V30 41 C 1.514835 -1.882489 -2.116416 0
M  V30 42 C 1.287379 -3.017879 -2.853420 0
M  V30 43 C -1.331883 -8.115686 -1.250152 0
M  V30 44 N -2.601916 -8.473259 -0.914502 0
M  V30 45 N -3.479894 -7.666344 -1.524896 0
M  V30 46 C -4.900874 -7.736508 -1.403301 0
M  V30 47 C -5.478627 -6.478690 -1.229863 0
M  V30 48 C -6.853352 -6.384203 -1.091733 0
M  V30 49 C -7.696908 -7.470250 -1.114285 0
M  V30 50 C -7.072880 -8.694523 -1.290393 0
M  V30 51 C -5.695587 -8.858501 -1.434282 0
M  V30 52 H -3.328875 -4.752080 -2.803514 0
M  V30 53 H -4.138456 -6.032894 -3.825164 0
M  V30 54 H 1.304633 -7.136030 -2.067866 0
M  V30 55 H 2.903541 -5.938945 -3.498857 0
M  V30 56 H 1.479693 -5.362755 -4.455751 0
M  V30 57 H 3.744149 -4.922894 -1.628058 0
M  V30 58 H 4.194314 -2.973165 -0.323910 0
M  V30 59 H 1.086067 -0.550230 0.283811 0
M  V30 60 H 0.945786 0.597066 2.327611 0
M  V30 61 H 1.655714 2.820555 0.456029 0
M  V30 62 H 0.863722 2.863208 2.039243 0
M  V30 63 H 3.150400 3.536715 2.196914 0
M  V30 64 H 3.817390 2.070029 1.519212 0
M  V30 65 H 2.816347 0.844824 3.621448 0
M  V30 66 H 2.540984 3.622048 4.702858 0
M  V30 67 H 1.069084 2.701804 4.045633 0
M  V30 68 H 1.968976 2.462291 6.600884 0
M  V30 69 H 1.152079 1.159681 5.701056 0
M  V30 70 H 3.367886 0.651100 6.927707 0
M  V30 71 H 2.971004 -0.139079 5.382032 0
M  V30 72 H 5.035049 2.038466 6.090102 0
M  V30 73 H 5.220666 0.556800 5.162754 0
M  V30 74 H 5.157946 1.793441 3.272332 0
M  V30 75 H 4.493115 3.241906 4.173357 0
M  V30 76 H -2.554600 0.221263 -1.390898 0
M  V30 77 H -1.003470 0.743800 -2.034833 0
M  V30 78 H -3.548238 2.041734 -2.197546 0
M  V30 79 H -1.989890 2.484842 -3.034577 0
M  V30 80 H -0.657597 8.261330 -0.143394 0
M  V30 81 H 0.681823 9.765390 -1.406705 0
M  V30 82 H 1.541407 9.137780 -3.676104 0
M  V30 83 H 0.925129 6.888546 -4.536022 0
M  V30 84 H -4.147071 3.154659 -0.155907 0
M  V30 85 H -2.872790 4.076928 0.795899 0
M  V30 86 H -3.395734 1.223263 0.833048 0
M  V30 87 H -2.178429 2.194722 1.736486 0
M  V30 88 H 0.867767 -1.041471 -2.291344 0
M  V30 89 H 0.490140 -3.025476 -3.566171 0
M  V30 90 H -0.403591 -8.547266 -0.943331 0
M  V30 91 H -4.938834 -5.556388 -1.190582 0
M  V30 92 H -7.317745 -5.404673 -0.958245 0
M  V30 93 H -8.764963 -7.359730 -1.003633 0
M  V30 94 H -7.693644 -9.603055 -1.320016 0
M  V30 95 H -5.195599 -9.780298 -1.570168 0
M  V30 END ATOM
M  V30 BEGIN BOND
M  V30 1 1 1 2
M  V30 2 2 2 3
M  V30 3 1 3 4
M  V30 4 2 4 5
M  V30 5 1 4 6
M  V30 6 1 6 7
M  V30 7 1 7 8
M  V30 8 2 8 9
M  V30 9 1 9 10
M  V30 10 2 10 11
M  V30 11 1 11 12
M  V30 12 2 12 13
M  V30 13 1 12 14
M  V30 14 1 14 15
M  V30 15 1 15 16
M  V30 16 1 16 17
M  V30 17 1 17 18
M  V30 18 1 18 19
M  V30 19 1 19 20
M  V30 20 1 20 21
M  V30 21 1 21 22
M  V30 22 1 22 23
M  V30 23 1 15 24
M  V30 24 2 24 25
M  V30 25 1 24 26
M  V30 26 1 26 27
M  V30 27 1 27 28
M  V30 28 1 28 29
M  V30 29 1 29 30
M  V30 30 2 30 31
M  V30 31 1 31 32
M  V30 32 2 32 33
M  V30 33 1 33 34
M  V30 34 2 34 35
M  V30 35 1 35 36
M  V30 36 2 36 37
M  V30 37 1 37 38
M  V30 38 1 29 39
M  V30 39 1 39 40
M  V30 40 1 11 41
M  V30 41 2 41 42
M  V30 42 1 3 43
M  V30 43 2 43 44
M  V30 44 1 44 45
M  V30 45 1 45 46
M  V30 46 2 46 47
M  V30 47 1 47 48
M  V30 48 2 48 49
M  V30 49 1 49 50
M  V30 50 2 50 51
M  V30 51 1 45 2
M  V30 52 1 51 46
M  V30 53 1 42 8
M  V30 54 1 23 18
M  V30 55 1 40 26
M  V30 56 1 38 30
M  V30 57 1 37 32
M  V30 58 1 1 52
M  V30 59 1 1 53
M  V30 60 1 6 54
M  V30 61 1 7 55
M  V30 62 1 7 56
M  V30 63 1 9 57
M  V30 64 1 10 58
M  V30 65 1 14 59
M  V30 66 1 15 60 CFG=1
M  V30 67 1 16 61
M  V30 68 1 16 62
M  V30 69 1 17 63
M  V30 70 1 17 64
M  V30 71 1 18 65
M  V30 72 1 19 66
M  V30 73 1 19 67
M  V30 74 1 20 68
M  V30 75 1 20 69
M  V30 76 1 21 70
M  V30 77 1 21 71
M  V30 78 1 22 72
M  V30 79 1 22 73
M  V30 80 1 23 74
M  V30 81 1 23 75
M  V30 82 1 27 76
M  V30 83 1 27 77
M  V30 84 1 28 78
M  V30 85 1 28 79
M  V30 86 1 33 80
M  V30 87 1 34 81
M  V30 88 1 35 82
M  V30 89 1 36 83
M  V30 90 1 39 84
M  V30 91 1 39 85
M  V30 92 1 40 86
M  V30 93 1 40 87
M  V30 94 1 41 88
M  V30 95 1 42 89
M  V30 96 1 43 90
M  V30 97 1 47 91
M  V30 98 1 48 92
M  V30 99 1 49 93
M  V30 100 1 50 94
M  V30 101 1 51 95
M  V30 END BOND
M  V30 END CTAB
M  END
>  <Dataset>  (268) 
ChEMBL_Kinases

>  <Ligand_Instance>  (268) 
nan

>  <PDB_ID>  (268) 
nan

>  <Standardized_SMILES>  (268) 
Nc1c(C(=O)NCc2ccc(C(=O)N[C@@H](CCC3CCCCC3)C(=O)N3CCN(c4nc5ccccc5s4)CC3)cc2)cnn1-c1ccccc1

>  <Name>  (268) 
nan

>  <Pocket>  (268) 
nan

>  <ATP_Site>  (268) 
nan

>  <Peripheral>  (268) 
nan

>  <Num_H_Atoms_ProtBoundConf>  (268) 
nan

>  <Num_Resolved_Atoms>  (268) 
nan

>  <Num_Not_Resolved_Atoms>  (268) 
nan

$$$$
CHEMBL4787813
     RDKit          3D

  0  0  0  0  0  0  0  0  0  0999 V3000
M  V30 BEGIN CTAB
M  V30 COUNTS 44 47 0 0 0
M  V30 BEGIN ATOM
M  V30 1 O 3.113484 0.830775 1.887726 0
M  V30 2 C 2.430555 -0.127709 1.427999 0
M  V30 3 N 2.987918 -1.438079 1.359660 0
M  V30 4 C 4.295214 -1.823495 1.769161 0
M  V30 5 C 4.623657 -2.257697 3.039736 0
M  V30 6 C 5.942744 -2.614817 3.342905 0
M  V30 7 C 6.907846 -2.527529 2.358236 0
M  V30 8 F 8.172114 -2.889762 2.717874 0
M  V30 9 C 6.631677 -2.099319 1.071445 0
M  V30 10 C 5.315313 -1.761462 0.833029 0
M  V30 11 F 5.040615 -1.336286 -0.444207 0
M  V30 12 N 1.083747 -0.000008 0.949075 0
M  V30 13 C 0.442828 1.312162 0.986330 0
M  V30 14 C 0.212212 1.747824 -0.432351 0
M  V30 15 C -0.947639 1.007067 -1.085456 0
M  V30 16 N -2.058143 1.065466 -0.153989 0
M  V30 17 C -3.281816 0.354290 -0.298546 0
M  V30 18 N -4.396796 1.137140 -0.393594 0
M  V30 19 C -5.626964 0.564785 -0.537231 0
M  V30 20 N -5.842026 -0.782141 -0.595981 0
M  V30 21 C -4.740599 -1.538723 -0.501575 0
M  V30 22 N -4.492319 -2.863721 -0.510762 0
M  V30 23 N -3.206582 -3.145341 -0.383911 0
M  V30 24 C -2.525475 -1.983181 -0.281974 0
M  V30 25 C -3.475597 -1.010077 -0.355487 0
M  V30 26 C -1.910696 1.914294 1.015423 0
M  V30 27 C -0.790171 1.272230 1.833818 0
M  V30 28 H 2.487771 -2.267943 0.995832 0
M  V30 29 H 3.834685 -2.306642 3.767186 0
M  V30 30 H 6.097359 -2.938255 4.353021 0
M  V30 31 H 7.393745 -2.036536 0.315167 0
M  V30 32 H 0.563004 -0.824558 0.578713 0
M  V30 33 H 1.171412 2.043506 1.414958 0
M  V30 34 H 1.144692 1.495613 -0.994313 0
M  V30 35 H 0.078070 2.846951 -0.496032 0
M  V30 36 H -1.282114 1.584597 -1.994894 0
M  V30 37 H -0.673415 0.009192 -1.416264 0
M  V30 38 H -6.457608 1.277316 -0.604559 0
M  V30 39 H -5.229791 -3.621425 -0.607882 0
M  V30 40 H -1.460509 -1.874967 -0.167339 0
M  V30 41 H -1.558305 2.941819 0.715684 0
M  V30 42 H -2.838225 1.991951 1.579853 0
M  V30 43 H -0.660575 1.780595 2.824248 0
M  V30 44 H -1.117411 0.221279 1.996856 0
M  V30 END ATOM
M  V30 BEGIN BOND
M  V30 1 2 1 2
M  V30 2 1 2 3
M  V30 3 1 3 4
M  V30 4 2 4 5
M  V30 5 1 5 6
M  V30 6 2 6 7
M  V30 7 1 7 8
M  V30 8 1 7 9
M  V30 9 2 9 10
M  V30 10 1 10 11
M  V30 11 1 2 12
M  V30 12 1 12 13
M  V30 13 1 13 14
M  V30 14 1 14 15
M  V30 15 1 15 16
M  V30 16 1 16 17
M  V30 17 2 17 18
M  V30 18 1 18 19
M  V30 19 2 19 20
M  V30 20 1 20 21
M  V30 21 1 21 22
M  V30 22 1 22 23
M  V30 23 2 23 24
M  V30 24 1 24 25
M  V30 25 1 16 26
M  V30 26 1 26 27
M  V30 27 1 10 4
M  V30 28 1 27 13
M  V30 29 1 25 17
M  V30 30 2 25 21
M  V30 31 1 3 28
M  V30 32 1 5 29
M  V30 33 1 6 30
M  V30 34 1 9 31
M  V30 35 1 12 32
M  V30 36 1 13 33
M  V30 37 1 14 34
M  V30 38 1 14 35
M  V30 39 1 15 36
M  V30 40 1 15 37
M  V30 41 1 19 38
M  V30 42 1 22 39
M  V30 43 1 24 40
M  V30 44 1 26 41
M  V30 45 1 26 42
M  V30 46 1 27 43
M  V30 47 1 27 44
M  V30 END BOND
M  V30 END CTAB
M  END
>  <Dataset>  (269) 
ChEMBL_Kinases

>  <Ligand_Instance>  (269) 
nan

>  <PDB_ID>  (269) 
nan

>  <Standardized_SMILES>  (269) 
O=C(Nc1ccc(F)cc1F)NC1CCN(c2ncnc3[nH]ncc23)CC1

>  <Name>  (269) 
nan

>  <Pocket>  (269) 
nan

>  <ATP_Site>  (269) 
nan

>  <Peripheral>  (269) 
nan

>  <Num_H_Atoms_ProtBoundConf>  (269) 
nan

>  <Num_Resolved_Atoms>  (269) 
nan

>  <Num_Not_Resolved_Atoms>  (269) 
nan

$$$$
CHEMBL4787833
     RDKit          3D

  0  0  0  0  0  0  0  0  0  0999 V3000
M  V30 BEGIN CTAB
M  V30 COUNTS 32 34 0 0 0
M  V30 BEGIN ATOM
M  V30 1 F -0.059569 -2.632119 3.495422 0
M  V30 2 C 1.206686 -2.701590 2.982438 0
M  V30 3 F 2.091843 -2.541084 4.073187 0
M  V30 4 F 1.504746 -3.914506 2.403436 0
M  V30 5 C 1.468253 -1.636388 1.982577 0
M  V30 6 C 2.574861 -0.844096 2.215477 0
M  V30 7 N 2.862088 0.097450 1.309235 0
M  V30 8 C 2.125958 0.289037 0.212581 0
M  V30 9 N 2.221898 1.230326 -0.874396 0
M  V30 10 C 1.140761 2.166955 -0.901987 0
M  V30 11 C 0.151798 2.175918 0.077009 0
M  V30 12 C -0.928267 3.044756 0.082069 0
M  V30 13 N -1.016116 3.930104 -0.925772 0
M  V30 14 N -0.106858 3.950250 -1.860233 0
M  V30 15 C 0.940941 3.131792 -1.895099 0
M  V30 16 N 1.067128 -0.487393 0.014414 0
M  V30 17 C 0.694672 -1.457066 0.860009 0
M  V30 18 N -0.488892 -2.240384 0.609164 0
M  V30 19 C -1.359934 -3.259659 1.049554 0
M  V30 20 C -2.581423 -3.551060 0.171539 0
M  V30 21 C -2.745527 -3.000179 1.514626 0
M  V30 22 H 3.228794 -0.918640 3.068284 0
M  V30 23 H 2.911594 1.357102 -1.626572 0
M  V30 24 H 0.180204 1.478446 0.920172 0
M  V30 25 H -1.669409 3.004404 0.870001 0
M  V30 26 H 1.711154 3.136049 -2.666768 0
M  V30 27 H -0.896408 -1.902228 -0.318211 0
M  V30 28 H -0.865708 -4.171774 1.468200 0
M  V30 29 H -2.749787 -2.880153 -0.714984 0
M  V30 30 H -2.722791 -4.603679 -0.084090 0
M  V30 31 H -3.062892 -1.926626 1.589262 0
M  V30 32 H -3.131913 -3.668263 2.306831 0
M  V30 END ATOM
M  V30 BEGIN BOND
M  V30 1 1 1 2
M  V30 2 1 2 3
M  V30 3 1 2 4
M  V30 4 1 2 5
M  V30 5 2 5 6
M  V30 6 1 6 7
M  V30 7 2 7 8
M  V30 8 1 8 9
M  V30 9 1 9 10
M  V30 10 2 10 11
M  V30 11 1 11 12
M  V30 12 2 12 13
M  V30 13 1 13 14
M  V30 14 2 14 15
M  V30 15 1 8 16
M  V30 16 2 16 17
M  V30 17 1 17 18
M  V30 18 1 18 19
M  V30 19 1 19 20
M  V30 20 1 20 21
M  V30 21 1 17 5
M  V30 22 1 21 19
M  V30 23 1 15 10
M  V30 24 1 6 22
M  V30 25 1 9 23
M  V30 26 1 11 24
M  V30 27 1 12 25
M  V30 28 1 15 26
M  V30 29 1 18 27
M  V30 30 1 19 28
M  V30 31 1 20 29
M  V30 32 1 20 30
M  V30 33 1 21 31
M  V30 34 1 21 32
M  V30 END BOND
M  V30 END CTAB
M  END
>  <Dataset>  (270) 
ChEMBL_Kinases

>  <Ligand_Instance>  (270) 
nan

>  <PDB_ID>  (270) 
nan

>  <Standardized_SMILES>  (270) 
FC(F)(F)c1cnc(Nc2ccnnc2)nc1NC1CC1

>  <Name>  (270) 
nan

>  <Pocket>  (270) 
nan

>  <ATP_Site>  (270) 
nan

>  <Peripheral>  (270) 
nan

>  <Num_H_Atoms_ProtBoundConf>  (270) 
nan

>  <Num_Resolved_Atoms>  (270) 
nan

>  <Num_Not_Resolved_Atoms>  (270) 
nan

$$$$
CHEMBL4787865
     RDKit          3D

  0  0  0  0  0  0  0  0  0  0999 V3000
M  V30 BEGIN CTAB
M  V30 COUNTS 40 42 0 0 0
M  V30 BEGIN ATOM
M  V30 1 N -1.028080 -2.860352 3.733105 0
M  V30 2 C -0.631769 -2.558540 2.398319 0
M  V30 3 N -0.545534 -3.582867 1.499512 0
M  V30 4 C -0.170906 -3.326683 0.221219 0
M  V30 5 C 0.132677 -2.054900 -0.221312 0
M  V30 6 C 0.537932 -1.752954 -1.591363 0
M  V30 7 C 1.250233 -2.723021 -2.265998 0
M  V30 8 C 1.681324 -2.525282 -3.581886 0
M  V30 9 C 1.350490 -1.312178 -4.150116 0
M  V30 10 C 1.732644 -0.956686 -5.524143 0
M  V30 11 O 1.490021 0.114525 -6.151908 0
M  V30 12 O 2.442883 -1.689941 -6.464503 0
M  V30 13 C 0.641085 -0.313116 -3.516098 0
M  V30 14 C 0.232147 -0.554637 -2.205606 0
M  V30 15 C 0.039128 -1.033926 0.703715 0
M  V30 16 C -0.339314 -1.267051 2.009768 0
M  V30 17 O -0.448011 -0.260708 2.984269 0
M  V30 18 C -0.146594 1.030567 2.561708 0
M  V30 19 C -0.265803 2.094779 3.608739 0
M  V30 20 C 0.612160 1.933636 4.814467 0
M  V30 21 C -0.588499 2.321247 5.662452 0
M  V30 22 C -1.507270 2.090535 4.455938 0
M  V30 23 H -0.250769 -2.540997 4.379942 0
M  V30 24 H -0.271418 -2.552357 4.397238 0
M  V30 25 H -0.102518 -4.138371 -0.492614 0
M  V30 26 H 1.535917 -3.694824 -1.860463 0
M  V30 27 H 2.239568 -3.256365 -4.144545 0
M  V30 28 H 3.395163 -1.448403 -6.772929 0
M  V30 29 H 0.383398 0.630466 -3.955662 0
M  V30 30 H -0.331154 0.156731 -1.607275 0
M  V30 31 H 0.248527 -0.002819 0.482595 0
M  V30 32 H -0.763188 1.312088 1.691022 0
M  V30 33 H 0.927509 1.046010 2.223014 0
M  V30 34 H -0.115145 3.091756 3.146460 0
M  V30 35 H 1.003364 0.932349 5.009786 0
M  V30 36 H 1.432653 2.697559 4.893006 0
M  V30 37 H -0.575339 3.363760 6.012205 0
M  V30 38 H -0.749375 1.622989 6.489163 0
M  V30 39 H -2.090148 1.160067 4.507363 0
M  V30 40 H -2.184512 2.959470 4.327246 0
M  V30 END ATOM
M  V30 BEGIN BOND
M  V30 1 1 1 2
M  V30 2 2 2 3
M  V30 3 1 3 4
M  V30 4 2 4 5
M  V30 5 1 5 6
M  V30 6 2 6 7
M  V30 7 1 7 8
M  V30 8 2 8 9
M  V30 9 1 9 10
M  V30 10 2 10 11
M  V30 11 1 10 12
M  V30 12 1 9 13
M  V30 13 2 13 14
M  V30 14 1 5 15
M  V30 15 2 15 16
M  V30 16 1 16 17
M  V30 17 1 17 18
M  V30 18 1 18 19
M  V30 19 1 19 20
M  V30 20 1 20 21
M  V30 21 1 21 22
M  V30 22 1 16 2
M  V30 23 1 22 19
M  V30 24 1 14 6
M  V30 25 1 1 23
M  V30 26 1 1 24
M  V30 27 1 4 25
M  V30 28 1 7 26
M  V30 29 1 8 27
M  V30 30 1 12 28
M  V30 31 1 13 29
M  V30 32 1 14 30
M  V30 33 1 15 31
M  V30 34 1 18 32
M  V30 35 1 18 33
M  V30 36 1 19 34
M  V30 37 1 20 35
M  V30 38 1 20 36
M  V30 39 1 21 37
M  V30 40 1 21 38
M  V30 41 1 22 39
M  V30 42 1 22 40
M  V30 END BOND
M  V30 END CTAB
M  END
>  <Dataset>  (271) 
ChEMBL_Kinases

>  <Ligand_Instance>  (271) 
nan

>  <PDB_ID>  (271) 
nan

>  <Standardized_SMILES>  (271) 
Nc1ncc(-c2ccc(C(=O)O)cc2)cc1OCC1CCC1

>  <Name>  (271) 
nan

>  <Pocket>  (271) 
nan

>  <ATP_Site>  (271) 
nan

>  <Peripheral>  (271) 
nan

>  <Num_H_Atoms_ProtBoundConf>  (271) 
nan

>  <Num_Resolved_Atoms>  (271) 
nan

>  <Num_Not_Resolved_Atoms>  (271) 
nan

$$$$
CHEMBL4787873
     RDKit          3D

  0  0  0  0  0  0  0  0  0  0999 V3000
M  V30 BEGIN CTAB
M  V30 COUNTS 33 35 0 0 0
M  V30 BEGIN ATOM
M  V30 1 N -1.345332 -6.434512 3.127488 0
M  V30 2 C -1.078794 -5.084937 3.403479 0
M  V30 3 O -0.976721 -4.317499 4.392968 0
M  V30 4 C -0.858780 -4.409472 2.084756 0
M  V30 5 S -0.465251 -2.551347 2.017905 0
M  V30 6 C -0.368363 -2.619923 0.146555 0
M  V30 7 C -0.055947 -1.368567 -0.695687 0
M  V30 8 C -0.028431 -1.617428 -2.035789 0
M  V30 9 C 0.249721 -0.510440 -2.811103 0
M  V30 10 N 0.472797 0.711683 -2.254270 0
M  V30 11 C 0.424023 0.861737 -0.904981 0
M  V30 12 N 0.666006 2.172259 -0.354682 0
M  V30 13 C 1.877959 2.751155 0.045268 0
M  V30 14 O 2.993152 2.171953 -0.024460 0
M  V30 15 C 1.757613 4.117630 0.566164 0
M  V30 16 C 0.583766 4.294527 1.566218 0
M  V30 17 C 0.626061 5.000886 0.269342 0
M  V30 18 C 0.149710 -0.200469 -0.036342 0
M  V30 19 N -0.584723 -3.707101 -0.047944 0
M  V30 20 C -0.844110 -4.718877 0.747060 0
M  V30 21 O -1.103988 -6.047442 0.433313 0
M  V30 22 H -1.990221 -7.052470 3.680690 0
M  V30 23 H -1.996059 -7.063582 3.683153 0
M  V30 24 H -0.206391 -2.581301 -2.440925 0
M  V30 25 H 0.279331 -0.678062 -3.899990 0
M  V30 26 H -0.278347 2.614800 -0.314510 0
M  V30 27 H 2.692974 4.626572 0.899283 0
M  V30 28 H 0.765672 4.838980 2.494188 0
M  V30 29 H -0.134499 3.453047 1.658868 0
M  V30 30 H 0.748858 6.088958 0.284143 0
M  V30 31 H -0.053575 4.632683 -0.537622 0
M  V30 32 H 0.109927 -0.089449 1.024124 0
M  V30 33 H -2.087059 -6.266063 0.268446 0
M  V30 END ATOM
M  V30 BEGIN BOND
M  V30 1 1 1 2
M  V30 2 2 2 3
M  V30 3 1 2 4
M  V30 4 1 4 5
M  V30 5 1 5 6
M  V30 6 1 6 7
M  V30 7 2 7 8
M  V30 8 1 8 9
M  V30 9 2 9 10
M  V30 10 1 10 11
M  V30 11 1 11 12
M  V30 12 1 12 13
M  V30 13 2 13 14
M  V30 14 1 13 15
M  V30 15 1 15 16
M  V30 16 1 16 17
M  V30 17 2 11 18
M  V30 18 2 6 19
M  V30 19 1 19 20
M  V30 20 1 20 21
M  V30 21 2 20 4
M  V30 22 1 18 7
M  V30 23 1 17 15
M  V30 24 1 1 22
M  V30 25 1 1 23
M  V30 26 1 8 24
M  V30 27 1 9 25
M  V30 28 1 12 26
M  V30 29 1 15 27
M  V30 30 1 16 28
M  V30 31 1 16 29
M  V30 32 1 17 30
M  V30 33 1 17 31
M  V30 34 1 18 32
M  V30 35 1 21 33
M  V30 END BOND
M  V30 END CTAB
M  END
>  <Dataset>  (272) 
ChEMBL_Kinases

>  <Ligand_Instance>  (272) 
nan

>  <PDB_ID>  (272) 
nan

>  <Standardized_SMILES>  (272) 
NC(=O)c1sc(-c2ccnc(NC(=O)C3CC3)c2)nc1O

>  <Name>  (272) 
nan

>  <Pocket>  (272) 
nan

>  <ATP_Site>  (272) 
nan

>  <Peripheral>  (272) 
nan

>  <Num_H_Atoms_ProtBoundConf>  (272) 
nan

>  <Num_Resolved_Atoms>  (272) 
nan

>  <Num_Not_Resolved_Atoms>  (272) 
nan

$$$$
CHEMBL4164650
     RDKit          3D

  0  0  0  0  0  0  0  0  0  0999 V3000
M  V30 BEGIN CTAB
M  V30 COUNTS 56 60 0 0 0
M  V30 BEGIN ATOM
M  V30 1 O 1.184035 -6.174256 1.602206 0
M  V30 2 C 1.166103 -4.933404 1.682768 0
M  V30 3 N 1.543238 -4.139973 2.789786 0
M  V30 4 C 1.355942 -2.772792 2.407699 0
M  V30 5 C 1.610353 -1.651727 3.166492 0
M  V30 6 C 1.372629 -0.418534 2.581318 0
M  V30 7 C 0.893042 -0.275265 1.270542 0
M  V30 8 C 0.653668 1.051240 0.708968 0
M  V30 9 O 0.261554 1.172685 -0.497548 0
M  V30 10 N 0.826831 2.260783 1.419575 0
M  V30 11 C 0.559377 3.498499 0.759261 0 CFG=2
M  V30 12 C 1.674824 4.487868 0.838333 0
M  V30 13 O 1.995894 4.842448 2.148278 0
M  V30 14 C -0.704443 4.033300 1.381305 0
M  V30 15 C -0.935626 5.322529 1.808797 0
M  V30 16 C -2.155636 5.653833 2.358248 0
M  V30 17 C -3.173769 4.728598 2.499780 0
M  V30 18 C -2.927247 3.435817 2.065546 0
M  V30 19 C -1.711388 3.069025 1.508523 0
M  V30 20 C 0.664272 -1.445643 0.580421 0
M  V30 21 C 0.881151 -2.684318 1.117168 0
M  V30 22 C 0.750182 -4.047028 0.636988 0
M  V30 23 C 0.344332 -4.359831 -0.548025 0
M  V30 24 C 0.219122 -5.715059 -1.112347 0
M  V30 25 N 0.653833 -6.308559 -2.237005 0
M  V30 26 C 0.218254 -7.581125 -2.315306 0
M  V30 27 C -0.529393 -7.785135 -1.172886 0
M  V30 28 N -0.514432 -6.629606 -0.453396 0
M  V30 29 C -0.230636 -3.499135 -1.568875 0
M  V30 30 C -1.460324 -3.000980 -1.095705 0
M  V30 31 C -2.236871 -2.143262 -1.865173 0
M  V30 32 C -1.783085 -1.779294 -3.116248 0
M  V30 33 C -0.583433 -2.268272 -3.572096 0
M  V30 34 C 0.196299 -3.118551 -2.822651 0
M  V30 35 Cl 1.728661 -3.827397 -3.234075 0
M  V30 36 H 1.882347 -4.559052 3.676183 0
M  V30 37 H 1.978426 -1.731663 4.173292 0
M  V30 38 H 1.581853 0.429253 3.202606 0
M  V30 39 H 1.144630 2.241638 2.410160 0
M  V30 40 H 0.284295 3.377862 -0.310730 0
M  V30 41 H 1.467590 5.427930 0.292317 0
M  V30 42 H 2.557967 4.029835 0.319780 0
M  V30 43 H 2.704114 5.515956 2.195316 0
M  V30 44 H -0.096652 6.009977 1.672425 0
M  V30 45 H -2.299159 6.672780 2.680907 0
M  V30 46 H -4.136537 5.029900 2.942477 0
M  V30 47 H -3.766233 2.769199 2.208831 0
M  V30 48 H -1.701145 2.031780 1.230765 0
M  V30 49 H 0.335805 -1.227719 -0.413048 0
M  V30 50 H 0.492804 -8.188574 -3.174954 0
M  V30 51 H -0.964995 -8.785210 -1.075087 0
M  V30 52 H -1.089191 -6.756054 0.416620 0
M  V30 53 H -1.946462 -3.202818 -0.128038 0
M  V30 54 H -3.184230 -1.729300 -1.555079 0
M  V30 55 H -2.267349 -1.129318 -3.822747 0
M  V30 56 H -0.161687 -2.029744 -4.539816 0
M  V30 END ATOM
M  V30 BEGIN BOND
M  V30 1 2 1 2
M  V30 2 1 2 3
M  V30 3 1 3 4
M  V30 4 2 4 5
M  V30 5 1 5 6
M  V30 6 2 6 7
M  V30 7 1 7 8
M  V30 8 2 8 9
M  V30 9 1 8 10
M  V30 10 1 10 11
M  V30 11 1 11 12
M  V30 12 1 12 13
M  V30 13 1 11 14
M  V30 14 2 14 15
M  V30 15 1 15 16
M  V30 16 2 16 17
M  V30 17 1 17 18
M  V30 18 2 18 19
M  V30 19 1 7 20
M  V30 20 2 20 21
M  V30 21 1 21 22
M  V30 22 2 22 23
M  V30 23 1 23 24
M  V30 24 2 24 25
M  V30 25 1 25 26
M  V30 26 2 26 27
M  V30 27 1 27 28
M  V30 28 1 23 29
M  V30 29 2 29 30
M  V30 30 1 30 31
M  V30 31 2 31 32
M  V30 32 1 32 33
M  V30 33 2 33 34
M  V30 34 1 34 35
M  V30 35 1 22 2
M  V30 36 1 28 24
M  V30 37 1 34 29
M  V30 38 1 21 4
M  V30 39 1 19 14
M  V30 40 1 3 36
M  V30 41 1 5 37
M  V30 42 1 6 38
M  V30 43 1 10 39
M  V30 44 1 11 40 CFG=3
M  V30 45 1 12 41
M  V30 46 1 12 42
M  V30 47 1 13 43
M  V30 48 1 15 44
M  V30 49 1 16 45
M  V30 50 1 17 46
M  V30 51 1 18 47
M  V30 52 1 19 48
M  V30 53 1 20 49
M  V30 54 1 26 50
M  V30 55 1 27 51
M  V30 56 1 28 52
M  V30 57 1 30 53
M  V30 58 1 31 54
M  V30 59 1 32 55
M  V30 60 1 33 56
M  V30 END BOND
M  V30 END CTAB
M  END
>  <Dataset>  (273) 
ChEMBL_Kinases

>  <Ligand_Instance>  (273) 
nan

>  <PDB_ID>  (273) 
nan

>  <Standardized_SMILES>  (273) 
O=C1Nc2ccc(C(=O)N[C@H](CO)c3ccccc3)cc2/C1=C(/c1ncc[nH]1)c1ccccc1Cl

>  <Name>  (273) 
nan

>  <Pocket>  (273) 
nan

>  <ATP_Site>  (273) 
nan

>  <Peripheral>  (273) 
nan

>  <Num_H_Atoms_ProtBoundConf>  (273) 
nan

>  <Num_Resolved_Atoms>  (273) 
nan

>  <Num_Not_Resolved_Atoms>  (273) 
nan

$$$$
CHEMBL4162173
     RDKit          3D

  0  0  0  0  0  0  0  0  0  0999 V3000
M  V30 BEGIN CTAB
M  V30 COUNTS 152 153 0 0 0
M  V30 BEGIN ATOM
M  V30 1 N 2.225479 -3.197675 3.037310 0
M  V30 2 C 2.515127 -4.441744 3.746571 0
M  V30 3 C 1.232244 -5.197088 3.883522 0
M  V30 4 C 0.148442 -4.514863 4.643086 0
M  V30 5 C -0.250157 -3.197717 4.101156 0
M  V30 6 C -1.483741 -2.675473 4.814397 0 CFG=1
M  V30 7 N -1.882080 -1.431382 4.371595 0
M  V30 8 C -2.892957 -0.551286 4.194717 0
M  V30 9 O -4.026323 -1.075024 4.585926 0
M  V30 10 C -3.489953 0.698068 3.814092 0 CFG=1
M  V30 11 C -2.597738 1.483946 2.877408 0
M  V30 12 C -3.194761 2.791949 2.542335 0
M  V30 13 O -4.137215 2.622910 3.407014 0
M  V30 14 O -4.204495 3.781222 2.728087 0
M  V30 15 N -4.792615 0.380702 3.136129 0
M  V30 16 C -4.952164 0.747111 1.755004 0
M  V30 17 O -4.477016 1.267990 0.693537 0
M  V30 18 C -6.112385 0.558675 0.837742 0 CFG=1
M  V30 19 C -7.336524 1.300970 1.262721 0
M  V30 20 C -7.810175 0.840015 2.606823 0
M  V30 21 O -8.352906 -0.192612 3.039505 0
M  V30 22 O -7.591555 1.799959 3.634595 0
M  V30 23 N -5.732218 0.970558 -0.524024 0
M  V30 24 C -4.987907 0.298414 -1.482057 0
M  V30 25 O -4.493693 -0.869918 -1.216521 0
M  V30 26 C -4.534029 0.533828 -2.846905 0 CFG=1
M  V30 27 C -4.135373 1.977291 -3.144214 0
M  V30 28 C -3.033674 2.471427 -2.320328 0
M  V30 29 O -2.228479 2.252856 -1.421461 0
M  V30 30 O -2.776550 3.798908 -2.762848 0
M  V30 31 N -3.478687 -0.390580 -3.274045 0
M  V30 32 C -3.199697 -1.192204 -4.437234 0
M  V30 33 O -4.245540 -0.855535 -5.114778 0
M  V30 34 C -1.928728 -1.960231 -4.271664 0 CFG=1
M  V30 35 C -1.105917 -1.910452 -5.508338 0
M  V30 36 C 0.157853 -2.716057 -5.223566 0
M  V30 37 O 0.817307 -3.287111 -4.341423 0
M  V30 38 O 0.870097 -2.844992 -6.447123 0
M  V30 39 N -1.206276 -1.670114 -3.091901 0
M  V30 40 C -1.474105 -2.478808 -1.927005 0
M  V30 41 O -2.372809 -3.378277 -2.171673 0
M  V30 42 C -1.150420 -2.720666 -0.525766 0 CFG=1
M  V30 43 C -0.977421 -4.176093 -0.205625 0
M  V30 44 C -2.249283 -4.886956 -0.495347 0
M  V30 45 O -3.131122 -4.466832 0.351118 0
M  V30 46 O -3.363248 -5.602536 -0.855999 0
M  V30 47 N -0.138058 -1.881653 0.076096 0
M  V30 48 C -0.274888 -0.485116 0.398055 0
M  V30 49 O -1.423404 -0.368830 -0.086600 0
M  V30 50 C 0.925908 -0.073767 1.057491 0 CFG=1
M  V30 51 C 2.253140 -0.379542 0.385196 0
M  V30 52 C 3.254570 0.116759 1.413255 0
M  V30 53 O 4.128107 0.976742 1.012136 0
M  V30 54 O 4.216665 0.628705 2.300834 0
M  V30 55 N 0.914588 1.378024 1.393599 0
M  V30 56 C 1.222476 2.280796 0.350259 0
M  V30 57 O 1.497806 2.252738 -0.845667 0
M  V30 58 C 1.224651 3.653709 0.830143 0
M  V30 59 C 1.554948 4.720371 -0.142902 0
M  V30 60 C 0.512188 4.941237 -1.244311 0
M  V30 61 C 0.883024 6.086664 -2.083077 0
M  V30 62 C 1.943380 6.178788 -3.078486 0
M  V30 63 N 3.226660 5.626656 -2.858798 0
M  V30 64 C 3.267042 4.256218 -3.130688 0
M  V30 65 O 2.163010 3.791447 -3.566352 0
M  V30 66 C 3.917092 2.905958 -3.219419 0
M  V30 67 C 3.070328 2.076323 -4.209543 0
M  V30 68 C 3.703851 0.787675 -4.399854 0
M  V30 69 O 4.440308 1.208665 -3.391097 0
M  V30 70 N 4.196163 -0.513825 -4.744204 0
M  V30 71 C 5.260980 -0.908481 -3.901795 0
M  V30 72 N 6.180307 -1.123054 -3.507076 0
M  V30 73 C 7.270251 -1.404868 -2.927352 0
M  V30 74 C 6.701696 -1.666050 -1.615986 0
M  V30 75 C 7.213256 -2.061469 -0.266867 0
M  V30 76 C 7.895738 -3.213814 0.209149 0
M  V30 77 C 8.051337 -2.956232 1.518393 0
M  V30 78 C 7.817440 -2.072879 2.478189 0
M  V30 79 C 8.125730 -2.216134 3.897613 0
M  V30 80 O 8.566634 -3.244591 4.424780 0
M  V30 81 O 7.855392 -0.975121 4.559329 0
M  V30 82 C 7.160273 -0.980307 1.914383 0
M  V30 83 C 6.864874 -0.986359 0.562463 0
M  V30 84 Se 4.745370 -1.336887 -1.933058 0 VAL=2
M  V30 85 C -2.566500 -3.765138 4.483643 0
M  V30 86 O -3.011850 -4.944735 4.472246 0
M  V30 87 O -3.813122 -3.461240 3.847060 0
M  V30 88 H 2.898858 -2.416024 3.306324 0
M  V30 89 H 2.313563 -3.385968 2.002724 0
M  V30 90 H 3.028602 -4.244368 4.671253 0
M  V30 91 H 3.188362 -5.065141 3.092294 0
M  V30 92 H 1.506394 -6.174331 4.403656 0
M  V30 93 H 0.843027 -5.580868 2.895444 0
M  V30 94 H 0.501345 -4.426792 5.735367 0
M  V30 95 H -0.729885 -5.213279 4.740341 0
M  V30 96 H 0.541434 -2.443858 4.330589 0
M  V30 97 H -0.416310 -3.262629 3.017673 0
M  V30 98 H -1.434887 -2.775461 5.907756 0
M  V30 99 H -1.103220 -0.827594 3.960302 0
M  V30 100 H -3.717483 1.395407 4.636703 0
M  V30 101 H -2.373331 0.874323 1.973197 0
M  V30 102 H -1.660160 1.673817 3.424621 0
M  V30 103 H -4.297988 4.513037 2.001052 0
M  V30 104 H -5.617418 -0.063296 3.523548 0
M  V30 105 H -6.288531 -0.525192 0.803669 0
M  V30 106 H -8.130083 1.182202 0.504688 0
M  V30 107 H -7.083072 2.408072 1.284757 0
M  V30 108 H -7.389791 1.444657 4.578989 0
M  V30 109 H -5.961314 1.873176 -1.046504 0
M  V30 110 H -5.379024 0.366176 -3.564226 0
M  V30 111 H -3.879890 2.007709 -4.211073 0
M  V30 112 H -5.061489 2.600460 -3.035618 0
M  V30 113 H -1.896230 4.249593 -2.666342 0
M  V30 114 H -2.845929 -0.356482 -2.422386 0
M  V30 115 H -2.337187 -3.048485 -4.234449 0
M  V30 116 H -1.567302 -2.361405 -6.371423 0
M  V30 117 H -0.751249 -0.891965 -5.760184 0
M  V30 118 H 1.541723 -3.628435 -6.556983 0
M  V30 119 H -0.459303 -1.004004 -2.703772 0
M  V30 120 H -2.094610 -2.414916 0.064234 0
M  V30 121 H -0.740500 -4.237268 0.898309 0
M  V30 122 H -0.156837 -4.664438 -0.740520 0
M  V30 123 H -3.248276 -6.483973 -1.340057 0
M  V30 124 H 0.716676 -2.513012 0.221829 0
M  V30 125 H 1.014061 -0.584342 2.017017 0
M  V30 126 H 2.414782 0.194495 -0.564298 0
M  V30 127 H 2.391027 -1.438066 0.308941 0
M  V30 128 H 3.980314 0.594677 3.321157 0
M  V30 129 H 0.669136 1.679947 2.392295 0
M  V30 130 H 1.992541 3.689111 1.676418 0
M  V30 131 H 0.250771 3.885345 1.390131 0
M  V30 132 H 2.595025 4.647746 -0.474950 0
M  V30 133 H 1.454607 5.708661 0.440573 0
M  V30 134 H 0.290814 4.014784 -1.786800 0
M  V30 135 H -0.419924 5.265626 -0.665961 0
M  V30 136 H -0.074769 6.493796 -2.599535 0
M  V30 137 H 1.012306 6.961693 -1.315452 0
M  V30 138 H 1.569264 5.849286 -4.114439 0
M  V30 139 H 2.094881 7.333590 -3.287299 0
M  V30 140 H 4.237670 5.708446 -2.569084 0
M  V30 141 H 4.921181 3.011490 -3.598345 0
M  V30 142 H 3.871441 2.470231 -2.220965 0
M  V30 143 H 2.068066 1.966311 -3.711018 0
M  V30 144 H 2.905147 2.668490 -5.127492 0
M  V30 145 H 3.502871 -0.522219 -5.501478 0
M  V30 146 H 8.329918 -1.524525 -2.979964 0
M  V30 147 H 8.086651 -3.927291 -0.538398 0
M  V30 148 H 8.569753 -3.859981 1.943245 0
M  V30 149 H 8.186688 -0.892554 5.508158 0
M  V30 150 H 6.904528 -0.123006 2.562321 0
M  V30 151 H 6.345184 -0.042141 0.278898 0
M  V30 152 H -4.051353 -3.679695 2.923382 0
M  V30 END ATOM
M  V30 BEGIN BOND
M  V30 1 1 1 2
M  V30 2 1 2 3
M  V30 3 1 3 4
M  V30 4 1 4 5
M  V30 5 1 5 6
M  V30 6 1 6 7
M  V30 7 1 7 8
M  V30 8 2 8 9
M  V30 9 1 8 10
M  V30 10 1 10 11
M  V30 11 1 11 12
M  V30 12 2 12 13
M  V30 13 1 12 14
M  V30 14 1 10 15
M  V30 15 1 15 16
M  V30 16 2 16 17
M  V30 17 1 16 18
M  V30 18 1 18 19
M  V30 19 1 19 20
M  V30 20 2 20 21
M  V30 21 1 20 22
M  V30 22 1 18 23
M  V30 23 1 23 24
M  V30 24 2 24 25
M  V30 25 1 24 26
M  V30 26 1 26 27
M  V30 27 1 27 28
M  V30 28 2 28 29
M  V30 29 1 28 30
M  V30 30 1 26 31
M  V30 31 1 31 32
M  V30 32 2 32 33
M  V30 33 1 32 34
M  V30 34 1 34 35
M  V30 35 1 35 36
M  V30 36 2 36 37
M  V30 37 1 36 38
M  V30 38 1 34 39
M  V30 39 1 39 40
M  V30 40 2 40 41
M  V30 41 1 40 42
M  V30 42 1 42 43
M  V30 43 1 43 44
M  V30 44 2 44 45
M  V30 45 1 44 46
M  V30 46 1 42 47
M  V30 47 1 47 48
M  V30 48 2 48 49
M  V30 49 1 48 50
M  V30 50 1 50 51
M  V30 51 1 51 52
M  V30 52 2 52 53
M  V30 53 1 52 54
M  V30 54 1 50 55
M  V30 55 1 55 56
M  V30 56 2 56 57
M  V30 57 1 56 58
M  V30 58 1 58 59
M  V30 59 1 59 60
M  V30 60 1 60 61
M  V30 61 1 61 62
M  V30 62 1 62 63
M  V30 63 1 63 64
M  V30 64 2 64 65
M  V30 65 1 64 66
M  V30 66 1 66 67
M  V30 67 1 67 68
M  V30 68 2 68 69
M  V30 69 1 68 70
M  V30 70 1 70 71
M  V30 71 2 71 72
M  V30 72 1 72 73
M  V30 73 2 73 74
M  V30 74 1 74 75
M  V30 75 2 75 76
M  V30 76 1 76 77
M  V30 77 2 77 78
M  V30 78 1 78 79
M  V30 79 2 79 80
M  V30 80 1 79 81
M  V30 81 1 78 82
M  V30 82 2 82 83
M  V30 83 1 74 84
M  V30 84 1 6 85
M  V30 85 2 85 86
M  V30 86 1 85 87
M  V30 87 1 84 71
M  V30 88 1 83 75
M  V30 89 1 1 88
M  V30 90 1 1 89
M  V30 91 1 2 90
M  V30 92 1 2 91
M  V30 93 1 3 92
M  V30 94 1 3 93
M  V30 95 1 4 94
M  V30 96 1 4 95
M  V30 97 1 5 96
M  V30 98 1 5 97
M  V30 99 1 6 98 CFG=1
M  V30 100 1 7 99
M  V30 101 1 10 100 CFG=1
M  V30 102 1 11 101
M  V30 103 1 11 102
M  V30 104 1 14 103
M  V30 105 1 15 104
M  V30 106 1 18 105 CFG=3
M  V30 107 1 19 106
M  V30 108 1 19 107
M  V30 109 1 22 108
M  V30 110 1 23 109
M  V30 111 1 26 110 CFG=3
M  V30 112 1 27 111
M  V30 113 1 27 112
M  V30 114 1 30 113
M  V30 115 1 31 114
M  V30 116 1 34 115 CFG=1
M  V30 117 1 35 116
M  V30 118 1 35 117
M  V30 119 1 38 118
M  V30 120 1 39 119
M  V30 121 1 42 120 CFG=1
M  V30 122 1 43 121
M  V30 123 1 43 122
M  V30 124 1 46 123
M  V30 125 1 47 124
M  V30 126 1 50 125 CFG=1
M  V30 127 1 51 126
M  V30 128 1 51 127
M  V30 129 1 54 128
M  V30 130 1 55 129
M  V30 131 1 58 130
M  V30 132 1 58 131
M  V30 133 1 59 132
M  V30 134 1 59 133
M  V30 135 1 60 134
M  V30 136 1 60 135
M  V30 137 1 61 136
M  V30 138 1 61 137
M  V30 139 1 62 138
M  V30 140 1 62 139
M  V30 141 1 63 140
M  V30 142 1 66 141
M  V30 143 1 66 142
M  V30 144 1 67 143
M  V30 145 1 67 144
M  V30 146 1 70 145
M  V30 147 1 73 146
M  V30 148 1 76 147
M  V30 149 1 77 148
M  V30 150 1 81 149
M  V30 151 1 82 150
M  V30 152 1 83 151
M  V30 153 1 87 152
M  V30 END BOND
M  V30 END CTAB
M  END
>  <Dataset>  (274) 
ChEMBL_Kinases

>  <Ligand_Instance>  (274) 
nan

>  <PDB_ID>  (274) 
nan

>  <Standardized_SMILES>  (274) 
NCCCC[C@@H](NC(=O)[C@@H](CC(=O)O)NC(=O)[C@@H](CC(=O)O)NC(=O)[C@@H](CC(=O)O)NC(=O)[C@@H](CC(=O)O)NC(=O)[C@@H](CC(=O)O)NC(=O)[C@@H](CC(=O)O)NC(=O)CCCCCNC(=O)CCC(=O)Nc1ncc(-c2ccc(C(=O)O)cc2)[se]1)C(=O)O

>  <Name>  (274) 
nan

>  <Pocket>  (274) 
nan

>  <ATP_Site>  (274) 
nan

>  <Peripheral>  (274) 
nan

>  <Num_H_Atoms_ProtBoundConf>  (274) 
nan

>  <Num_Resolved_Atoms>  (274) 
nan

>  <Num_Not_Resolved_Atoms>  (274) 
nan

$$$$
CHEMBL4162128
     RDKit          3D

  0  0  0  0  0  0  0  0  0  0999 V3000
M  V30 BEGIN CTAB
M  V30 COUNTS 48 50 0 0 0
M  V30 BEGIN ATOM
M  V30 1 C -0.913744 -4.074282 2.790675 0
M  V30 2 C 0.541939 -3.931183 3.113884 0
M  V30 3 C 0.712255 -3.041452 4.340021 0
M  V30 4 C 1.349304 -3.413616 1.975218 0
M  V30 5 O 1.988359 -2.339522 2.093972 0
M  V30 6 O 1.323589 -4.194445 0.837713 0
M  V30 7 C 2.006761 -3.872095 -0.320527 0
M  V30 8 C 1.627403 -2.624720 -1.028165 0 CFG=2
M  V30 9 O 1.742854 -1.453485 -0.343351 0
M  V30 10 C 0.528520 -0.844767 -0.347525 0 CFG=1
M  V30 11 N 0.585070 0.581519 -0.101994 0
M  V30 12 C 1.753994 1.230337 -0.239087 0
M  V30 13 N 1.846730 2.565759 -0.018446 0
M  V30 14 C 0.770510 3.304376 0.348679 0
M  V30 15 N 0.819220 4.705130 0.589945 0
M  V30 16 C -0.436988 2.655833 0.494284 0
M  V30 17 C -1.717682 3.024371 0.839102 0
M  V30 18 C -2.175173 4.356049 1.178400 0
M  V30 19 N -3.504044 4.687204 1.526703 0
M  V30 20 O -1.633853 5.475872 1.262587 0
M  V30 21 C -2.577438 1.950140 0.832333 0
M  V30 22 Br -4.454563 1.953559 1.241094 0
M  V30 23 N -1.830315 0.891700 0.479082 0
M  V30 24 C -0.552314 1.219953 0.260443 0
M  V30 25 C -0.034866 -1.163497 -1.713804 0 CFG=1
M  V30 26 O 0.709651 -0.609026 -2.734421 0
M  V30 27 C 0.270930 -2.674659 -1.703964 0 CFG=2
M  V30 28 O -0.708721 -3.280838 -0.958276 0
M  V30 29 H -1.483635 -3.966027 3.741971 0
M  V30 30 H -1.078430 -5.091972 2.382280 0
M  V30 31 H -1.187312 -3.300989 2.051956 0
M  V30 32 H 0.954431 -4.933218 3.411423 0
M  V30 33 H 0.037577 -2.164265 4.334208 0
M  V30 34 H 0.465669 -3.654479 5.230953 0
M  V30 35 H 1.748836 -2.662290 4.448780 0
M  V30 36 H 3.117135 -3.772477 -0.103603 0
M  V30 37 H 1.984693 -4.722933 -1.054998 0
M  V30 38 H 2.360379 -2.536090 -1.898088 0
M  V30 39 H -0.129680 -1.366525 0.382446 0
M  V30 40 H 2.619773 0.651732 -0.531701 0
M  V30 41 H 0.957171 5.628646 0.131912 0
M  V30 42 H 0.973536 5.589981 0.020504 0
M  V30 43 H -3.975114 4.632673 2.471813 0
M  V30 44 H -3.664077 4.521032 2.552359 0
M  V30 45 H -1.108554 -0.979109 -1.784450 0
M  V30 46 H 0.290197 -0.916616 -3.581291 0
M  V30 47 H 0.297026 -3.004196 -2.745612 0
M  V30 48 H -0.472984 -4.204306 -0.660709 0
M  V30 END ATOM
M  V30 BEGIN BOND
M  V30 1 1 1 2
M  V30 2 1 2 3
M  V30 3 1 2 4
M  V30 4 2 4 5
M  V30 5 1 4 6
M  V30 6 1 6 7
M  V30 7 1 7 8
M  V30 8 1 8 9
M  V30 9 1 9 10
M  V30 10 1 10 11
M  V30 11 1 11 12
M  V30 12 2 12 13
M  V30 13 1 13 14
M  V30 14 1 14 15
M  V30 15 2 14 16
M  V30 16 1 16 17
M  V30 17 1 17 18
M  V30 18 1 18 19
M  V30 19 2 18 20
M  V30 20 2 17 21
M  V30 21 1 21 22
M  V30 22 1 21 23
M  V30 23 2 23 24
M  V30 24 1 10 25
M  V30 25 1 25 26
M  V30 26 1 25 27
M  V30 27 1 27 28
M  V30 28 1 27 8
M  V30 29 1 24 11
M  V30 30 1 24 16
M  V30 31 1 1 29
M  V30 32 1 1 30
M  V30 33 1 1 31
M  V30 34 1 2 32
M  V30 35 1 3 33
M  V30 36 1 3 34
M  V30 37 1 3 35
M  V30 38 1 7 36
M  V30 39 1 7 37
M  V30 40 1 8 38 CFG=3
M  V30 41 1 10 39 CFG=1
M  V30 42 1 12 40
M  V30 43 1 15 41
M  V30 44 1 15 42
M  V30 45 1 19 43
M  V30 46 1 19 44
M  V30 47 1 25 45 CFG=1
M  V30 48 1 26 46
M  V30 49 1 27 47 CFG=3
M  V30 50 1 28 48
M  V30 END BOND
M  V30 END CTAB
M  END
>  <Dataset>  (275) 
ChEMBL_Kinases

>  <Ligand_Instance>  (275) 
nan

>  <PDB_ID>  (275) 
nan

>  <Standardized_SMILES>  (275) 
CC(C)C(=O)OC[C@@H]1O[C@@H](n2cnc(N)c3c(C(N)=O)c(Br)nc2-3)[C@@H](O)[C@@H]1O

>  <Name>  (275) 
nan

>  <Pocket>  (275) 
nan

>  <ATP_Site>  (275) 
nan

>  <Peripheral>  (275) 
nan

>  <Num_H_Atoms_ProtBoundConf>  (275) 
nan

>  <Num_Resolved_Atoms>  (275) 
nan

>  <Num_Not_Resolved_Atoms>  (275) 
nan

$$$$
CHEMBL4162058
     RDKit          3D

  0  0  0  0  0  0  0  0  0  0999 V3000
M  V30 BEGIN CTAB
M  V30 COUNTS 63 68 0 0 0
M  V30 BEGIN ATOM
M  V30 1 C -1.520510 -2.163700 -0.141726 0
M  V30 2 C -0.638623 -1.721611 0.971319 0 CFG=2
M  V30 3 C -0.891162 -0.322359 1.438696 0
M  V30 4 C -0.923939 0.555137 0.189617 0
M  V30 5 C 0.498814 0.644908 -0.292505 0 CFG=1
M  V30 6 C 1.019103 -0.701582 -0.658174 0 CFG=1
M  V30 7 C 2.546583 -0.580622 -0.782227 0
M  V30 8 C 2.974978 0.736732 -1.275282 0
M  V30 9 C 2.166483 1.746694 -1.593719 0
M  V30 10 C 2.820248 2.992510 -2.073025 0
M  V30 11 C 1.829924 3.897230 -2.724562 0 CFG=1
M  V30 12 O 1.534668 3.566269 -4.038310 0
M  V30 13 C 0.665561 4.093108 -1.829941 0
M  V30 14 C -0.020485 2.898506 -1.304254 0
M  V30 15 C 0.673462 1.593402 -1.460718 0 CFG=2
M  V30 16 C 0.179728 0.887834 -2.702767 0
M  V30 17 C 0.787365 -1.684260 0.404257 0 CFG=2
M  V30 18 C 0.960321 -3.122754 0.044647 0
M  V30 19 C 0.296576 -3.829395 1.214464 0
M  V30 20 C -0.356341 -2.705694 2.030767 0 CFG=2
M  V30 21 C -1.364744 -3.124712 2.951746 0
M  V30 22 C -1.148300 -2.977823 4.330765 0
M  V30 23 C -2.069346 -3.356559 5.282404 0
M  V30 24 C -3.269550 -3.908369 4.908814 0
M  V30 25 N -4.336943 -4.362429 5.592074 0
M  V30 26 N -5.258626 -4.806414 4.745024 0
M  V30 27 C -4.789871 -4.641486 3.490482 0
M  V30 28 C -3.533658 -4.075502 3.561181 0
M  V30 29 C -2.568750 -3.675931 2.641741 0
M  V30 30 H -2.573252 -1.824440 -0.063140 0
M  V30 31 H -1.189543 -1.761973 -1.144347 0
M  V30 32 H -1.430927 -3.263335 -0.260465 0
M  V30 33 H -1.775655 -0.181222 2.071520 0
M  V30 34 H -0.003914 -0.007010 2.021736 0
M  V30 35 H -1.338001 1.506790 0.521528 0
M  V30 36 H -1.605265 0.145511 -0.552606 0
M  V30 37 H 1.114532 1.041707 0.546978 0
M  V30 38 H 0.705753 -1.088539 -1.633177 0
M  V30 39 H 2.949766 -1.438354 -1.370935 0
M  V30 40 H 3.001041 -0.695110 0.245292 0
M  V30 41 H 4.071662 0.783179 -1.349326 0
M  V30 42 H 3.165847 3.518740 -1.142911 0
M  V30 43 H 3.683182 2.704517 -2.710900 0
M  V30 44 H 2.334605 4.905535 -2.804928 0
M  V30 45 H 0.560687 3.741132 -4.195213 0
M  V30 46 H -0.062508 4.750125 -2.390159 0
M  V30 47 H 1.000901 4.774060 -0.991903 0
M  V30 48 H -1.033393 2.800106 -1.794397 0
M  V30 49 H -0.250677 3.060097 -0.230878 0
M  V30 50 H -0.283165 1.588420 -3.450191 0
M  V30 51 H 0.969575 0.303551 -3.210788 0
M  V30 52 H -0.647678 0.168636 -2.498913 0
M  V30 53 H 1.455169 -1.492787 1.276304 0
M  V30 54 H 0.498372 -3.440100 -0.899264 0
M  V30 55 H 2.039473 -3.378567 -0.052620 0
M  V30 56 H -0.411695 -4.597491 0.898396 0
M  V30 57 H 1.133634 -4.297433 1.796335 0
M  V30 58 H 0.509313 -2.295812 2.630519 0
M  V30 59 H -0.208418 -2.543089 4.695658 0
M  V30 60 H -1.834702 -3.213494 6.329385 0
M  V30 61 H -4.358423 -4.334370 6.635445 0
M  V30 62 H -5.278435 -4.893913 2.568958 0
M  V30 63 H -2.826294 -3.828768 1.608512 0
M  V30 END ATOM
M  V30 BEGIN BOND
M  V30 1 1 2 1 CFG=3
M  V30 2 1 2 3
M  V30 3 1 3 4
M  V30 4 1 4 5
M  V30 5 1 5 6
M  V30 6 1 6 7
M  V30 7 1 7 8
M  V30 8 2 8 9
M  V30 9 1 9 10
M  V30 10 1 10 11
M  V30 11 1 11 12
M  V30 12 1 11 13
M  V30 13 1 13 14
M  V30 14 1 14 15
M  V30 15 1 15 16 CFG=3
M  V30 16 1 6 17
M  V30 17 1 17 18
M  V30 18 1 18 19
M  V30 19 1 19 20
M  V30 20 1 20 21
M  V30 21 2 21 22
M  V30 22 1 22 23
M  V30 23 2 23 24
M  V30 24 1 24 25
M  V30 25 1 25 26
M  V30 26 2 26 27
M  V30 27 1 27 28
M  V30 28 2 28 29
M  V30 29 1 17 2
M  V30 30 1 29 21
M  V30 31 1 20 2
M  V30 32 1 28 24
M  V30 33 1 15 5
M  V30 34 1 15 9
M  V30 35 1 1 30
M  V30 36 1 1 31
M  V30 37 1 1 32
M  V30 38 1 3 33
M  V30 39 1 3 34
M  V30 40 1 4 35
M  V30 41 1 4 36
M  V30 42 1 5 37 CFG=1
M  V30 43 1 6 38 CFG=3
M  V30 44 1 7 39
M  V30 45 1 7 40
M  V30 46 1 8 41
M  V30 47 1 10 42
M  V30 48 1 10 43
M  V30 49 1 11 44 CFG=3
M  V30 50 1 12 45
M  V30 51 1 13 46
M  V30 52 1 13 47
M  V30 53 1 14 48
M  V30 54 1 14 49
M  V30 55 1 16 50
M  V30 56 1 16 51
M  V30 57 1 16 52
M  V30 58 1 17 53 CFG=1
M  V30 59 1 18 54
M  V30 60 1 18 55
M  V30 61 1 19 56
M  V30 62 1 19 57
M  V30 63 1 20 58 CFG=1
M  V30 64 1 22 59
M  V30 65 1 23 60
M  V30 66 1 25 61
M  V30 67 1 27 62
M  V30 68 1 29 63
M  V30 END BOND
M  V30 END CTAB
M  END
>  <Dataset>  (276) 
ChEMBL_Kinases

>  <Ligand_Instance>  (276) 
nan

>  <PDB_ID>  (276) 
nan

>  <Standardized_SMILES>  (276) 
C[C@]12CC[C@H]3[C@@H](CC=C4C[C@@H](O)CC[C@@]43C)[C@@H]1CC[C@@H]2c1ccc2[nH]ncc2c1

>  <Name>  (276) 
nan

>  <Pocket>  (276) 
nan

>  <ATP_Site>  (276) 
nan

>  <Peripheral>  (276) 
nan

>  <Num_H_Atoms_ProtBoundConf>  (276) 
nan

>  <Num_Resolved_Atoms>  (276) 
nan

>  <Num_Not_Resolved_Atoms>  (276) 
nan

$$$$
CHEMBL4161913
     RDKit          3D

  0  0  0  0  0  0  0  0  0  0999 V3000
M  V30 BEGIN CTAB
M  V30 COUNTS 39 41 0 0 0
M  V30 BEGIN ATOM
M  V30 1 N -2.113338 -3.740133 4.340343 0
M  V30 2 C -1.461957 -4.415265 3.268084 0
M  V30 3 N -1.294929 -5.740023 3.081233 0
M  V30 4 N -0.634703 -5.986526 1.960892 0
M  V30 5 C -0.346510 -4.793523 1.372361 0
M  V30 6 C 0.327467 -4.490318 0.186227 0
M  V30 7 C 0.500755 -3.166494 -0.214065 0
M  V30 8 C -0.025317 -2.182965 0.618413 0
M  V30 9 N 0.110859 -0.780831 0.276103 0
M  V30 10 C 1.334102 -0.281243 0.850444 0
M  V30 11 O 1.944360 -1.204716 1.490831 0
M  V30 12 C 1.813820 1.107888 0.715641 0 CFG=1
M  V30 13 C 2.045374 1.534298 -0.717895 0
M  V30 14 C 0.836507 2.093198 -1.400318 0
M  V30 15 C -0.101868 2.847157 -0.521440 0 CFG=2
M  V30 16 N -0.590358 4.077493 -1.158242 0
M  V30 17 C 0.649931 3.317157 0.704350 0
M  V30 18 C 1.027240 2.105635 1.515978 0
M  V30 19 C -0.698031 -2.435274 1.798479 0
M  V30 20 C -0.859381 -3.772076 2.179159 0
M  V30 21 H -1.584172 -2.993242 4.882726 0
M  V30 22 H -3.106945 -4.087730 4.472931 0
M  V30 23 H -0.373701 -6.943682 1.583738 0
M  V30 24 H 0.716664 -5.298864 -0.423436 0
M  V30 25 H 1.014620 -2.897578 -1.121285 0
M  V30 26 H -0.476957 -0.102506 -0.276919 0
M  V30 27 H 2.826258 1.098615 1.183409 0
M  V30 28 H 2.417340 0.617869 -1.238976 0
M  V30 29 H 2.846362 2.299091 -0.723193 0
M  V30 30 H 0.341175 1.307554 -2.037691 0
M  V30 31 H 1.202394 2.836484 -2.168129 0
M  V30 32 H -0.974915 2.245277 -0.240977 0
M  V30 33 H -0.746011 3.981994 -2.168639 0
M  V30 34 H -0.070914 4.920974 -0.856014 0
M  V30 35 H 1.558174 3.844773 0.408465 0
M  V30 36 H 0.021943 3.966261 1.357693 0
M  V30 37 H 1.542685 2.470380 2.429487 0
M  V30 38 H 0.064285 1.668030 1.911008 0
M  V30 39 H -1.095343 -1.667942 2.425336 0
M  V30 END ATOM
M  V30 BEGIN BOND
M  V30 1 1 1 2
M  V30 2 2 2 3
M  V30 3 1 3 4
M  V30 4 1 4 5
M  V30 5 2 5 6
M  V30 6 1 6 7
M  V30 7 2 7 8
M  V30 8 1 8 9
M  V30 9 1 9 10
M  V30 10 2 10 11
M  V30 11 1 10 12
M  V30 12 1 12 13
M  V30 13 1 13 14
M  V30 14 1 14 15
M  V30 15 1 15 16
M  V30 16 1 15 17
M  V30 17 1 17 18
M  V30 18 1 8 19
M  V30 19 2 19 20
M  V30 20 1 20 2
M  V30 21 1 20 5
M  V30 22 1 18 12
M  V30 23 1 1 21
M  V30 24 1 1 22
M  V30 25 1 4 23
M  V30 26 1 6 24
M  V30 27 1 7 25
M  V30 28 1 9 26
M  V30 29 1 12 27 CFG=1
M  V30 30 1 13 28
M  V30 31 1 13 29
M  V30 32 1 14 30
M  V30 33 1 14 31
M  V30 34 1 15 32 CFG=1
M  V30 35 1 16 33
M  V30 36 1 16 34
M  V30 37 1 17 35
M  V30 38 1 17 36
M  V30 39 1 18 37
M  V30 40 1 18 38
M  V30 41 1 19 39
M  V30 END BOND
M  V30 END CTAB
M  END
>  <Dataset>  (277) 
ChEMBL_Kinases

>  <Ligand_Instance>  (277) 
nan

>  <PDB_ID>  (277) 
nan

>  <Standardized_SMILES>  (277) 
Nc1n[nH]c2ccc(NC(=O)[C@H]3CC[C@H](N)CC3)cc12

>  <Name>  (277) 
nan

>  <Pocket>  (277) 
nan

>  <ATP_Site>  (277) 
nan

>  <Peripheral>  (277) 
nan

>  <Num_H_Atoms_ProtBoundConf>  (277) 
nan

>  <Num_Resolved_Atoms>  (277) 
nan

>  <Num_Not_Resolved_Atoms>  (277) 
nan

$$$$
CHEMBL4161901
     RDKit          3D

  0  0  0  0  0  0  0  0  0  0999 V3000
M  V30 BEGIN CTAB
M  V30 COUNTS 45 48 0 0 0
M  V30 BEGIN ATOM
M  V30 1 C -1.817669 -6.575871 1.503843 0
M  V30 2 O -1.547806 -6.058722 2.770966 0
M  V30 3 C -1.003700 -4.825552 3.027453 0
M  V30 4 C -0.644723 -3.914326 2.027201 0
M  V30 5 C -0.103559 -2.698670 2.410355 0
M  V30 6 C 0.273923 -1.743336 1.360351 0
M  V30 7 C 0.168290 -0.406104 1.680906 0
M  V30 8 N 0.497899 0.509795 0.768288 0
M  V30 9 C 0.937121 0.292194 -0.472571 0
M  V30 10 C 1.310137 1.110907 -1.518984 0
M  V30 11 N 1.314193 2.552017 -1.491990 0
M  V30 12 C 1.696439 3.159631 -2.779488 0
M  V30 13 C 1.722901 4.644367 -2.572352 0
M  V30 14 O 2.385080 4.957002 -1.376938 0
M  V30 15 C 1.674623 4.600582 -0.269784 0
M  V30 16 C 0.969284 3.277165 -0.307375 0 CFG=1
M  V30 17 C -0.539272 3.572240 -0.269533 0
M  V30 18 S 1.771681 0.149750 -2.844768 0
M  V30 19 N 1.479429 -1.501360 -2.040141 0
M  V30 20 C 1.041752 -1.037251 -0.790247 0
M  V30 21 C 0.722298 -2.051077 0.092072 0
M  V30 22 C 0.090649 -2.361386 3.733543 0
M  V30 23 C -0.257483 -3.249524 4.752779 0
M  V30 24 C -0.792944 -4.449056 4.336042 0
M  V30 25 N -1.141799 -5.342845 5.413547 0
M  V30 26 H -2.913027 -6.411013 1.284966 0
M  V30 27 H -1.164324 -6.176741 0.717826 0
M  V30 28 H -1.651952 -7.690937 1.559209 0
M  V30 29 H -0.800628 -4.188341 0.993330 0
M  V30 30 H -0.177511 -0.054255 2.660589 0
M  V30 31 H 2.682866 2.747278 -3.031184 0
M  V30 32 H 0.982071 2.890576 -3.575597 0
M  V30 33 H 2.348364 5.089900 -3.392977 0
M  V30 34 H 0.725362 5.099413 -2.645854 0
M  V30 35 H 2.380481 4.558673 0.595300 0
M  V30 36 H 0.949253 5.448667 -0.072926 0
M  V30 37 H 1.150712 2.696468 0.623688 0
M  V30 38 H -1.126159 2.763945 -0.754125 0
M  V30 39 H -0.875607 3.681836 0.785023 0
M  V30 40 H -0.742078 4.547457 -0.757780 0
M  V30 41 H 0.760133 -3.116179 -0.033766 0
M  V30 42 H 0.513178 -1.410891 4.019337 0
M  V30 43 H -0.111755 -3.000992 5.794350 0
M  V30 44 H -0.319357 -5.665621 5.968713 0
M  V30 45 H -1.987930 -5.792816 5.838851 0
M  V30 END ATOM
M  V30 BEGIN BOND
M  V30 1 1 1 2
M  V30 2 1 2 3
M  V30 3 2 3 4
M  V30 4 1 4 5
M  V30 5 1 5 6
M  V30 6 1 6 7
M  V30 7 2 7 8
M  V30 8 1 8 9
M  V30 9 2 9 10
M  V30 10 1 10 11
M  V30 11 1 11 12
M  V30 12 1 12 13
M  V30 13 1 13 14
M  V30 14 1 14 15
M  V30 15 1 15 16
M  V30 16 1 16 17
M  V30 17 1 10 18
M  V30 18 1 18 19
M  V30 19 2 19 20
M  V30 20 1 20 21
M  V30 21 2 5 22
M  V30 22 1 22 23
M  V30 23 2 23 24
M  V30 24 1 24 25
M  V30 25 1 24 3
M  V30 26 2 21 6
M  V30 27 1 20 9
M  V30 28 1 16 11
M  V30 29 1 1 26
M  V30 30 1 1 27
M  V30 31 1 1 28
M  V30 32 1 4 29
M  V30 33 1 7 30
M  V30 34 1 12 31
M  V30 35 1 12 32
M  V30 36 1 13 33
M  V30 37 1 13 34
M  V30 38 1 15 35
M  V30 39 1 15 36
M  V30 40 1 16 37 CFG=1
M  V30 41 1 17 38
M  V30 42 1 17 39
M  V30 43 1 17 40
M  V30 44 1 21 41
M  V30 45 1 22 42
M  V30 46 1 23 43
M  V30 47 1 25 44
M  V30 48 1 25 45
M  V30 END BOND
M  V30 END CTAB
M  END
>  <Dataset>  (278) 
ChEMBL_Kinases

>  <Ligand_Instance>  (278) 
nan

>  <PDB_ID>  (278) 
nan

>  <Standardized_SMILES>  (278) 
COc1cc(-c2cnc3c(N4CCOC[C@H]4C)snc3c2)ccc1N

>  <Name>  (278) 
nan

>  <Pocket>  (278) 
nan

>  <ATP_Site>  (278) 
nan

>  <Peripheral>  (278) 
nan

>  <Num_H_Atoms_ProtBoundConf>  (278) 
nan

>  <Num_Resolved_Atoms>  (278) 
nan

>  <Num_Not_Resolved_Atoms>  (278) 
nan

$$$$
CHEMBL4788688
     RDKit          3D

  0  0  0  0  0  0  0  0  0  0999 V3000
M  V30 BEGIN CTAB
M  V30 COUNTS 57 60 0 0 0
M  V30 BEGIN ATOM
M  V30 1 C -5.261214 2.385432 2.216481 0
M  V30 2 C -5.677096 0.979774 2.640872 0
M  V30 3 C -4.889219 0.615080 3.855809 0
M  V30 4 O -5.613473 0.056548 1.598410 0
M  V30 5 C -4.489283 -0.287628 0.874042 0
M  V30 6 C -4.263717 0.480360 -0.256011 0
M  V30 7 C -3.166059 0.247849 -1.086089 0
M  V30 8 C -2.270771 -0.766452 -0.793060 0
M  V30 9 C -1.123278 -1.011790 -1.660815 0
M  V30 10 C -1.334293 -0.732441 -3.008294 0
M  V30 11 N -0.351397 -0.917562 -3.913018 0
M  V30 12 C 0.867048 -1.377600 -3.550713 0
M  V30 13 N 2.020702 -1.664695 -4.164653 0
M  V30 14 C 2.946742 -2.109662 -3.275832 0
M  V30 15 C 2.354666 -2.110276 -2.007614 0
M  V30 16 C 3.090189 -2.537914 -0.821620 0
M  V30 17 C 2.611531 -3.374126 0.167412 0
M  V30 18 C 3.388314 -3.714348 1.242441 0
M  V30 19 C 2.872741 -4.590970 2.268748 0
M  V30 20 N 2.449456 -5.279991 3.097156 0
M  V30 21 C 4.668875 -3.205245 1.325038 0
M  V30 22 C 5.210829 -2.356737 0.360300 0
M  V30 23 N 6.537748 -1.871086 0.509780 0
M  V30 24 S 6.968303 -0.238973 0.247526 0
M  V30 25 C 6.121756 0.855023 1.365892 0
M  V30 26 O 6.710901 0.178702 -1.188052 0
M  V30 27 O 8.446080 -0.053973 0.467657 0
M  V30 28 C 4.380472 -2.055444 -0.690135 0
M  V30 29 C 1.069458 -1.652652 -2.211905 0
M  V30 30 C 0.104746 -1.483584 -1.242634 0
M  V30 31 C -2.496827 -1.536922 0.340713 0
M  V30 32 C -3.589400 -1.284430 1.141997 0
M  V30 33 C -7.116655 1.073376 3.062084 0
M  V30 34 O -7.582253 1.812634 3.985429 0
M  V30 35 O -8.185529 0.371433 2.518369 0
M  V30 36 H -5.712511 2.586154 1.225936 0
M  V30 37 H -4.172819 2.453448 2.251774 0
M  V30 38 H -5.770753 3.071516 2.954864 0
M  V30 39 H -4.083600 1.364442 4.080087 0
M  V30 40 H -5.506506 0.606359 4.801718 0
M  V30 41 H -4.370265 -0.362155 3.793673 0
M  V30 42 H -4.870202 1.313198 -0.625535 0
M  V30 43 H -2.949493 0.821150 -1.977725 0
M  V30 44 H -2.229838 -0.361644 -3.483455 0
M  V30 45 H 2.068038 -1.518818 -5.204680 0
M  V30 46 H 3.953473 -2.399779 -3.556060 0
M  V30 47 H 1.602592 -3.742454 0.050536 0
M  V30 48 H 5.261319 -3.481437 2.172031 0
M  V30 49 H 7.220971 -2.582824 0.789311 0
M  V30 50 H 6.755663 1.739540 1.623674 0
M  V30 51 H 5.885502 0.364135 2.313871 0
M  V30 52 H 5.220743 1.244547 0.830556 0
M  V30 53 H 4.798633 -1.392501 -1.446038 0
M  V30 54 H 0.235292 -1.687364 -0.210141 0
M  V30 55 H -1.841774 -2.327588 0.612457 0
M  V30 56 H -3.783398 -1.869405 2.024129 0
M  V30 57 H -9.059148 0.806016 2.254396 0
M  V30 END ATOM
M  V30 BEGIN BOND
M  V30 1 1 1 2
M  V30 2 1 2 3
M  V30 3 1 2 4
M  V30 4 1 4 5
M  V30 5 2 5 6
M  V30 6 1 6 7
M  V30 7 2 7 8
M  V30 8 1 8 9
M  V30 9 2 9 10
M  V30 10 1 10 11
M  V30 11 2 11 12
M  V30 12 1 12 13
M  V30 13 1 13 14
M  V30 14 2 14 15
M  V30 15 1 15 16
M  V30 16 2 16 17
M  V30 17 1 17 18
M  V30 18 1 18 19
M  V30 19 3 19 20
M  V30 20 2 18 21
M  V30 21 1 21 22
M  V30 22 1 22 23
M  V30 23 1 23 24
M  V30 24 1 24 25
M  V30 25 2 24 26
M  V30 26 2 24 27
M  V30 27 2 22 28
M  V30 28 1 15 29
M  V30 29 2 29 30
M  V30 30 1 8 31
M  V30 31 2 31 32
M  V30 32 1 2 33
M  V30 33 2 33 34
M  V30 34 1 33 35
M  V30 35 1 32 5
M  V30 36 1 30 9
M  V30 37 1 29 12
M  V30 38 1 28 16
M  V30 39 1 1 36
M  V30 40 1 1 37
M  V30 41 1 1 38
M  V30 42 1 3 39
M  V30 43 1 3 40
M  V30 44 1 3 41
M  V30 45 1 6 42
M  V30 46 1 7 43
M  V30 47 1 10 44
M  V30 48 1 13 45
M  V30 49 1 14 46
M  V30 50 1 17 47
M  V30 51 1 21 48
M  V30 52 1 23 49
M  V30 53 1 25 50
M  V30 54 1 25 51
M  V30 55 1 25 52
M  V30 56 1 28 53
M  V30 57 1 30 54
M  V30 58 1 31 55
M  V30 59 1 32 56
M  V30 60 1 35 57
M  V30 END BOND
M  V30 END CTAB
M  END
>  <Dataset>  (279) 
ChEMBL_Kinases

>  <Ligand_Instance>  (279) 
nan

>  <PDB_ID>  (279) 
nan

>  <Standardized_SMILES>  (279) 
CC(C)(Oc1ccc(-c2cnc3[nH]cc(-c4cc(C#N)cc(NS(C)(=O)=O)c4)c3c2)cc1)C(=O)O

>  <Name>  (279) 
nan

>  <Pocket>  (279) 
nan

>  <ATP_Site>  (279) 
nan

>  <Peripheral>  (279) 
nan

>  <Num_H_Atoms_ProtBoundConf>  (279) 
nan

>  <Num_Resolved_Atoms>  (279) 
nan

>  <Num_Not_Resolved_Atoms>  (279) 
nan

$$$$
CHEMBL4788727
     RDKit          3D

  0  0  0  0  0  0  0  0  0  0999 V3000
M  V30 BEGIN CTAB
M  V30 COUNTS 48 51 0 0 0
M  V30 BEGIN ATOM
M  V30 1 N 0.502333 -4.736536 3.369850 0
M  V30 2 C 0.651542 -3.544716 2.577608 0
M  V30 3 N 1.806302 -2.837523 2.592712 0
M  V30 4 C 1.946674 -1.719017 1.849417 0
M  V30 5 C 0.910180 -1.271028 1.054491 0
M  V30 6 C 0.918351 -0.084790 0.201280 0
M  V30 7 C 0.235143 0.089956 -0.985095 0
M  V30 8 N 0.522801 1.322839 -1.439025 0
M  V30 9 N 1.344495 1.969109 -0.637238 0
M  V30 10 C 1.856462 3.315385 -0.827027 0
M  V30 11 C 3.312641 3.265481 -1.219315 0
M  V30 12 C 3.828188 4.701248 -1.053178 0
M  V30 13 N 3.985298 4.905543 0.372923 0
M  V30 14 C 2.835166 4.539394 1.131207 0
M  V30 15 C 1.610665 4.206527 0.359770 0
M  V30 16 C 1.599563 1.122132 0.376168 0
M  V30 17 C -0.263842 -1.999024 1.045702 0
M  V30 18 C -0.432062 -3.155122 1.803374 0
M  V30 19 O -1.594823 -3.913592 1.821679 0
M  V30 20 C -2.665445 -3.464798 1.010860 0
M  V30 21 C -3.858908 -4.321120 1.085152 0
M  V30 22 C -4.819325 -4.044053 2.042694 0
M  V30 23 C -5.948610 -4.831474 2.133145 0
M  V30 24 N -6.177400 -5.884886 1.320118 0
M  V30 25 C -5.260401 -6.182898 0.374799 0
M  V30 26 C -4.116386 -5.406514 0.263282 0
M  V30 27 H 0.979721 -5.468547 2.768585 0
M  V30 28 H 0.066375 -4.967944 4.302086 0
M  V30 29 H 2.837556 -1.115933 1.819594 0
M  V30 30 H -0.418877 -0.618930 -1.481139 0
M  V30 31 H 1.332480 3.773113 -1.695064 0
M  V30 32 H 3.457452 3.037113 -2.292272 0
M  V30 33 H 3.869948 2.563900 -0.598131 0
M  V30 34 H 3.046657 5.367656 -1.483334 0
M  V30 35 H 4.792781 4.789149 -1.557369 0
M  V30 36 H 4.792576 4.317710 0.678541 0
M  V30 37 H 2.580110 5.426380 1.782873 0
M  V30 38 H 3.085232 3.743779 1.892351 0
M  V30 39 H 0.915405 3.649610 1.053644 0
M  V30 40 H 1.051967 5.122600 0.079819 0
M  V30 41 H 2.245099 1.351449 1.209438 0
M  V30 42 H -1.122237 -1.724941 0.456827 0
M  V30 43 H -2.316411 -3.472799 -0.061105 0
M  V30 44 H -2.901165 -2.388405 1.201347 0
M  V30 45 H -4.750998 -3.232256 2.747854 0
M  V30 46 H -6.771952 -4.705439 2.850232 0
M  V30 47 H -5.380153 -7.010589 -0.307866 0
M  V30 48 H -3.376141 -5.644411 -0.497540 0
M  V30 END ATOM
M  V30 BEGIN BOND
M  V30 1 1 1 2
M  V30 2 2 2 3
M  V30 3 1 3 4
M  V30 4 2 4 5
M  V30 5 1 5 6
M  V30 6 1 6 7
M  V30 7 2 7 8
M  V30 8 1 8 9
M  V30 9 1 9 10
M  V30 10 1 10 11
M  V30 11 1 11 12
M  V30 12 1 12 13
M  V30 13 1 13 14
M  V30 14 1 14 15
M  V30 15 1 9 16
M  V30 16 1 5 17
M  V30 17 2 17 18
M  V30 18 1 18 19
M  V30 19 1 19 20
M  V30 20 1 20 21
M  V30 21 2 21 22
M  V30 22 1 22 23
M  V30 23 2 23 24
M  V30 24 1 24 25
M  V30 25 2 25 26
M  V30 26 1 18 2
M  V30 27 1 26 21
M  V30 28 2 16 6
M  V30 29 1 15 10
M  V30 30 1 1 27
M  V30 31 1 1 28
M  V30 32 1 4 29
M  V30 33 1 7 30
M  V30 34 1 10 31
M  V30 35 1 11 32
M  V30 36 1 11 33
M  V30 37 1 12 34
M  V30 38 1 12 35
M  V30 39 1 13 36
M  V30 40 1 14 37
M  V30 41 1 14 38
M  V30 42 1 15 39
M  V30 43 1 15 40
M  V30 44 1 16 41
M  V30 45 1 17 42
M  V30 46 1 20 43
M  V30 47 1 20 44
M  V30 48 1 22 45
M  V30 49 1 23 46
M  V30 50 1 25 47
M  V30 51 1 26 48
M  V30 END BOND
M  V30 END CTAB
M  END
>  <Dataset>  (280) 
ChEMBL_Kinases

>  <Ligand_Instance>  (280) 
nan

>  <PDB_ID>  (280) 
nan

>  <Standardized_SMILES>  (280) 
Nc1ncc(-c2cnn(C3CCNCC3)c2)cc1OCc1ccncc1

>  <Name>  (280) 
nan

>  <Pocket>  (280) 
nan

>  <ATP_Site>  (280) 
nan

>  <Peripheral>  (280) 
nan

>  <Num_H_Atoms_ProtBoundConf>  (280) 
nan

>  <Num_Resolved_Atoms>  (280) 
nan

>  <Num_Not_Resolved_Atoms>  (280) 
nan

$$$$
CHEMBL4788786
     RDKit          3D

  0  0  0  0  0  0  0  0  0  0999 V3000
M  V30 BEGIN CTAB
M  V30 COUNTS 65 69 0 0 0
M  V30 BEGIN ATOM
M  V30 1 C 2.517054 3.476663 4.518016 0
M  V30 2 N 3.879675 3.052519 4.714306 0
M  V30 3 C 4.001932 1.706415 5.197575 0
M  V30 4 C 3.384745 0.741612 4.212619 0
M  V30 5 N 3.242967 1.457102 2.951845 0
M  V30 6 C 2.696222 0.591796 1.921119 0
M  V30 7 C 3.596061 -0.478660 1.454758 0
M  V30 8 C 3.069968 -1.480583 0.481092 0
M  V30 9 O 2.593280 -1.106895 -0.726937 0
M  V30 10 C 1.602422 -0.380929 -1.253012 0
M  V30 11 C 1.769146 -0.446320 -2.650663 0
M  V30 12 C 0.905619 0.195755 -3.504105 0
M  V30 13 C -0.167661 0.936117 -3.041611 0
M  V30 14 C -0.331818 1.000994 -1.656259 0
M  V30 15 C -1.479091 1.770350 -1.133234 0
M  V30 16 C -2.562615 0.793858 -0.760790 0
M  V30 17 O -2.344582 0.094982 0.295449 0
M  V30 18 N -3.787516 0.530199 -1.404674 0
M  V30 19 C -4.743037 -0.387461 -0.987467 0
M  V30 20 N -4.786401 -1.581750 -1.194058 0
M  V30 21 C -5.759421 -2.379038 -0.772651 0
M  V30 22 C -5.753030 -3.841592 -1.025618 0
M  V30 23 C -6.763017 -4.731914 -0.759162 0
M  V30 24 N -6.364496 -5.987472 -1.111059 0
M  V30 25 C -5.125661 -5.937646 -1.597098 0
M  V30 26 N -4.155199 -6.697939 -2.088526 0
M  V30 27 C -2.963136 -6.359382 -2.500580 0
M  V30 28 C -2.532684 -5.022670 -2.465760 0
M  V30 29 F -1.289566 -4.771951 -2.912964 0
M  V30 30 C -3.491422 -4.195742 -1.969596 0
M  V30 31 C -4.718698 -4.601958 -1.554407 0
M  V30 32 C -6.832302 -1.789898 -0.021023 0
M  V30 33 S -6.336872 -0.054165 0.025821 0
M  V30 34 C 0.537076 0.354814 -0.823849 0
M  V30 35 C 4.535000 2.021644 2.630690 0
M  V30 36 C 4.654398 3.284409 3.498391 0
M  V30 37 H 1.786718 2.632130 4.432453 0
M  V30 38 H 2.398080 4.114679 3.616006 0
M  V30 39 H 2.201909 4.104692 5.385201 0
M  V30 40 H 5.036455 1.434660 5.469933 0
M  V30 41 H 3.350376 1.630072 6.120362 0
M  V30 42 H 4.104638 -0.100782 4.111660 0
M  V30 43 H 2.377021 0.379982 4.516250 0
M  V30 44 H 2.394507 1.312129 1.113905 0
M  V30 45 H 1.767577 0.152458 2.319403 0
M  V30 46 H 4.481376 0.009478 0.934234 0
M  V30 47 H 4.091060 -1.008992 2.323915 0
M  V30 48 H 3.943385 -2.205318 0.288542 0
M  V30 49 H 2.327189 -2.168372 1.006099 0
M  V30 50 H 2.523054 -0.957624 -3.267114 0
M  V30 51 H 0.942618 0.212387 -4.607173 0
M  V30 52 H -0.862907 1.451151 -3.659640 0
M  V30 53 H -1.835452 2.543888 -1.814347 0
M  V30 54 H -1.106481 2.209612 -0.153620 0
M  V30 55 H -3.931346 1.111582 -2.273218 0
M  V30 56 H -7.754167 -4.531070 -0.334462 0
M  V30 57 H -6.896745 -6.885499 -1.041419 0
M  V30 58 H -2.275094 -7.107616 -2.880557 0
M  V30 59 H -3.167213 -3.139991 -1.935647 0
M  V30 60 H -7.673109 -2.141254 0.410051 0
M  V30 61 H 0.439045 0.359905 0.237885 0
M  V30 62 H 4.635601 2.298412 1.586673 0
M  V30 63 H 5.359253 1.331467 2.917670 0
M  V30 64 H 5.713068 3.416988 3.810343 0
M  V30 65 H 4.251180 4.157775 2.984825 0
M  V30 END ATOM
M  V30 BEGIN BOND
M  V30 1 1 1 2
M  V30 2 1 2 3
M  V30 3 1 3 4
M  V30 4 1 4 5
M  V30 5 1 5 6
M  V30 6 1 6 7
M  V30 7 1 7 8
M  V30 8 1 8 9
M  V30 9 1 9 10
M  V30 10 2 10 11
M  V30 11 1 11 12
M  V30 12 2 12 13
M  V30 13 1 13 14
M  V30 14 1 14 15
M  V30 15 1 15 16
M  V30 16 2 16 17
M  V30 17 1 16 18
M  V30 18 1 18 19
M  V30 19 2 19 20
M  V30 20 1 20 21
M  V30 21 1 21 22
M  V30 22 2 22 23
M  V30 23 1 23 24
M  V30 24 1 24 25
M  V30 25 2 25 26
M  V30 26 1 26 27
M  V30 27 2 27 28
M  V30 28 1 28 29
M  V30 29 1 28 30
M  V30 30 2 30 31
M  V30 31 2 21 32
M  V30 32 1 32 33
M  V30 33 2 14 34
M  V30 34 1 5 35
M  V30 35 1 35 36
M  V30 36 1 36 2
M  V30 37 1 34 10
M  V30 38 1 33 19
M  V30 39 1 31 22
M  V30 40 1 31 25
M  V30 41 1 1 37
M  V30 42 1 1 38
M  V30 43 1 1 39
M  V30 44 1 3 40
M  V30 45 1 3 41
M  V30 46 1 4 42
M  V30 47 1 4 43
M  V30 48 1 6 44
M  V30 49 1 6 45
M  V30 50 1 7 46
M  V30 51 1 7 47
M  V30 52 1 8 48
M  V30 53 1 8 49
M  V30 54 1 11 50
M  V30 55 1 12 51
M  V30 56 1 13 52
M  V30 57 1 15 53
M  V30 58 1 15 54
M  V30 59 1 18 55
M  V30 60 1 23 56
M  V30 61 1 24 57
M  V30 62 1 27 58
M  V30 63 1 30 59
M  V30 64 1 32 60
M  V30 65 1 34 61
M  V30 66 1 35 62
M  V30 67 1 35 63
M  V30 68 1 36 64
M  V30 69 1 36 65
M  V30 END BOND
M  V30 END CTAB
M  END
>  <Dataset>  (281) 
ChEMBL_Kinases

>  <Ligand_Instance>  (281) 
nan

>  <PDB_ID>  (281) 
nan

>  <Standardized_SMILES>  (281) 
CN1CCN(CCCOc2cccc(CC(=O)Nc3nc(-c4c[nH]c5ncc(F)cc45)cs3)c2)CC1

>  <Name>  (281) 
nan

>  <Pocket>  (281) 
nan

>  <ATP_Site>  (281) 
nan

>  <Peripheral>  (281) 
nan

>  <Num_H_Atoms_ProtBoundConf>  (281) 
nan

>  <Num_Resolved_Atoms>  (281) 
nan

>  <Num_Not_Resolved_Atoms>  (281) 
nan

$$$$
CHEMBL4788802
     RDKit          3D

  0  0  0  0  0  0  0  0  0  0999 V3000
M  V30 BEGIN CTAB
M  V30 COUNTS 33 36 0 0 0
M  V30 BEGIN ATOM
M  V30 1 N 0.383127 -5.644602 4.293985 0
M  V30 2 C 0.226114 -4.748710 3.570771 0
M  V30 3 C 0.051654 -3.631949 2.685196 0
M  V30 4 N 0.890749 -2.575087 2.635605 0
M  V30 5 N 0.701561 -1.556902 1.804538 0
M  V30 6 C -0.360655 -1.566883 0.977185 0
M  V30 7 C -0.829003 -0.692471 0.023293 0
M  V30 8 C -0.322959 0.502380 -0.380308 0
M  V30 9 C 0.886421 1.122738 0.153435 0
M  V30 10 C 2.017798 0.728732 -0.569860 0
M  V30 11 C 3.277891 1.206495 -0.225285 0
M  V30 12 C 3.391774 2.073566 0.839693 0
M  V30 13 C 2.261275 2.467646 1.562901 0
M  V30 14 C 1.013246 1.991558 1.217988 0
M  V30 15 Cl -0.484271 2.384445 2.013958 0
M  V30 16 C -1.011060 1.179485 -1.374484 0
M  V30 17 C -0.550700 2.446175 -1.862117 0
M  V30 18 N -0.171091 3.470619 -2.237259 0
M  V30 19 C -2.155505 0.594240 -1.880787 0
M  V30 20 O -2.753945 1.242303 -2.785096 0
M  V30 21 N -2.663295 -0.596497 -1.481310 0
M  V30 22 C -1.984005 -1.231779 -0.522089 0
M  V30 23 N -2.184139 -2.402040 0.105231 0
M  V30 24 N -1.222569 -2.623542 1.008728 0
M  V30 25 C -1.061221 -3.670926 1.837504 0
M  V30 26 N -1.975838 -4.760060 1.849438 0
M  V30 27 H 2.048700 0.058004 -1.417744 0
M  V30 28 H 4.189449 0.939877 -0.744256 0
M  V30 29 H 4.368782 2.475039 1.145809 0
M  V30 30 H 2.292333 3.145415 2.407094 0
M  V30 31 H -3.532224 -0.966890 -1.915306 0
M  V30 32 H -1.781286 -5.781553 1.923179 0
M  V30 33 H -3.016127 -4.560897 1.775480 0
M  V30 END ATOM
M  V30 BEGIN BOND
M  V30 1 3 1 2
M  V30 2 1 2 3
M  V30 3 1 3 4
M  V30 4 2 4 5
M  V30 5 1 5 6
M  V30 6 2 6 7
M  V30 7 1 7 8
M  V30 8 1 8 9
M  V30 9 2 9 10
M  V30 10 1 10 11
M  V30 11 2 11 12
M  V30 12 1 12 13
M  V30 13 2 13 14
M  V30 14 1 14 15
M  V30 15 2 8 16
M  V30 16 1 16 17
M  V30 17 3 17 18
M  V30 18 1 16 19
M  V30 19 2 19 20
M  V30 20 1 19 21
M  V30 21 1 21 22
M  V30 22 2 22 23
M  V30 23 1 23 24
M  V30 24 1 24 25
M  V30 25 1 25 26
M  V30 26 2 25 3
M  V30 27 1 24 6
M  V30 28 1 22 7
M  V30 29 1 14 9
M  V30 30 1 10 27
M  V30 31 1 11 28
M  V30 32 1 12 29
M  V30 33 1 13 30
M  V30 34 1 21 31
M  V30 35 1 26 32
M  V30 36 1 26 33
M  V30 END BOND
M  V30 END CTAB
M  END
>  <Dataset>  (282) 
ChEMBL_Kinases

>  <Ligand_Instance>  (282) 
nan

>  <PDB_ID>  (282) 
nan

>  <Standardized_SMILES>  (282) 
N#Cc1nnc2c3c(-c4ccccc4Cl)c(C#N)c(=O)[nH]c3nn2c1N

>  <Name>  (282) 
nan

>  <Pocket>  (282) 
nan

>  <ATP_Site>  (282) 
nan

>  <Peripheral>  (282) 
nan

>  <Num_H_Atoms_ProtBoundConf>  (282) 
nan

>  <Num_Resolved_Atoms>  (282) 
nan

>  <Num_Not_Resolved_Atoms>  (282) 
nan

$$$$
CHEMBL4161839
     RDKit          3D

  0  0  0  0  0  0  0  0  0  0999 V3000
M  V30 BEGIN CTAB
M  V30 COUNTS 62 66 0 0 0
M  V30 BEGIN ATOM
M  V30 1 C -2.356076 -0.329203 6.236590 0
M  V30 2 C -2.381097 -1.838173 6.131304 0
M  V30 3 O -1.883438 -2.283946 4.883612 0
M  V30 4 C -0.589308 -1.963468 4.536166 0
M  V30 5 O 0.013748 -1.276853 5.426359 0
M  V30 6 C -0.180068 -2.492219 3.192197 0
M  V30 7 S 1.519757 -2.033152 2.811800 0
M  V30 8 C 1.655840 -0.264086 2.614664 0
M  V30 9 N 1.448699 0.188996 1.349543 0
M  V30 10 C 1.520303 1.512103 1.045676 0
M  V30 11 O 1.297880 1.933421 -0.279379 0
M  V30 12 C 1.012066 0.902285 -1.185778 0
M  V30 13 C -0.348443 0.674325 -1.249427 0
M  V30 14 C -0.872892 -0.300863 -2.079519 0
M  V30 15 C 0.020478 -1.044253 -2.848420 0
M  V30 16 C -0.432441 -2.097481 -3.754095 0
M  V30 17 N -1.746538 -2.426688 -3.908809 0
M  V30 18 C -1.858717 -3.427135 -4.801903 0
M  V30 19 C -3.016642 -4.046294 -5.235540 0
M  V30 20 C -2.836352 -5.059225 -6.171557 0
M  V30 21 C -4.000738 -5.770502 -6.687343 0
M  V30 22 N -5.296798 -5.454193 -6.257234 0
M  V30 23 O -4.071443 -6.703275 -7.525027 0
M  V30 24 C -1.565543 -5.410648 -6.628418 0
M  V30 25 C -0.446430 -4.753810 -6.156448 0
M  V30 26 C -0.582216 -3.741912 -5.225985 0
M  V30 27 N 0.248053 -2.921591 -4.574193 0
M  V30 28 C 1.390098 -0.812333 -2.782263 0
M  V30 29 C 1.897323 0.163950 -1.949332 0
M  V30 30 C 1.812612 2.428605 2.051578 0
M  V30 31 C 1.889323 3.828905 1.748755 0
M  V30 32 N 1.935357 4.962751 1.502950 0
M  V30 33 C 2.019780 1.953721 3.327637 0
M  V30 34 C 2.329723 2.856767 4.430138 0
M  V30 35 C 3.262183 3.863033 4.292565 0
M  V30 36 C 3.618875 4.770219 5.289291 0
M  V30 37 C 2.989562 4.652029 6.509988 0
M  V30 38 F 3.294180 5.506556 7.522027 0
M  V30 39 C 2.050261 3.654691 6.682199 0
M  V30 40 C 1.710567 2.765537 5.682025 0
M  V30 41 N 1.938893 0.630621 3.585226 0
M  V30 42 H -3.400900 0.040782 6.383243 0
M  V30 43 H -1.941232 0.158646 5.337351 0
M  V30 44 H -1.782873 0.004444 7.143308 0
M  V30 45 H -1.732846 -2.309818 6.925826 0
M  V30 46 H -3.422379 -2.229599 6.285228 0
M  V30 47 H -0.250747 -3.600093 3.261812 0
M  V30 48 H -0.868731 -2.107873 2.401515 0
M  V30 49 H -1.124150 1.193144 -0.696258 0
M  V30 50 H -1.926089 -0.525363 -2.171986 0
M  V30 51 H -3.991378 -3.749865 -4.860794 0
M  V30 52 H -5.811504 -5.565680 -5.351023 0
M  V30 53 H -6.097660 -5.003558 -6.782640 0
M  V30 54 H -1.431259 -6.196454 -7.353445 0
M  V30 55 H 0.570288 -4.966321 -6.459618 0
M  V30 56 H 1.295258 -2.897815 -4.667156 0
M  V30 57 H 2.142397 -1.342043 -3.342131 0
M  V30 58 H 2.913318 0.458606 -1.789066 0
M  V30 59 H 3.777976 3.992072 3.362617 0
M  V30 60 H 4.362885 5.535107 5.103103 0
M  V30 61 H 1.522827 3.511169 7.615487 0
M  V30 62 H 0.985237 1.981064 5.786712 0
M  V30 END ATOM
M  V30 BEGIN BOND
M  V30 1 1 1 2
M  V30 2 1 2 3
M  V30 3 1 3 4
M  V30 4 2 4 5
M  V30 5 1 4 6
M  V30 6 1 6 7
M  V30 7 1 7 8
M  V30 8 2 8 9
M  V30 9 1 9 10
M  V30 10 1 10 11
M  V30 11 1 11 12
M  V30 12 2 12 13
M  V30 13 1 13 14
M  V30 14 2 14 15
M  V30 15 1 15 16
M  V30 16 2 16 17
M  V30 17 1 17 18
M  V30 18 2 18 19
M  V30 19 1 19 20
M  V30 20 1 20 21
M  V30 21 1 21 22
M  V30 22 2 21 23
M  V30 23 2 20 24
M  V30 24 1 24 25
M  V30 25 2 25 26
M  V30 26 1 26 27
M  V30 27 1 15 28
M  V30 28 2 28 29
M  V30 29 2 10 30
M  V30 30 1 30 31
M  V30 31 3 31 32
M  V30 32 1 30 33
M  V30 33 1 33 34
M  V30 34 2 34 35
M  V30 35 1 35 36
M  V30 36 2 36 37
M  V30 37 1 37 38
M  V30 38 1 37 39
M  V30 39 2 39 40
M  V30 40 2 33 41
M  V30 41 1 41 8
M  V30 42 1 29 12
M  V30 43 1 40 34
M  V30 44 1 27 16
M  V30 45 1 26 18
M  V30 46 1 1 42
M  V30 47 1 1 43
M  V30 48 1 1 44
M  V30 49 1 2 45
M  V30 50 1 2 46
M  V30 51 1 6 47
M  V30 52 1 6 48
M  V30 53 1 13 49
M  V30 54 1 14 50
M  V30 55 1 19 51
M  V30 56 1 22 52
M  V30 57 1 22 53
M  V30 58 1 24 54
M  V30 59 1 25 55
M  V30 60 1 27 56
M  V30 61 1 28 57
M  V30 62 1 29 58
M  V30 63 1 35 59
M  V30 64 1 36 60
M  V30 65 1 39 61
M  V30 66 1 40 62
M  V30 END BOND
M  V30 END CTAB
M  END
>  <Dataset>  (283) 
ChEMBL_Kinases

>  <Ligand_Instance>  (283) 
nan

>  <PDB_ID>  (283) 
nan

>  <Standardized_SMILES>  (283) 
CCOC(=O)CSc1nc(Oc2ccc(-c3nc4cc(C(N)=O)ccc4[nH]3)cc2)c(C#N)c(-c2ccc(F)cc2)n1

>  <Name>  (283) 
nan

>  <Pocket>  (283) 
nan

>  <ATP_Site>  (283) 
nan

>  <Peripheral>  (283) 
nan

>  <Num_H_Atoms_ProtBoundConf>  (283) 
nan

>  <Num_Resolved_Atoms>  (283) 
nan

>  <Num_Not_Resolved_Atoms>  (283) 
nan

$$$$
CHEMBL4788879
     RDKit          3D

  0  0  0  0  0  0  0  0  0  0999 V3000
M  V30 BEGIN CTAB
M  V30 COUNTS 65 69 0 0 0
M  V30 BEGIN ATOM
M  V30 1 O -0.775111 6.180725 1.740397 0
M  V30 2 S -0.779581 4.669612 1.909033 0
M  V30 3 O -2.012683 4.098997 1.218835 0
M  V30 4 N 0.596015 4.060075 1.052634 0
M  V30 5 C 0.665671 2.608039 1.111366 0
M  V30 6 C 1.887959 2.136588 0.347365 0
M  V30 7 C 1.842744 2.571011 -1.101680 0
M  V30 8 N 0.706399 2.079386 -1.817100 0
M  V30 9 C 0.395441 0.743618 -2.165682 0
M  V30 10 C 0.009701 -0.332503 -1.419359 0
M  V30 11 C -0.260402 -1.539598 -2.023087 0
M  V30 12 C -0.675166 -2.680598 -1.217273 0
M  V30 13 N -1.887302 -2.763796 -0.618486 0
M  V30 14 C -1.905000 -3.960824 0.018291 0
M  V30 15 C -3.014487 -4.523934 0.801787 0
M  V30 16 C -2.935197 -5.758857 1.443374 0
M  V30 17 C -4.058202 -6.197493 2.152265 0
M  V30 18 C -5.219096 -5.460251 2.233936 0
M  V30 19 C -5.279013 -4.238135 1.591455 0
M  V30 20 C -4.183633 -3.785475 0.886705 0
M  V30 21 N -0.737206 -4.595354 -0.181345 0
M  V30 22 C 0.072020 -3.834298 -0.952012 0
M  V30 23 C 1.422186 -4.027904 -1.476831 0
M  V30 24 C 1.829232 -5.087399 -2.282650 0
M  V30 25 C 3.126134 -5.177550 -2.735186 0
M  V30 26 C 4.043662 -4.202542 -2.386208 0
M  V30 27 C 3.678688 -3.132486 -1.586576 0
M  V30 28 O 4.588484 -2.132140 -1.220302 0
M  V30 29 C 2.369121 -3.073265 -1.149842 0
M  V30 30 C -0.154303 -1.713718 -3.396960 0
M  V30 31 C 0.238789 -0.598762 -4.105755 0
M  V30 32 N 0.507683 0.593717 -3.524388 0
M  V30 33 C -0.751486 4.286311 3.589228 0
M  V30 34 C -0.097250 5.160334 4.408837 0
M  V30 35 C -0.010750 4.960003 5.771722 0
M  V30 36 C -0.622305 3.816980 6.298234 0
M  V30 37 F -0.527099 3.641332 7.636830 0
M  V30 38 C -1.268253 2.970996 5.426114 0
M  V30 39 C -1.360200 3.161199 4.066498 0
M  V30 40 H 0.468289 4.292970 0.023399 0
M  V30 41 H 0.883734 2.371588 2.186698 0
M  V30 42 H -0.261388 2.100725 0.842048 0
M  V30 43 H 2.007379 1.068351 0.503570 0
M  V30 44 H 2.762447 2.654270 0.804115 0
M  V30 45 H 2.758296 2.118582 -1.564823 0
M  V30 46 H 1.946047 3.646243 -1.162384 0
M  V30 47 H -0.004319 2.778369 -2.137068 0
M  V30 48 H -0.050181 -0.123337 -0.379217 0
M  V30 49 H -2.651977 -2.039589 -0.648604 0
M  V30 50 H -2.018642 -6.332698 1.371155 0
M  V30 51 H -3.952440 -7.176981 2.646119 0
M  V30 52 H -6.065633 -5.850136 2.801181 0
M  V30 53 H -6.172228 -3.614963 1.623376 0
M  V30 54 H -4.239150 -2.825739 0.381095 0
M  V30 55 H 1.052744 -5.827974 -2.519082 0
M  V30 56 H 3.421044 -6.021985 -3.367962 0
M  V30 57 H 5.076400 -4.284186 -2.752558 0
M  V30 58 H 5.525347 -2.121811 -1.614215 0
M  V30 59 H 2.103162 -2.224829 -0.526212 0
M  V30 60 H -0.366681 -2.664992 -3.893534 0
M  V30 61 H 0.317524 -0.747782 -5.187886 0
M  V30 62 H 0.399275 6.066170 4.057130 0
M  V30 63 H 0.513770 5.667262 6.423455 0
M  V30 64 H -1.718944 2.110039 5.901361 0
M  V30 65 H -1.881146 2.452591 3.449446 0
M  V30 END ATOM
M  V30 BEGIN BOND
M  V30 1 2 1 2
M  V30 2 2 2 3
M  V30 3 1 2 4
M  V30 4 1 4 5
M  V30 5 1 5 6
M  V30 6 1 6 7
M  V30 7 1 7 8
M  V30 8 1 8 9
M  V30 9 2 9 10
M  V30 10 1 10 11
M  V30 11 1 11 12
M  V30 12 1 12 13
M  V30 13 1 13 14
M  V30 14 1 14 15
M  V30 15 2 15 16
M  V30 16 1 16 17
M  V30 17 2 17 18
M  V30 18 1 18 19
M  V30 19 2 19 20
M  V30 20 2 14 21
M  V30 21 1 21 22
M  V30 22 1 22 23
M  V30 23 2 23 24
M  V30 24 1 24 25
M  V30 25 2 25 26
M  V30 26 1 26 27
M  V30 27 1 27 28
M  V30 28 2 27 29
M  V30 29 2 11 30
M  V30 30 1 30 31
M  V30 31 2 31 32
M  V30 32 1 2 33
M  V30 33 2 33 34
M  V30 34 1 34 35
M  V30 35 2 35 36
M  V30 36 1 36 37
M  V30 37 1 36 38
M  V30 38 2 38 39
M  V30 39 1 32 9
M  V30 40 1 39 33
M  V30 41 2 22 12
M  V30 42 1 29 23
M  V30 43 1 20 15
M  V30 44 1 4 40
M  V30 45 1 5 41
M  V30 46 1 5 42
M  V30 47 1 6 43
M  V30 48 1 6 44
M  V30 49 1 7 45
M  V30 50 1 7 46
M  V30 51 1 8 47
M  V30 52 1 10 48
M  V30 53 1 13 49
M  V30 54 1 16 50
M  V30 55 1 17 51
M  V30 56 1 18 52
M  V30 57 1 19 53
M  V30 58 1 20 54
M  V30 59 1 24 55
M  V30 60 1 25 56
M  V30 61 1 26 57
M  V30 62 1 28 58
M  V30 63 1 29 59
M  V30 64 1 30 60
M  V30 65 1 31 61
M  V30 66 1 34 62
M  V30 67 1 35 63
M  V30 68 1 38 64
M  V30 69 1 39 65
M  V30 END BOND
M  V30 END CTAB
M  END
>  <Dataset>  (284) 
ChEMBL_Kinases

>  <Ligand_Instance>  (284) 
nan

>  <PDB_ID>  (284) 
nan

>  <Standardized_SMILES>  (284) 
O=S(=O)(NCCCNc1cc(-c2[nH]c(-c3ccccc3)nc2-c2cccc(O)c2)ccn1)c1ccc(F)cc1

>  <Name>  (284) 
nan

>  <Pocket>  (284) 
nan

>  <ATP_Site>  (284) 
nan

>  <Peripheral>  (284) 
nan

>  <Num_H_Atoms_ProtBoundConf>  (284) 
nan

>  <Num_Resolved_Atoms>  (284) 
nan

>  <Num_Not_Resolved_Atoms>  (284) 
nan

$$$$
CHEMBL4788405
     RDKit          3D

  0  0  0  0  0  0  0  0  0  0999 V3000
M  V30 BEGIN CTAB
M  V30 COUNTS 61 65 0 0 0
M  V30 BEGIN ATOM
M  V30 1 C 2.270012 -1.644926 4.209811 0
M  V30 2 S 3.112187 -2.281143 2.795752 0
M  V30 3 O 4.237696 -3.183740 3.259862 0
M  V30 4 O 2.176996 -3.095499 1.986514 0
M  V30 5 N 3.866276 -1.023495 1.849223 0
M  V30 6 C 3.238881 0.071563 1.183643 0
M  V30 7 C 3.561816 0.404561 -0.132919 0
M  V30 8 C 2.970911 1.446211 -0.820658 0
M  V30 9 C 3.297719 1.795278 -2.168703 0
M  V30 10 N 3.555191 2.066087 -3.282671 0
M  V30 11 C 2.010437 2.210558 -0.199426 0
M  V30 12 C 1.663383 1.924067 1.080863 0
M  V30 13 C 0.662081 2.537520 1.985240 0
M  V30 14 C 0.771472 3.482050 2.994488 0
M  V30 15 N -0.446291 3.689576 3.502907 0
M  V30 16 C -1.377526 2.925316 2.880040 0
M  V30 17 N -2.711803 2.706360 2.969980 0
M  V30 18 C -3.349312 1.822022 2.169582 0
M  V30 19 C -2.714412 1.066717 1.196510 0
M  V30 20 C -3.365153 0.099838 0.354264 0
M  V30 21 C -4.691573 0.245135 -0.031211 0
M  V30 22 C -5.292682 -0.688146 -0.829103 0
M  V30 23 C -4.561679 -1.798727 -1.258383 0
M  V30 24 C -3.243930 -2.015423 -0.921029 0
M  V30 25 C -2.583115 -3.197521 -1.430445 0
M  V30 26 O -3.276541 -3.784874 -2.341114 0
M  V30 27 N -1.335631 -3.795196 -1.099131 0
M  V30 28 C -0.234931 -3.547608 -0.177767 0
M  V30 29 C 0.893393 -2.937233 -1.004633 0
M  V30 30 C 0.559081 -3.110434 -2.488749 0
M  V30 31 C 0.230794 -4.569107 -2.700742 0
M  V30 32 C -0.996218 -4.992998 -1.898381 0
M  V30 33 C -2.732880 -1.021798 -0.119326 0
M  V30 34 C -1.340205 1.304582 1.116860 0
M  V30 35 C -0.671481 2.203157 1.926545 0
M  V30 36 C 2.263891 0.867207 1.779670 0
M  V30 37 H 2.177588 -2.514572 4.925663 0
M  V30 38 H 1.210003 -1.346958 4.002667 0
M  V30 39 H 2.802354 -0.851084 4.742736 0
M  V30 40 H 4.899986 -0.970634 1.686251 0
M  V30 41 H 4.318100 -0.172435 -0.677582 0
M  V30 42 H 1.459724 3.049713 -0.589125 0
M  V30 43 H 1.730186 3.893797 3.225081 0
M  V30 44 H -0.673686 4.347394 4.275262 0
M  V30 45 H -4.430657 1.688737 2.291667 0
M  V30 46 H -5.240528 1.097052 0.298917 0
M  V30 47 H -6.323032 -0.535638 -1.103755 0
M  V30 48 H -5.141726 -2.463340 -1.875085 0
M  V30 49 H -0.494318 -2.988159 0.712483 0
M  V30 50 H 0.136349 -4.555865 0.162712 0
M  V30 51 H 1.851196 -3.461528 -0.835255 0
M  V30 52 H 0.923284 -1.872552 -0.705516 0
M  V30 53 H -0.300754 -2.463675 -2.780401 0
M  V30 54 H 1.423847 -2.857610 -3.115737 0
M  V30 55 H 1.135050 -5.131531 -2.396293 0
M  V30 56 H 0.083399 -4.803687 -3.781649 0
M  V30 57 H -0.685219 -5.775976 -1.180249 0
M  V30 58 H -1.835915 -5.310517 -2.532696 0
M  V30 59 H -1.706621 -1.108269 0.181954 0
M  V30 60 H -0.832173 0.723433 0.358954 0
M  V30 61 H 2.068893 0.543354 2.807067 0
M  V30 END ATOM
M  V30 BEGIN BOND
M  V30 1 1 1 2
M  V30 2 2 2 3
M  V30 3 2 2 4
M  V30 4 1 2 5
M  V30 5 1 5 6
M  V30 6 2 6 7
M  V30 7 1 7 8
M  V30 8 1 8 9
M  V30 9 3 9 10
M  V30 10 2 8 11
M  V30 11 1 11 12
M  V30 12 1 12 13
M  V30 13 2 13 14
M  V30 14 1 14 15
M  V30 15 1 15 16
M  V30 16 2 16 17
M  V30 17 1 17 18
M  V30 18 2 18 19
M  V30 19 1 19 20
M  V30 20 2 20 21
M  V30 21 1 21 22
M  V30 22 2 22 23
M  V30 23 1 23 24
M  V30 24 1 24 25
M  V30 25 2 25 26
M  V30 26 1 25 27
M  V30 27 1 27 28
M  V30 28 1 28 29
M  V30 29 1 29 30
M  V30 30 1 30 31
M  V30 31 1 31 32
M  V30 32 2 24 33
M  V30 33 1 19 34
M  V30 34 2 34 35
M  V30 35 2 12 36
M  V30 36 1 36 6
M  V30 37 1 35 13
M  V30 38 1 35 16
M  V30 39 1 33 20
M  V30 40 1 32 27
M  V30 41 1 1 37
M  V30 42 1 1 38
M  V30 43 1 1 39
M  V30 44 1 5 40
M  V30 45 1 7 41
M  V30 46 1 11 42
M  V30 47 1 14 43
M  V30 48 1 15 44
M  V30 49 1 18 45
M  V30 50 1 21 46
M  V30 51 1 22 47
M  V30 52 1 23 48
M  V30 53 1 28 49
M  V30 54 1 28 50
M  V30 55 1 29 51
M  V30 56 1 29 52
M  V30 57 1 30 53
M  V30 58 1 30 54
M  V30 59 1 31 55
M  V30 60 1 31 56
M  V30 61 1 32 57
M  V30 62 1 32 58
M  V30 63 1 33 59
M  V30 64 1 34 60
M  V30 65 1 36 61
M  V30 END BOND
M  V30 END CTAB
M  END
>  <Dataset>  (285) 
ChEMBL_Kinases

>  <Ligand_Instance>  (285) 
nan

>  <PDB_ID>  (285) 
nan

>  <Standardized_SMILES>  (285) 
CS(=O)(=O)Nc1cc(C#N)cc(-c2c[nH]c3ncc(-c4cccc(C(=O)N5CCCCC5)c4)cc23)c1

>  <Name>  (285) 
nan

>  <Pocket>  (285) 
nan

>  <ATP_Site>  (285) 
nan

>  <Peripheral>  (285) 
nan

>  <Num_H_Atoms_ProtBoundConf>  (285) 
nan

>  <Num_Resolved_Atoms>  (285) 
nan

>  <Num_Not_Resolved_Atoms>  (285) 
nan

$$$$
CHEMBL4788894
     RDKit          3D

  0  0  0  0  0  0  0  0  0  0999 V3000
M  V30 BEGIN CTAB
M  V30 COUNTS 35 37 0 0 0
M  V30 BEGIN ATOM
M  V30 1 C 2.101297 -4.285587 4.746798 0
M  V30 2 C 1.919062 -3.962115 3.308493 0
M  V30 3 C 2.340056 -4.830035 2.340435 0
M  V30 4 C 2.160342 -4.508405 1.015884 0
M  V30 5 C 1.559817 -3.318731 0.676853 0
M  V30 6 C 1.108993 -2.392738 1.591770 0
M  V30 7 C 0.479220 -1.146611 1.185788 0
M  V30 8 O 0.167639 -0.495697 2.202548 0
M  V30 9 C 0.333036 -0.894819 -0.234302 0
M  V30 10 C -0.201081 0.155914 -0.793281 0
M  V30 11 N -0.706475 1.188451 0.033970 0
M  V30 12 C -1.314073 2.388807 -0.418467 0
M  V30 13 C -1.791699 3.366407 0.426972 0
M  V30 14 C -2.373793 4.514340 -0.078015 0
M  V30 15 C -2.466553 4.660774 -1.446953 0
M  V30 16 C -2.011973 3.727386 -2.356071 0
M  V30 17 C -1.435976 2.593178 -1.796186 0
M  V30 18 N -0.949722 1.596192 -2.717725 0
M  V30 19 C -0.341253 0.395345 -2.221357 0
M  V30 20 O 0.101482 -0.510779 -3.002868 0
M  V30 21 C 1.331876 -2.801364 2.888124 0
M  V30 22 H 1.377032 -5.082795 5.039562 0
M  V30 23 H 3.153279 -4.648403 4.850017 0
M  V30 24 H 2.002038 -3.394052 5.394146 0
M  V30 25 H 2.805604 -5.750621 2.663353 0
M  V30 26 H 2.524544 -5.255273 0.319433 0
M  V30 27 H 1.496014 -3.221317 -0.389919 0
M  V30 28 H 0.663158 -1.575523 -0.996037 0
M  V30 29 H -0.661125 1.127105 1.064967 0
M  V30 30 H -1.709042 3.231504 1.490237 0
M  V30 31 H -2.736599 5.258233 0.609948 0
M  V30 32 H -2.918885 5.551538 -1.884164 0
M  V30 33 H -2.083759 3.840348 -3.427761 0
M  V30 34 H -1.031997 1.731244 -3.749243 0
M  V30 35 H 1.003680 -2.123356 3.692339 0
M  V30 END ATOM
M  V30 BEGIN BOND
M  V30 1 1 1 2
M  V30 2 2 2 3
M  V30 3 1 3 4
M  V30 4 2 4 5
M  V30 5 1 5 6
M  V30 6 1 6 7
M  V30 7 2 7 8
M  V30 8 1 7 9
M  V30 9 2 9 10
M  V30 10 1 10 11
M  V30 11 1 11 12
M  V30 12 2 12 13
M  V30 13 1 13 14
M  V30 14 2 14 15
M  V30 15 1 15 16
M  V30 16 2 16 17
M  V30 17 1 17 18
M  V30 18 1 18 19
M  V30 19 2 19 20
M  V30 20 2 6 21
M  V30 21 1 21 2
M  V30 22 1 19 10
M  V30 23 1 17 12
M  V30 24 1 1 22
M  V30 25 1 1 23
M  V30 26 1 1 24
M  V30 27 1 3 25
M  V30 28 1 4 26
M  V30 29 1 5 27
M  V30 30 1 9 28
M  V30 31 1 11 29
M  V30 32 1 13 30
M  V30 33 1 14 31
M  V30 34 1 15 32
M  V30 35 1 16 33
M  V30 36 1 18 34
M  V30 37 1 21 35
M  V30 END BOND
M  V30 END CTAB
M  END
>  <Dataset>  (286) 
ChEMBL_Kinases

>  <Ligand_Instance>  (286) 
nan

>  <PDB_ID>  (286) 
nan

>  <Standardized_SMILES>  (286) 
Cc1cccc(C(=O)/C=C2\Nc3ccccc3NC2=O)c1

>  <Name>  (286) 
nan

>  <Pocket>  (286) 
nan

>  <ATP_Site>  (286) 
nan

>  <Peripheral>  (286) 
nan

>  <Num_H_Atoms_ProtBoundConf>  (286) 
nan

>  <Num_Resolved_Atoms>  (286) 
nan

>  <Num_Not_Resolved_Atoms>  (286) 
nan

$$$$
CHEMBL4788906
     RDKit          3D

  0  0  0  0  0  0  0  0  0  0999 V3000
M  V30 BEGIN CTAB
M  V30 COUNTS 50 53 0 0 0
M  V30 BEGIN ATOM
M  V30 1 C 1.561954 -2.561610 2.498920 0
M  V30 2 C 2.177309 -2.683470 1.144621 0
M  V30 3 C 1.949866 -3.839936 0.430498 0
M  V30 4 C 2.546067 -3.888133 -0.811099 0
M  V30 5 C 3.325803 -2.897620 -1.369985 0
M  V30 6 C 3.489754 -1.771856 -0.560033 0
M  V30 7 C 4.334754 -0.666252 -1.133256 0
M  V30 8 C 2.938805 -1.617102 0.698899 0
M  V30 9 N 3.186145 -0.432529 1.398315 0
M  V30 10 C 2.652194 0.872894 1.570047 0
M  V30 11 S 3.453840 1.857171 2.594626 0
M  V30 12 N 1.485751 1.317800 0.896876 0
M  V30 13 C 0.901119 2.640670 1.037151 0
M  V30 14 C -0.482240 2.450903 1.580987 0
M  V30 15 C -1.335393 1.727424 0.555549 0
M  V30 16 N -2.196428 0.741166 1.177088 0
M  V30 17 C -3.138106 -0.059619 0.486952 0
M  V30 18 N -3.334537 0.023756 -0.839089 0
M  V30 19 C -4.255106 -0.785495 -1.389657 0
M  V30 20 N -4.991369 -1.672872 -0.696878 0
M  V30 21 C -4.840690 -1.803673 0.635989 0
M  V30 22 N -5.383697 -2.559878 1.625856 0
M  V30 23 N -4.824300 -2.244112 2.790653 0
M  V30 24 C -3.904558 -1.269326 2.557259 0
M  V30 25 C -3.894717 -0.970106 1.192713 0
M  V30 26 C -0.477264 1.138343 -0.545253 0
M  V30 27 C 0.764824 0.463454 -0.007481 0
M  V30 28 H 1.809533 -3.515635 3.023997 0
M  V30 29 H 1.965245 -1.755171 3.107480 0
M  V30 30 H 0.451168 -2.554738 2.433774 0
M  V30 31 H 1.355159 -4.647050 0.803835 0
M  V30 32 H 2.418397 -4.772953 -1.449399 0
M  V30 33 H 3.775199 -2.969350 -2.341541 0
M  V30 34 H 3.821519 -0.164408 -1.955836 0
M  V30 35 H 5.275707 -1.181061 -1.468209 0
M  V30 36 H 4.651980 0.006975 -0.304093 0
M  V30 37 H 4.027135 -0.777698 1.874208 0
M  V30 38 H 1.518271 3.311163 1.645900 0
M  V30 39 H 0.808887 3.107747 0.035663 0
M  V30 40 H -0.476836 1.930505 2.563397 0
M  V30 41 H -0.893511 3.475803 1.808033 0
M  V30 42 H -1.993630 2.489160 0.089206 0
M  V30 43 H -2.093390 0.633609 2.215251 0
M  V30 44 H -4.438418 -0.740906 -2.470147 0
M  V30 45 H -6.127662 -3.273726 1.462694 0
M  V30 46 H -3.269661 -0.789871 3.308063 0
M  V30 47 H -1.020251 0.362688 -1.118259 0
M  V30 48 H -0.200411 1.922053 -1.281797 0
M  V30 49 H 0.439306 -0.446362 0.552673 0
M  V30 50 H 1.388008 0.197794 -0.885894 0
M  V30 END ATOM
M  V30 BEGIN BOND
M  V30 1 1 1 2
M  V30 2 2 2 3
M  V30 3 1 3 4
M  V30 4 2 4 5
M  V30 5 1 5 6
M  V30 6 1 6 7
M  V30 7 2 6 8
M  V30 8 1 8 9
M  V30 9 1 9 10
M  V30 10 2 10 11
M  V30 11 1 10 12
M  V30 12 1 12 13
M  V30 13 1 13 14
M  V30 14 1 14 15
M  V30 15 1 15 16
M  V30 16 1 16 17
M  V30 17 2 17 18
M  V30 18 1 18 19
M  V30 19 2 19 20
M  V30 20 1 20 21
M  V30 21 1 21 22
M  V30 22 1 22 23
M  V30 23 2 23 24
M  V30 24 1 24 25
M  V30 25 1 15 26
M  V30 26 1 26 27
M  V30 27 1 8 2
M  V30 28 1 27 12
M  V30 29 1 25 17
M  V30 30 2 25 21
M  V30 31 1 1 28
M  V30 32 1 1 29
M  V30 33 1 1 30
M  V30 34 1 3 31
M  V30 35 1 4 32
M  V30 36 1 5 33
M  V30 37 1 7 34
M  V30 38 1 7 35
M  V30 39 1 7 36
M  V30 40 1 9 37
M  V30 41 1 13 38
M  V30 42 1 13 39
M  V30 43 1 14 40
M  V30 44 1 14 41
M  V30 45 1 15 42
M  V30 46 1 16 43
M  V30 47 1 19 44
M  V30 48 1 22 45
M  V30 49 1 24 46
M  V30 50 1 26 47
M  V30 51 1 26 48
M  V30 52 1 27 49
M  V30 53 1 27 50
M  V30 END BOND
M  V30 END CTAB
M  END
>  <Dataset>  (287) 
ChEMBL_Kinases

>  <Ligand_Instance>  (287) 
nan

>  <PDB_ID>  (287) 
nan

>  <Standardized_SMILES>  (287) 
Cc1cccc(C)c1NC(=S)N1CCC(Nc2ncnc3[nH]ncc23)CC1

>  <Name>  (287) 
nan

>  <Pocket>  (287) 
nan

>  <ATP_Site>  (287) 
nan

>  <Peripheral>  (287) 
nan

>  <Num_H_Atoms_ProtBoundConf>  (287) 
nan

>  <Num_Resolved_Atoms>  (287) 
nan

>  <Num_Not_Resolved_Atoms>  (287) 
nan

$$$$
CHEMBL4788912
     RDKit          3D

  0  0  0  0  0  0  0  0  0  0999 V3000
M  V30 BEGIN CTAB
M  V30 COUNTS 48 50 0 0 0
M  V30 BEGIN ATOM
M  V30 1 C 0.574667 -6.662654 0.448697 0
M  V30 2 C 0.388759 -5.930881 -0.873707 0
M  V30 3 C -1.018337 -5.411079 -0.939743 0
M  V30 4 C 1.377483 -4.799721 -0.923680 0
M  V30 5 C 1.486959 -3.730478 -0.028854 0
M  V30 6 C 2.540309 -2.955293 -0.492160 0
M  V30 7 N 2.814209 -1.788655 0.307788 0
M  V30 8 C 2.097704 -0.625455 -0.093210 0
M  V30 9 O 1.330049 -0.792215 -1.089930 0
M  V30 10 N 2.170761 0.663786 0.512705 0
M  V30 11 C 1.381974 1.730326 -0.014693 0
M  V30 12 C 1.758332 2.616994 -1.001560 0
M  V30 13 C 0.859912 3.584110 -1.382494 0
M  V30 14 C -0.404683 3.753732 -0.861111 0
M  V30 15 C -0.714035 2.821515 0.130579 0
M  V30 16 C -2.030632 2.857665 0.798056 0
M  V30 17 N -3.220507 3.095770 0.172198 0
M  V30 18 N -4.165087 3.046503 1.101039 0
M  V30 19 C -3.565585 2.782923 2.275615 0
M  V30 20 N -2.238230 2.664450 2.093420 0
M  V30 21 C -1.285286 2.380635 3.151795 0
M  V30 22 C -1.384022 0.929779 3.563330 0
M  V30 23 C -1.627120 3.215839 4.369137 0
M  V30 24 N 0.133970 1.880038 0.515544 0
M  V30 25 N 3.030785 -3.533708 -1.603838 0
M  V30 26 N 2.341903 -4.620909 -1.854256 0
M  V30 27 H 1.653170 -6.788028 0.650425 0
M  V30 28 H 0.027002 -7.621342 0.394183 0
M  V30 29 H 0.121036 -6.002138 1.215989 0
M  V30 30 H 0.580454 -6.592857 -1.723812 0
M  V30 31 H -1.454141 -5.518119 -1.967327 0
M  V30 32 H -1.074634 -4.368595 -0.562779 0
M  V30 33 H -1.646557 -6.031312 -0.274848 0
M  V30 34 H 0.794862 -3.664569 0.824205 0
M  V30 35 H 3.457865 -1.650302 1.142890 0
M  V30 36 H 2.821107 0.738414 1.330371 0
M  V30 37 H 2.733669 2.480582 -1.398721 0
M  V30 38 H 1.172413 4.278783 -2.165036 0
M  V30 39 H -1.096328 4.508601 -1.163546 0
M  V30 40 H -4.116612 2.690564 3.198079 0
M  V30 41 H -0.247995 2.573408 2.834306 0
M  V30 42 H -0.384637 0.440111 3.589291 0
M  V30 43 H -1.929182 0.785389 4.529164 0
M  V30 44 H -1.965318 0.347792 2.809858 0
M  V30 45 H -2.683161 2.992731 4.621952 0
M  V30 46 H -1.478157 4.295104 4.189116 0
M  V30 47 H -1.009623 2.816109 5.201000 0
M  V30 48 H 3.834537 -3.050554 -2.060702 0
M  V30 END ATOM
M  V30 BEGIN BOND
M  V30 1 1 1 2
M  V30 2 1 2 3
M  V30 3 1 2 4
M  V30 4 1 4 5
M  V30 5 2 5 6
M  V30 6 1 6 7
M  V30 7 1 7 8
M  V30 8 2 8 9
M  V30 9 1 8 10
M  V30 10 1 10 11
M  V30 11 2 11 12
M  V30 12 1 12 13
M  V30 13 2 13 14
M  V30 14 1 14 15
M  V30 15 1 15 16
M  V30 16 2 16 17
M  V30 17 1 17 18
M  V30 18 2 18 19
M  V30 19 1 19 20
M  V30 20 1 20 21
M  V30 21 1 21 22
M  V30 22 1 21 23
M  V30 23 2 15 24
M  V30 24 1 6 25
M  V30 25 1 25 26
M  V30 26 2 26 4
M  V30 27 1 24 11
M  V30 28 1 20 16
M  V30 29 1 1 27
M  V30 30 1 1 28
M  V30 31 1 1 29
M  V30 32 1 2 30
M  V30 33 1 3 31
M  V30 34 1 3 32
M  V30 35 1 3 33
M  V30 36 1 5 34
M  V30 37 1 7 35
M  V30 38 1 10 36
M  V30 39 1 12 37
M  V30 40 1 13 38
M  V30 41 1 14 39
M  V30 42 1 19 40
M  V30 43 1 21 41
M  V30 44 1 22 42
M  V30 45 1 22 43
M  V30 46 1 22 44
M  V30 47 1 23 45
M  V30 48 1 23 46
M  V30 49 1 23 47
M  V30 50 1 25 48
M  V30 END BOND
M  V30 END CTAB
M  END
>  <Dataset>  (288) 
ChEMBL_Kinases

>  <Ligand_Instance>  (288) 
nan

>  <PDB_ID>  (288) 
nan

>  <Standardized_SMILES>  (288) 
CC(C)c1cc(NC(=O)Nc2cccc(-c3nncn3C(C)C)n2)[nH]n1

>  <Name>  (288) 
nan

>  <Pocket>  (288) 
nan

>  <ATP_Site>  (288) 
nan

>  <Peripheral>  (288) 
nan

>  <Num_H_Atoms_ProtBoundConf>  (288) 
nan

>  <Num_Resolved_Atoms>  (288) 
nan

>  <Num_Not_Resolved_Atoms>  (288) 
nan

$$$$
CHEMBL4161514
     RDKit          3D

  0  0  0  0  0  0  0  0  0  0999 V3000
M  V30 BEGIN CTAB
M  V30 COUNTS 51 54 0 0 0
M  V30 BEGIN ATOM
M  V30 1 N 0.159306 -3.423889 3.205762 0
M  V30 2 C 1.044034 -2.306964 2.930408 0
M  V30 3 C 1.294032 -1.583198 4.216271 0
M  V30 4 C 2.445206 -0.616414 4.171062 0
M  V30 5 C 3.666706 -1.284084 3.630412 0
M  V30 6 C 3.409442 -1.850179 2.245786 0
M  V30 7 C 3.053358 -0.713352 1.372124 0
M  V30 8 O 2.902084 0.553794 1.426799 0
M  V30 9 N 2.781420 -1.102053 0.022422 0
M  V30 10 C 2.422515 -0.075203 -0.922739 0
M  V30 11 C 3.277833 0.657514 -1.724196 0
M  V30 12 C 2.739074 1.604092 -2.571696 0
M  V30 13 C 1.391146 1.823676 -2.628511 0
M  V30 14 N 0.570248 2.649137 -3.327446 0
M  V30 15 N -0.697992 2.462497 -3.003231 0
M  V30 16 C -0.810688 1.492336 -2.058614 0
M  V30 17 N -1.967311 0.965021 -1.419960 0
M  V30 18 C -2.843800 -0.111161 -1.728001 0
M  V30 19 O -2.559002 -0.747412 -2.782067 0
M  V30 20 C -3.954379 -0.371547 -0.826870 0
M  V30 21 C -4.289263 0.299182 0.322149 0
M  V30 22 C -5.394590 -0.093727 1.062377 0
M  V30 23 C -6.173536 -1.149635 0.671870 0
M  V30 24 C -5.854370 -1.829963 -0.471323 0
M  V30 25 C -4.746460 -1.435149 -1.212125 0
M  V30 26 C 0.509555 1.094100 -1.827064 0
M  V30 27 C 1.050353 0.136048 -0.968781 0
M  V30 28 C 2.312999 -2.877314 2.333822 0
M  V30 29 H -0.831548 -3.148315 3.045964 0
M  V30 30 H 0.277839 -3.699710 4.203085 0
M  V30 31 H 0.547048 -1.629499 2.175313 0
M  V30 32 H 0.351409 -1.073768 4.507383 0
M  V30 33 H 1.504327 -2.352450 4.995524 0
M  V30 34 H 2.649863 -0.303285 5.215944 0
M  V30 35 H 2.135689 0.274655 3.617992 0
M  V30 36 H 4.458743 -0.506353 3.545024 0
M  V30 37 H 3.965529 -2.098555 4.304740 0
M  V30 38 H 4.311460 -2.341822 1.860434 0
M  V30 39 H 2.797329 -2.050463 -0.425997 0
M  V30 40 H 4.309843 0.420030 -1.614087 0
M  V30 41 H 3.407117 2.168060 -3.189685 0
M  V30 42 H 0.946793 3.328877 -4.023298 0
M  V30 43 H -2.040252 1.596875 -0.601103 0
M  V30 44 H -3.637327 1.119591 0.574850 0
M  V30 45 H -5.607315 0.477709 1.962476 0
M  V30 46 H -7.013733 -1.398105 1.293313 0
M  V30 47 H -6.511142 -2.654395 -0.723485 0
M  V30 48 H -4.597264 -2.050571 -2.094739 0
M  V30 49 H 0.319447 -0.406197 -0.364467 0
M  V30 50 H 2.655849 -3.694130 2.979464 0
M  V30 51 H 2.110079 -3.271037 1.341376 0
M  V30 END ATOM
M  V30 BEGIN BOND
M  V30 1 1 1 2
M  V30 2 1 2 3
M  V30 3 1 3 4
M  V30 4 1 4 5
M  V30 5 1 5 6
M  V30 6 1 6 7
M  V30 7 2 7 8
M  V30 8 1 7 9
M  V30 9 1 9 10
M  V30 10 2 10 11
M  V30 11 1 11 12
M  V30 12 2 12 13
M  V30 13 1 13 14
M  V30 14 1 14 15
M  V30 15 2 15 16
M  V30 16 1 16 17
M  V30 17 1 17 18
M  V30 18 2 18 19
M  V30 19 1 18 20
M  V30 20 2 20 21
M  V30 21 1 21 22
M  V30 22 2 22 23
M  V30 23 1 23 24
M  V30 24 2 24 25
M  V30 25 1 16 26
M  V30 26 2 26 27
M  V30 27 1 6 28
M  V30 28 1 28 2
M  V30 29 1 27 10
M  V30 30 1 26 13
M  V30 31 1 25 20
M  V30 32 1 1 29
M  V30 33 1 1 30
M  V30 34 1 2 31
M  V30 35 1 3 32
M  V30 36 1 3 33
M  V30 37 1 4 34
M  V30 38 1 4 35
M  V30 39 1 5 36
M  V30 40 1 5 37
M  V30 41 1 6 38
M  V30 42 1 9 39
M  V30 43 1 11 40
M  V30 44 1 12 41
M  V30 45 1 14 42
M  V30 46 1 17 43
M  V30 47 1 21 44
M  V30 48 1 22 45
M  V30 49 1 23 46
M  V30 50 1 24 47
M  V30 51 1 25 48
M  V30 52 1 27 49
M  V30 53 1 28 50
M  V30 54 1 28 51
M  V30 END BOND
M  V30 END CTAB
M  END
>  <Dataset>  (289) 
ChEMBL_Kinases

>  <Ligand_Instance>  (289) 
nan

>  <PDB_ID>  (289) 
nan

>  <Standardized_SMILES>  (289) 
NC1CCCC(C(=O)Nc2ccc3[nH]nc(NC(=O)c4ccccc4)c3c2)C1

>  <Name>  (289) 
nan

>  <Pocket>  (289) 
nan

>  <ATP_Site>  (289) 
nan

>  <Peripheral>  (289) 
nan

>  <Num_H_Atoms_ProtBoundConf>  (289) 
nan

>  <Num_Resolved_Atoms>  (289) 
nan

>  <Num_Not_Resolved_Atoms>  (289) 
nan

$$$$
CHEMBL416146
     RDKit          3D

  0  0  0  0  0  0  0  0  0  0999 V3000
M  V30 BEGIN CTAB
M  V30 COUNTS 39 41 0 0 0
M  V30 BEGIN ATOM
M  V30 1 C 0.879285 -4.965160 1.218607 0
M  V30 2 C 1.316085 -3.573957 0.861651 0
M  V30 3 C 1.444372 -2.622305 1.848202 0
M  V30 4 C 1.857998 -1.345344 1.445847 0
M  V30 5 C 2.121425 -1.077858 0.098125 0
M  V30 6 C 2.531282 0.312584 -0.044963 0
M  V30 7 N 3.798897 0.482980 -0.460495 0
M  V30 8 C 4.390803 1.654766 -0.654670 0
M  V30 9 C 3.604665 2.780975 -0.397348 0
M  V30 10 Cl 4.239961 4.414555 -0.605525 0
M  V30 11 C 2.282223 2.663150 0.035796 0
M  V30 12 C 1.720372 1.395966 0.220003 0
M  V30 13 C 0.356938 1.161290 0.657717 0
M  V30 14 C -0.384432 0.520120 -0.342922 0
M  V30 15 C -1.723857 0.208361 -0.113378 0
M  V30 16 C -2.354189 0.509040 1.071831 0
M  V30 17 S -4.035756 0.111829 1.332921 0
M  V30 18 C -4.118143 -1.533507 2.004210 0
M  V30 19 O -4.516208 1.035176 2.443915 0
M  V30 20 O -4.880425 0.271918 0.126342 0
M  V30 21 C -1.599757 1.139010 2.036735 0
M  V30 22 C -0.274225 1.462736 1.845463 0
M  V30 23 C 1.968546 -2.087627 -0.828661 0
M  V30 24 N 1.572881 -3.305028 -0.434303 0
M  V30 25 H 0.571832 -4.968432 2.284119 0
M  V30 26 H 0.068379 -5.290017 0.541068 0
M  V30 27 H 1.771633 -5.655214 1.163006 0
M  V30 28 H 1.227284 -2.884008 2.871171 0
M  V30 29 H 1.931441 -0.661919 2.295162 0
M  V30 30 H 5.402971 1.769408 -0.985755 0
M  V30 31 H 1.647055 3.512959 0.245011 0
M  V30 32 H -0.018804 0.220853 -1.329284 0
M  V30 33 H -2.322776 -0.290523 -0.874426 0
M  V30 34 H -5.176908 -1.733047 2.300145 0
M  V30 35 H -3.808750 -2.300689 1.258034 0
M  V30 36 H -3.473860 -1.601381 2.898088 0
M  V30 37 H -2.026132 1.406957 2.996140 0
M  V30 38 H 0.388049 1.953588 2.541380 0
M  V30 39 H 2.206812 -1.733012 -1.822847 0
M  V30 END ATOM
M  V30 BEGIN BOND
M  V30 1 1 1 2
M  V30 2 2 2 3
M  V30 3 1 3 4
M  V30 4 2 4 5
M  V30 5 1 5 6
M  V30 6 2 6 7
M  V30 7 1 7 8
M  V30 8 2 8 9
M  V30 9 1 9 10
M  V30 10 1 9 11
M  V30 11 2 11 12
M  V30 12 1 12 13
M  V30 13 2 13 14
M  V30 14 1 14 15
M  V30 15 2 15 16
M  V30 16 1 16 17
M  V30 17 1 17 18
M  V30 18 2 17 19
M  V30 19 2 17 20
M  V30 20 1 16 21
M  V30 21 2 21 22
M  V30 22 1 5 23
M  V30 23 2 23 24
M  V30 24 1 24 2
M  V30 25 1 12 6
M  V30 26 1 22 13
M  V30 27 1 1 25
M  V30 28 1 1 26
M  V30 29 1 1 27
M  V30 30 1 3 28
M  V30 31 1 4 29
M  V30 32 1 8 30
M  V30 33 1 11 31
M  V30 34 1 14 32
M  V30 35 1 15 33
M  V30 36 1 18 34
M  V30 37 1 18 35
M  V30 38 1 18 36
M  V30 39 1 21 37
M  V30 40 1 22 38
M  V30 41 1 23 39
M  V30 END BOND
M  V30 END CTAB
M  END
>  <Dataset>  (290) 
ChEMBL_Kinases

>  <Ligand_Instance>  (290) 
nan

>  <PDB_ID>  (290) 
nan

>  <Standardized_SMILES>  (290) 
Cc1ccc(-c2ncc(Cl)cc2-c2ccc(S(C)(=O)=O)cc2)cn1

>  <Name>  (290) 
ETORICOXIB

>  <Pocket>  (290) 
nan

>  <ATP_Site>  (290) 
nan

>  <Peripheral>  (290) 
nan

>  <Num_H_Atoms_ProtBoundConf>  (290) 
nan

>  <Num_Resolved_Atoms>  (290) 
nan

>  <Num_Not_Resolved_Atoms>  (290) 
nan

$$$$
CHEMBL4788976
     RDKit          3D

  0  0  0  0  0  0  0  0  0  0999 V3000
M  V30 BEGIN CTAB
M  V30 COUNTS 66 70 0 0 0
M  V30 BEGIN ATOM
M  V30 1 C 3.877797 -1.048595 6.143874 0
M  V30 2 N 3.622993 -2.223326 5.367502 0
M  V30 3 C 4.800681 -2.735340 4.730463 0
M  V30 4 C 2.503367 -2.063688 4.459731 0
M  V30 5 C 2.223703 -3.308442 3.673024 0
M  V30 6 C 2.807869 -3.068579 2.281999 0
M  V30 7 N 2.860066 -1.623575 2.167660 0
M  V30 8 C 3.080014 -1.227102 0.846120 0
M  V30 9 O 3.182862 -2.244636 0.077139 0
M  V30 10 C 3.251687 -0.156360 -0.096251 0
M  V30 11 C 4.448568 0.258142 -0.637821 0
M  V30 12 C 4.436557 1.281994 -1.533932 0
M  V30 13 C 3.261479 1.881252 -1.885048 0
M  V30 14 C 2.013518 1.506765 -1.370322 0
M  V30 15 C 0.764588 2.154497 -1.766186 0
M  V30 16 C 0.669394 3.481416 -2.125458 0
M  V30 17 N -0.524329 4.005289 -2.477377 0
M  V30 18 C -1.655171 3.262182 -2.490948 0
M  V30 19 N -2.954959 3.540137 -2.791776 0
M  V30 20 C -3.710322 2.438919 -2.641194 0
M  V30 21 C -2.912613 1.390733 -2.230766 0
M  V30 22 C -3.126692 -0.030389 -1.905733 0
M  V30 23 C -2.344859 -1.020160 -2.465504 0
M  V30 24 C -2.573239 -2.332804 -2.114760 0
M  V30 25 C -1.774481 -3.404498 -2.677547 0
M  V30 26 N -1.131436 -4.267695 -3.152642 0
M  V30 27 C -3.558761 -2.696396 -1.220675 0
M  V30 28 C -4.355248 -1.692768 -0.649477 0
M  V30 29 N -5.372825 -2.016612 0.284786 0
M  V30 30 S -6.992452 -1.461183 0.437296 0
M  V30 31 C -7.878685 -1.900808 -1.028931 0
M  V30 32 O -7.603174 -2.087021 1.656799 0
M  V30 33 O -7.057083 0.022800 0.636527 0
M  V30 34 C -4.131356 -0.377951 -0.996988 0
M  V30 35 C -1.616016 1.910079 -2.135676 0
M  V30 36 C -0.378510 1.382342 -1.775153 0
M  V30 37 C 2.062868 0.465680 -0.464571 0
M  V30 38 C 2.672279 -0.994353 3.439778 0
M  V30 39 H 2.902979 -0.613682 6.463379 0
M  V30 40 H 4.483824 -0.280464 5.660507 0
M  V30 41 H 4.417543 -1.392518 7.065080 0
M  V30 42 H 4.731423 -3.779007 4.421982 0
M  V30 43 H 5.630095 -2.665265 5.482329 0
M  V30 44 H 5.100887 -2.072336 3.893874 0
M  V30 45 H 1.625428 -1.827118 5.119706 0
M  V30 46 H 2.639081 -4.215678 4.117360 0
M  V30 47 H 1.124398 -3.456564 3.558859 0
M  V30 48 H 3.803053 -3.547840 2.178967 0
M  V30 49 H 2.151437 -3.532269 1.507068 0
M  V30 50 H 5.349576 -0.251296 -0.325764 0
M  V30 51 H 5.376823 1.597876 -1.949999 0
M  V30 52 H 3.277082 2.691830 -2.597280 0
M  V30 53 H 1.559209 4.082100 -2.119001 0
M  V30 54 H -3.348240 4.456039 -3.098827 0
M  V30 55 H -4.762422 2.231464 -2.772677 0
M  V30 56 H -1.563851 -0.795732 -3.172940 0
M  V30 57 H -3.759792 -3.730197 -0.925544 0
M  V30 58 H -4.994607 -2.727732 0.975981 0
M  V30 59 H -8.815278 -2.434615 -0.725423 0
M  V30 60 H -8.194314 -1.016375 -1.619134 0
M  V30 61 H -7.274989 -2.563064 -1.683873 0
M  V30 62 H -4.718480 0.417635 -0.584038 0
M  V30 63 H -0.316028 0.360072 -1.501905 0
M  V30 64 H 1.091192 0.171591 -0.060167 0
M  V30 65 H 1.696716 -0.434259 3.362103 0
M  V30 66 H 3.455957 -0.246845 3.678651 0
M  V30 END ATOM
M  V30 BEGIN BOND
M  V30 1 1 1 2
M  V30 2 1 2 3
M  V30 3 1 2 4
M  V30 4 1 4 5
M  V30 5 1 5 6
M  V30 6 1 6 7
M  V30 7 1 7 8
M  V30 8 2 8 9
M  V30 9 1 8 10
M  V30 10 2 10 11
M  V30 11 1 11 12
M  V30 12 2 12 13
M  V30 13 1 13 14
M  V30 14 1 14 15
M  V30 15 2 15 16
M  V30 16 1 16 17
M  V30 17 2 17 18
M  V30 18 1 18 19
M  V30 19 1 19 20
M  V30 20 2 20 21
M  V30 21 1 21 22
M  V30 22 2 22 23
M  V30 23 1 23 24
M  V30 24 1 24 25
M  V30 25 3 25 26
M  V30 26 2 24 27
M  V30 27 1 27 28
M  V30 28 1 28 29
M  V30 29 1 29 30
M  V30 30 1 30 31
M  V30 31 2 30 32
M  V30 32 2 30 33
M  V30 33 2 28 34
M  V30 34 1 21 35
M  V30 35 2 35 36
M  V30 36 2 14 37
M  V30 37 1 7 38
M  V30 38 1 38 4
M  V30 39 1 37 10
M  V30 40 1 36 15
M  V30 41 1 35 18
M  V30 42 1 34 22
M  V30 43 1 1 39
M  V30 44 1 1 40
M  V30 45 1 1 41
M  V30 46 1 3 42
M  V30 47 1 3 43
M  V30 48 1 3 44
M  V30 49 1 4 45
M  V30 50 1 5 46
M  V30 51 1 5 47
M  V30 52 1 6 48
M  V30 53 1 6 49
M  V30 54 1 11 50
M  V30 55 1 12 51
M  V30 56 1 13 52
M  V30 57 1 16 53
M  V30 58 1 19 54
M  V30 59 1 20 55
M  V30 60 1 23 56
M  V30 61 1 27 57
M  V30 62 1 29 58
M  V30 63 1 31 59
M  V30 64 1 31 60
M  V30 65 1 31 61
M  V30 66 1 34 62
M  V30 67 1 36 63
M  V30 68 1 37 64
M  V30 69 1 38 65
M  V30 70 1 38 66
M  V30 END BOND
M  V30 END CTAB
M  END
>  <Dataset>  (291) 
ChEMBL_Kinases

>  <Ligand_Instance>  (291) 
nan

>  <PDB_ID>  (291) 
nan

>  <Standardized_SMILES>  (291) 
CN(C)C1CCN(C(=O)c2cccc(-c3cnc4[nH]cc(-c5cc(C#N)cc(NS(C)(=O)=O)c5)c4c3)c2)C1

>  <Name>  (291) 
nan

>  <Pocket>  (291) 
nan

>  <ATP_Site>  (291) 
nan

>  <Peripheral>  (291) 
nan

>  <Num_H_Atoms_ProtBoundConf>  (291) 
nan

>  <Num_Resolved_Atoms>  (291) 
nan

>  <Num_Not_Resolved_Atoms>  (291) 
nan

$$$$
CHEMBL4161394
     RDKit          3D

  0  0  0  0  0  0  0  0  0  0999 V3000
M  V30 BEGIN CTAB
M  V30 COUNTS 61 65 0 0 0
M  V30 BEGIN ATOM
M  V30 1 C 5.533341 -0.790685 4.365990 0
M  V30 2 O 4.559344 0.013815 3.767951 0
M  V30 3 C 4.433386 0.043936 2.368556 0
M  V30 4 O 5.310124 -0.735728 1.914731 0
M  V30 5 C 3.439650 0.863288 1.687039 0
M  V30 6 C 3.731044 2.159670 1.329518 0
M  V30 7 C 5.069153 2.719098 1.655151 0
M  V30 8 N 2.812506 2.918538 0.686164 0
M  V30 9 C 1.586638 2.391149 0.390220 0
M  V30 10 N 0.571678 3.162499 -0.288077 0
M  V30 11 N -0.665267 2.532901 -0.586121 0
M  V30 12 C -1.365457 1.778111 -1.602036 0
M  V30 13 O -0.656468 1.582235 -2.620385 0
M  V30 14 C -2.720225 1.446877 -1.158481 0
M  V30 15 C -3.520082 2.431625 -0.618648 0
M  V30 16 C -4.802105 2.134828 -0.188571 0
M  V30 17 C -5.229709 0.831194 -0.324347 0
M  V30 18 C -4.482662 -0.197696 -0.854039 0
M  V30 19 C -4.958404 -1.487058 -0.969291 0
M  V30 20 O -6.126121 -1.764321 -0.578878 0
M  V30 21 C -4.129231 -2.440901 -1.515209 0
M  V30 22 C -4.539168 -3.746701 -1.662005 0
M  V30 23 C -3.674355 -4.674134 -2.218103 0
M  V30 24 C -2.401219 -4.346168 -2.637937 0
M  V30 25 C -1.975084 -3.020532 -2.492643 0
M  V30 26 C -2.863839 -2.104703 -1.930474 0
M  V30 27 N -2.447858 -0.846497 -1.798916 0
M  V30 28 C -3.192620 0.152025 -1.275123 0
M  V30 29 N 1.352416 1.129869 0.757256 0
M  V30 30 C 2.209206 0.316844 1.395927 0
M  V30 31 C 1.721674 -1.026377 1.673773 0
M  V30 32 C 1.100679 -1.621597 0.575375 0
M  V30 33 C 0.554066 -2.910736 0.627608 0
M  V30 34 C 0.628993 -3.624379 1.803795 0
M  V30 35 O 0.144601 -4.903466 2.034928 0
M  V30 36 C -0.520601 -5.664499 1.041010 0
M  V30 37 C 1.236926 -3.071841 2.916657 0
M  V30 38 C 1.759937 -1.795789 2.811445 0
M  V30 39 H 5.137116 -1.763962 4.725260 0
M  V30 40 H 5.929953 -0.255365 5.270779 0
M  V30 41 H 6.424366 -0.992931 3.743753 0
M  V30 42 H 5.101772 3.793477 1.373949 0
M  V30 43 H 5.289213 2.553185 2.726497 0
M  V30 44 H 5.809157 2.168085 1.036963 0
M  V30 45 H 0.806621 4.132030 -0.516919 0
M  V30 46 H -1.052366 2.817110 0.347856 0
M  V30 47 H -3.135920 3.437398 -0.534440 0
M  V30 48 H -5.408034 2.915475 0.228748 0
M  V30 49 H -6.246885 0.607547 0.020125 0
M  V30 50 H -5.541683 -3.967540 -1.323493 0
M  V30 51 H -4.079849 -5.665014 -2.292664 0
M  V30 52 H -1.749806 -5.096833 -3.068526 0
M  V30 53 H -0.972003 -2.733826 -2.817386 0
M  V30 54 H -1.467358 -0.591864 -2.122361 0
M  V30 55 H 0.995660 -1.126444 -0.401397 0
M  V30 56 H 0.069165 -3.397439 -0.199610 0
M  V30 57 H -1.477215 -5.164906 0.780604 0
M  V30 58 H 0.103088 -5.600307 0.126054 0
M  V30 59 H -0.636731 -6.712747 1.318018 0
M  V30 60 H 1.352588 -3.538041 3.884068 0
M  V30 61 H 2.236448 -1.312398 3.645740 0
M  V30 END ATOM
M  V30 BEGIN BOND
M  V30 1 1 1 2
M  V30 2 1 2 3
M  V30 3 2 3 4
M  V30 4 1 3 5
M  V30 5 2 5 6
M  V30 6 1 6 7
M  V30 7 1 6 8
M  V30 8 2 8 9
M  V30 9 1 9 10
M  V30 10 1 10 11
M  V30 11 1 11 12
M  V30 12 2 12 13
M  V30 13 1 12 14
M  V30 14 2 14 15
M  V30 15 1 15 16
M  V30 16 2 16 17
M  V30 17 1 17 18
M  V30 18 1 18 19
M  V30 19 2 19 20
M  V30 20 1 19 21
M  V30 21 2 21 22
M  V30 22 1 22 23
M  V30 23 2 23 24
M  V30 24 1 24 25
M  V30 25 2 25 26
M  V30 26 1 26 27
M  V30 27 1 27 28
M  V30 28 1 9 29
M  V30 29 2 29 30
M  V30 30 1 30 31
M  V30 31 2 31 32
M  V30 32 1 32 33
M  V30 33 2 33 34
M  V30 34 1 34 35
M  V30 35 1 35 36
M  V30 36 1 34 37
M  V30 37 2 37 38
M  V30 38 1 30 5
M  V30 39 1 38 31
M  V30 40 1 28 14
M  V30 41 2 28 18
M  V30 42 1 26 21
M  V30 43 1 1 39
M  V30 44 1 1 40
M  V30 45 1 1 41
M  V30 46 1 7 42
M  V30 47 1 7 43
M  V30 48 1 7 44
M  V30 49 1 10 45
M  V30 50 1 11 46
M  V30 51 1 15 47
M  V30 52 1 16 48
M  V30 53 1 17 49
M  V30 54 1 22 50
M  V30 55 1 23 51
M  V30 56 1 24 52
M  V30 57 1 25 53
M  V30 58 1 27 54
M  V30 59 1 32 55
M  V30 60 1 33 56
M  V30 61 1 36 57
M  V30 62 1 36 58
M  V30 63 1 36 59
M  V30 64 1 37 60
M  V30 65 1 38 61
M  V30 END BOND
M  V30 END CTAB
M  END
>  <Dataset>  (292) 
ChEMBL_Kinases

>  <Ligand_Instance>  (292) 
nan

>  <PDB_ID>  (292) 
nan

>  <Standardized_SMILES>  (292) 
COC(=O)c1c(C)nc(NNC(=O)c2cccc3c(=O)c4ccccc4[nH]c23)nc1-c1ccc(OC)cc1

>  <Name>  (292) 
nan

>  <Pocket>  (292) 
nan

>  <ATP_Site>  (292) 
nan

>  <Peripheral>  (292) 
nan

>  <Num_H_Atoms_ProtBoundConf>  (292) 
nan

>  <Num_Resolved_Atoms>  (292) 
nan

>  <Num_Not_Resolved_Atoms>  (292) 
nan

$$$$
CHEMBL4161364
     RDKit          3D

  0  0  0  0  0  0  0  0  0  0999 V3000
M  V30 BEGIN CTAB
M  V30 COUNTS 31 33 0 0 0
M  V30 BEGIN ATOM
M  V30 1 N 2.351641 -5.163769 -1.612007 0
M  V30 2 C 2.021173 -4.288115 -0.723118 0
M  V30 3 N 2.451578 -4.382148 0.555145 0
M  V30 4 C 2.137941 -3.493893 1.531939 0
M  V30 5 O 2.579033 -3.653308 2.695175 0
M  V30 6 N 1.347434 -2.466304 1.174298 0
M  V30 7 C 0.858293 -2.265261 -0.059174 0
M  V30 8 C 1.215079 -3.204273 -1.004031 0
M  V30 9 C 0.609924 -2.813367 -2.199053 0
M  V30 10 N -0.064180 -1.684942 -1.917049 0
M  V30 11 N 0.072548 -1.343674 -0.647007 0
M  V30 12 C -0.455788 -0.240908 0.082352 0
M  V30 13 C 0.092784 0.985497 -0.229248 0
M  V30 14 C -0.386890 2.085727 0.451531 0
M  V30 15 C -1.362957 1.980743 1.396332 0
M  V30 16 S -1.906093 3.407086 2.201089 0
M  V30 17 N -1.010855 3.749504 3.631842 0
M  V30 18 O -3.367510 3.342452 2.556972 0
M  V30 19 O -1.732917 4.577137 1.274968 0
M  V30 20 C -1.870939 0.724996 1.662308 0
M  V30 21 C -1.446122 -0.424205 1.026534 0
M  V30 22 H 2.972913 -5.941413 -1.261186 0
M  V30 23 H 3.066558 -5.175375 0.847805 0
M  V30 24 H 1.115169 -1.789517 1.941872 0
M  V30 25 H 0.656940 -3.298248 -3.164280 0
M  V30 26 H 0.868625 1.131933 -0.968400 0
M  V30 27 H 0.046057 3.060211 0.206843 0
M  V30 28 H -1.193373 3.023977 4.359334 0
M  V30 29 H -0.002457 3.769975 3.431634 0
M  V30 30 H -2.654960 0.668348 2.426414 0
M  V30 31 H -1.854012 -1.403178 1.245629 0
M  V30 END ATOM
M  V30 BEGIN BOND
M  V30 1 2 1 2 CFG=2
M  V30 2 1 2 3
M  V30 3 1 3 4
M  V30 4 2 4 5
M  V30 5 1 4 6
M  V30 6 1 6 7
M  V30 7 2 7 8
M  V30 8 1 8 9
M  V30 9 2 9 10
M  V30 10 1 10 11
M  V30 11 1 11 12
M  V30 12 2 12 13
M  V30 13 1 13 14
M  V30 14 2 14 15
M  V30 15 1 15 16
M  V30 16 1 16 17
M  V30 17 2 16 18
M  V30 18 2 16 19
M  V30 19 1 15 20
M  V30 20 2 20 21
M  V30 21 1 8 2
M  V30 22 1 21 12
M  V30 23 1 11 7
M  V30 24 1 1 22
M  V30 25 1 3 23
M  V30 26 1 6 24
M  V30 27 1 9 25
M  V30 28 1 13 26
M  V30 29 1 14 27
M  V30 30 1 17 28
M  V30 31 1 17 29
M  V30 32 1 20 30
M  V30 33 1 21 31
M  V30 END BOND
M  V30 END CTAB
M  END
>  <Dataset>  (293) 
ChEMBL_Kinases

>  <Ligand_Instance>  (293) 
nan

>  <PDB_ID>  (293) 
nan

>  <Standardized_SMILES>  (293) 
N=c1[nH]c(=O)[nH]c2c1cnn2-c1ccc(S(N)(=O)=O)cc1

>  <Name>  (293) 
nan

>  <Pocket>  (293) 
nan

>  <ATP_Site>  (293) 
nan

>  <Peripheral>  (293) 
nan

>  <Num_H_Atoms_ProtBoundConf>  (293) 
nan

>  <Num_Resolved_Atoms>  (293) 
nan

>  <Num_Not_Resolved_Atoms>  (293) 
nan

$$$$
CHEMBL4161273
     RDKit          3D

  0  0  0  0  0  0  0  0  0  0999 V3000
M  V30 BEGIN CTAB
M  V30 COUNTS 63 67 0 0 0
M  V30 BEGIN ATOM
M  V30 1 C 4.238378 -1.541611 4.120685 0
M  V30 2 C 3.720954 -2.367596 2.959096 0
M  V30 3 O 3.092599 -1.551688 1.983812 0
M  V30 4 C 3.685228 -0.533038 1.286257 0
M  V30 5 O 4.924443 -0.306658 1.532499 0
M  V30 6 C 2.773306 0.133501 0.365878 0
M  V30 7 C 2.670741 -0.306226 -0.939956 0
M  V30 8 C 3.476266 -1.429278 -1.476184 0
M  V30 9 N 1.807270 0.321531 -1.766567 0
M  V30 10 C 1.065278 1.357314 -1.310798 0
M  V30 11 N 0.135953 1.994460 -2.213341 0
M  V30 12 N -1.045397 1.405677 -1.728492 0
M  V30 13 C -1.644986 0.175246 -2.105464 0
M  V30 14 O -0.833624 -0.218903 -2.977127 0
M  V30 15 C -2.877068 -0.246304 -1.467193 0
M  V30 16 C -3.484936 0.608924 -0.587588 0
M  V30 17 C -4.647165 0.188910 -0.011191 0
M  V30 18 C -5.238391 -1.029838 -0.257958 0
M  V30 19 C -4.602292 -1.869467 -1.148708 0
M  V30 20 C -5.211953 -3.086387 -1.386335 0
M  V30 21 O -6.274818 -3.430077 -0.835965 0
M  V30 22 C -4.593426 -3.946833 -2.280910 0
M  V30 23 C -5.206338 -5.147927 -2.510268 0
M  V30 24 C -4.578604 -5.988964 -3.401430 0
M  V30 25 C -3.401563 -5.673619 -4.042580 0
M  V30 26 C -2.814173 -4.440127 -3.778153 0
M  V30 27 C -3.413844 -3.564076 -2.888404 0
M  V30 28 N -2.887705 -2.364990 -2.602066 0
M  V30 29 C -3.423891 -1.478270 -1.750962 0
M  V30 30 N 1.179429 1.773545 -0.031950 0
M  V30 31 C 2.033747 1.184606 0.861443 0
M  V30 32 C 2.033851 1.713034 2.215191 0
M  V30 33 C 3.044074 2.065785 3.080874 0
M  V30 34 C 2.763621 2.534361 4.346667 0
M  V30 35 C 1.481868 2.682417 4.832043 0
M  V30 36 C 1.170864 3.181292 6.198181 0
M  V30 37 C 0.436496 2.333726 3.980992 0
M  V30 38 C 0.729036 1.864512 2.712776 0
M  V30 39 H 3.428361 -1.017914 4.668059 0
M  V30 40 H 5.025766 -0.847517 3.779818 0
M  V30 41 H 4.721045 -2.235556 4.834452 0
M  V30 42 H 2.961626 -3.107015 3.316355 0
M  V30 43 H 4.574217 -2.949618 2.560044 0
M  V30 44 H 4.496483 -1.110344 -1.774284 0
M  V30 45 H 3.512094 -2.301155 -0.792309 0
M  V30 46 H 2.947364 -1.816254 -2.395660 0
M  V30 47 H 0.250374 2.675645 -2.990673 0
M  V30 48 H -1.411960 2.076125 -1.010054 0
M  V30 49 H -3.173700 1.578657 -0.280287 0
M  V30 50 H -5.191355 0.819045 0.705375 0
M  V30 51 H -6.152656 -1.323764 0.216244 0
M  V30 52 H -6.149238 -5.430973 -2.011505 0
M  V30 53 H -5.065652 -6.955689 -3.593869 0
M  V30 54 H -2.916358 -6.345430 -4.743181 0
M  V30 55 H -1.886087 -4.094189 -4.232434 0
M  V30 56 H -2.001778 -2.111012 -3.075233 0
M  V30 57 H 4.010254 1.942689 2.663453 0
M  V30 58 H 3.579318 2.789979 4.971896 0
M  V30 59 H 0.409698 3.976518 6.194292 0
M  V30 60 H 2.104881 3.438950 6.698481 0
M  V30 61 H 0.739013 2.331318 6.808377 0
M  V30 62 H -0.559067 2.455233 4.369911 0
M  V30 63 H -0.191336 1.632743 2.156220 0
M  V30 END ATOM
M  V30 BEGIN BOND
M  V30 1 1 1 2
M  V30 2 1 2 3
M  V30 3 1 3 4
M  V30 4 2 4 5
M  V30 5 1 4 6
M  V30 6 2 6 7
M  V30 7 1 7 8
M  V30 8 1 7 9
M  V30 9 2 9 10
M  V30 10 1 10 11
M  V30 11 1 11 12
M  V30 12 1 12 13
M  V30 13 2 13 14
M  V30 14 1 13 15
M  V30 15 2 15 16
M  V30 16 1 16 17
M  V30 17 2 17 18
M  V30 18 1 18 19
M  V30 19 1 19 20
M  V30 20 2 20 21
M  V30 21 1 20 22
M  V30 22 2 22 23
M  V30 23 1 23 24
M  V30 24 2 24 25
M  V30 25 1 25 26
M  V30 26 2 26 27
M  V30 27 1 27 28
M  V30 28 1 28 29
M  V30 29 1 10 30
M  V30 30 2 30 31
M  V30 31 1 31 32
M  V30 32 2 32 33
M  V30 33 1 33 34
M  V30 34 2 34 35
M  V30 35 1 35 36
M  V30 36 1 35 37
M  V30 37 2 37 38
M  V30 38 1 31 6
M  V30 39 1 38 32
M  V30 40 1 29 15
M  V30 41 2 29 19
M  V30 42 1 27 22
M  V30 43 1 1 39
M  V30 44 1 1 40
M  V30 45 1 1 41
M  V30 46 1 2 42
M  V30 47 1 2 43
M  V30 48 1 8 44
M  V30 49 1 8 45
M  V30 50 1 8 46
M  V30 51 1 11 47
M  V30 52 1 12 48
M  V30 53 1 16 49
M  V30 54 1 17 50
M  V30 55 1 18 51
M  V30 56 1 23 52
M  V30 57 1 24 53
M  V30 58 1 25 54
M  V30 59 1 26 55
M  V30 60 1 28 56
M  V30 61 1 33 57
M  V30 62 1 34 58
M  V30 63 1 36 59
M  V30 64 1 36 60
M  V30 65 1 36 61
M  V30 66 1 37 62
M  V30 67 1 38 63
M  V30 END BOND
M  V30 END CTAB
M  END
>  <Dataset>  (294) 
ChEMBL_Kinases

>  <Ligand_Instance>  (294) 
nan

>  <PDB_ID>  (294) 
nan

>  <Standardized_SMILES>  (294) 
CCOC(=O)c1c(C)nc(NNC(=O)c2cccc3c(=O)c4ccccc4[nH]c23)nc1-c1ccc(C)cc1

>  <Name>  (294) 
nan

>  <Pocket>  (294) 
nan

>  <ATP_Site>  (294) 
nan

>  <Peripheral>  (294) 
nan

>  <Num_H_Atoms_ProtBoundConf>  (294) 
nan

>  <Num_Resolved_Atoms>  (294) 
nan

>  <Num_Not_Resolved_Atoms>  (294) 
nan

$$$$
CHEMBL4788985
     RDKit          3D

  0  0  0  0  0  0  0  0  0  0999 V3000
M  V30 BEGIN CTAB
M  V30 COUNTS 66 70 0 0 0
M  V30 BEGIN ATOM
M  V30 1 O 1.494019 0.221343 7.421393 0
M  V30 2 S 1.186345 0.946113 6.156916 0
M  V30 3 O 0.617657 2.311166 6.425407 0
M  V30 4 N -0.110549 0.061341 5.323699 0
M  V30 5 C 0.330489 -1.268595 5.048009 0
M  V30 6 C -0.663361 -2.135433 4.368507 0
M  V30 7 C -1.156905 -1.618793 3.065033 0
M  V30 8 N -1.917872 -0.403152 3.156263 0
M  V30 9 C -2.308733 0.185813 1.894693 0
M  V30 10 C -1.966749 -0.472843 0.730668 0
M  V30 11 C -2.273170 -0.023796 -0.555811 0
M  V30 12 C -1.913198 -0.723720 -1.782056 0
M  V30 13 N -2.851380 -1.196166 -2.646592 0
M  V30 14 C -2.266344 -1.799225 -3.698198 0
M  V30 15 C -2.885159 -2.442899 -4.854049 0
M  V30 16 C -2.096926 -3.014278 -5.851601 0
M  V30 17 C -2.630561 -3.634430 -6.961823 0
M  V30 18 C -4.007892 -3.665740 -7.044482 0
M  V30 19 C -4.829305 -3.114345 -6.083046 0
M  V30 20 C -4.262856 -2.491003 -4.966627 0
M  V30 21 N -0.937705 -1.704064 -3.490922 0
M  V30 22 C -0.696063 -1.056755 -2.336721 0
M  V30 23 C 0.586950 -0.734420 -1.723945 0
M  V30 24 C 1.305871 -1.896386 -1.453501 0
M  V30 25 C 2.559155 -1.858509 -0.871611 0
M  V30 26 C 3.118077 -0.623389 -0.546901 0
M  V30 27 C 2.379606 0.516081 -0.827485 0
M  V30 28 O 2.896415 1.766585 -0.521465 0
M  V30 29 C 1.130740 0.490750 -1.406604 0
M  V30 30 C -2.968273 1.164973 -0.662122 0
M  V30 31 C -3.276437 1.766629 0.524935 0
M  V30 32 N -2.979249 1.329680 1.745719 0
M  V30 33 C 2.555124 1.005258 5.080046 0
M  V30 34 C 2.711799 2.042418 4.185166 0
M  V30 35 C 3.759634 2.172981 3.296122 0
M  V30 36 C 4.700728 1.149801 3.351471 0
M  V30 37 O 5.776982 1.242718 2.469212 0
M  V30 38 C 4.611796 0.070721 4.226621 0
M  V30 39 C 3.519887 0.019567 5.089516 0
M  V30 40 H -0.170761 0.625677 4.412105 0
M  V30 41 H 1.253287 -1.271338 4.386388 0
M  V30 42 H 0.696953 -1.779428 5.975987 0
M  V30 43 H -0.161740 -3.129424 4.130721 0
M  V30 44 H -1.532114 -2.340092 5.051564 0
M  V30 45 H -1.832223 -2.363012 2.549989 0
M  V30 46 H -0.301045 -1.407493 2.355220 0
M  V30 47 H -2.303878 0.187439 3.938697 0
M  V30 48 H -1.417210 -1.425988 0.678960 0
M  V30 49 H -3.889662 -1.120157 -2.541859 0
M  V30 50 H -1.001627 -2.984879 -5.777793 0
M  V30 51 H -1.960842 -4.057827 -7.699094 0
M  V30 52 H -4.391263 -4.166814 -7.940335 0
M  V30 53 H -5.897614 -3.186959 -6.232654 0
M  V30 54 H -4.922900 -2.070147 -4.233259 0
M  V30 55 H 1.000987 -2.915986 -1.649220 0
M  V30 56 H 3.175059 -2.706069 -0.632249 0
M  V30 57 H 4.094862 -0.543272 -0.090877 0
M  V30 58 H 3.285850 1.983381 0.392307 0
M  V30 59 H 0.499364 1.307200 -1.655153 0
M  V30 60 H -3.246279 1.586481 -1.602068 0
M  V30 61 H -3.830673 2.714250 0.442661 0
M  V30 62 H 1.945510 2.805431 4.192494 0
M  V30 63 H 3.844442 2.998920 2.613369 0
M  V30 64 H 5.602432 1.610387 1.548734 0
M  V30 65 H 5.370148 -0.703997 4.234131 0
M  V30 66 H 3.405134 -0.806581 5.794638 0
M  V30 END ATOM
M  V30 BEGIN BOND
M  V30 1 2 1 2
M  V30 2 2 2 3
M  V30 3 1 2 4
M  V30 4 1 4 5
M  V30 5 1 5 6
M  V30 6 1 6 7
M  V30 7 1 7 8
M  V30 8 1 8 9
M  V30 9 2 9 10
M  V30 10 1 10 11
M  V30 11 1 11 12
M  V30 12 1 12 13
M  V30 13 1 13 14
M  V30 14 1 14 15
M  V30 15 2 15 16
M  V30 16 1 16 17
M  V30 17 2 17 18
M  V30 18 1 18 19
M  V30 19 2 19 20
M  V30 20 2 14 21
M  V30 21 1 21 22
M  V30 22 1 22 23
M  V30 23 2 23 24
M  V30 24 1 24 25
M  V30 25 2 25 26
M  V30 26 1 26 27
M  V30 27 1 27 28
M  V30 28 2 27 29
M  V30 29 2 11 30
M  V30 30 1 30 31
M  V30 31 2 31 32
M  V30 32 1 2 33
M  V30 33 2 33 34
M  V30 34 1 34 35
M  V30 35 2 35 36
M  V30 36 1 36 37
M  V30 37 1 36 38
M  V30 38 2 38 39
M  V30 39 1 32 9
M  V30 40 1 39 33
M  V30 41 2 22 12
M  V30 42 1 29 23
M  V30 43 1 20 15
M  V30 44 1 4 40
M  V30 45 1 5 41
M  V30 46 1 5 42
M  V30 47 1 6 43
M  V30 48 1 6 44
M  V30 49 1 7 45
M  V30 50 1 7 46
M  V30 51 1 8 47
M  V30 52 1 10 48
M  V30 53 1 13 49
M  V30 54 1 16 50
M  V30 55 1 17 51
M  V30 56 1 18 52
M  V30 57 1 19 53
M  V30 58 1 20 54
M  V30 59 1 24 55
M  V30 60 1 25 56
M  V30 61 1 26 57
M  V30 62 1 28 58
M  V30 63 1 29 59
M  V30 64 1 30 60
M  V30 65 1 31 61
M  V30 66 1 34 62
M  V30 67 1 35 63
M  V30 68 1 37 64
M  V30 69 1 38 65
M  V30 70 1 39 66
M  V30 END BOND
M  V30 END CTAB
M  END
>  <Dataset>  (295) 
ChEMBL_Kinases

>  <Ligand_Instance>  (295) 
nan

>  <PDB_ID>  (295) 
nan

>  <Standardized_SMILES>  (295) 
O=S(=O)(NCCCNc1cc(-c2[nH]c(-c3ccccc3)nc2-c2cccc(O)c2)ccn1)c1ccc(O)cc1

>  <Name>  (295) 
nan

>  <Pocket>  (295) 
nan

>  <ATP_Site>  (295) 
nan

>  <Peripheral>  (295) 
nan

>  <Num_H_Atoms_ProtBoundConf>  (295) 
nan

>  <Num_Resolved_Atoms>  (295) 
nan

>  <Num_Not_Resolved_Atoms>  (295) 
nan

$$$$
CHEMBL4161228
     RDKit          3D

  0  0  0  0  0  0  0  0  0  0999 V3000
M  V30 BEGIN CTAB
M  V30 COUNTS 56 60 0 0 0
M  V30 BEGIN ATOM
M  V30 1 O 2.715962 -5.520654 2.255545 0
M  V30 2 C 2.750216 -4.296933 1.991071 0
M  V30 3 N 3.912150 -3.483348 2.011324 0
M  V30 4 C 3.463662 -2.186137 1.651283 0
M  V30 5 C 4.230454 -1.045675 1.551208 0
M  V30 6 C 3.605291 0.156017 1.203910 0
M  V30 7 C 2.225844 0.184337 0.965616 0
M  V30 8 C 1.691933 1.495929 0.612096 0
M  V30 9 O 2.490327 2.453815 0.494745 0
M  V30 10 N 0.326651 1.810649 0.382101 0
M  V30 11 C -0.032504 3.174117 0.038846 0 CFG=2
M  V30 12 C -0.891985 3.738940 1.184880 0
M  V30 13 O -1.252615 5.051961 0.881199 0
M  V30 14 C -0.893869 3.260461 -1.168027 0
M  V30 15 C -1.951612 2.378806 -1.171338 0
M  V30 16 C -2.839605 2.336008 -2.220334 0
M  V30 17 C -2.695480 3.177063 -3.302287 0
M  V30 18 C -1.627382 4.065792 -3.297411 0
M  V30 19 C -0.733405 4.110958 -2.243655 0
M  V30 20 C 1.501684 -0.980648 1.077023 0
M  V30 21 C 2.107034 -2.165496 1.415530 0
M  V30 22 C 1.583890 -3.506822 1.617576 0
M  V30 23 C 0.324837 -3.866725 1.515297 0
M  V30 24 C -0.127448 -5.234386 1.796009 0
M  V30 25 N 0.423097 -6.380434 1.440395 0
M  V30 26 C -0.287288 -7.401552 1.898223 0
M  V30 27 C -1.368352 -6.905921 2.596574 0
M  V30 28 N -1.234278 -5.571694 2.510308 0
M  V30 29 C -0.749466 -3.055121 0.996380 0
M  V30 30 C -1.899482 -2.500421 1.502474 0
M  V30 31 C -2.795425 -1.843205 0.690840 0
M  V30 32 C -2.595335 -1.701137 -0.671718 0
M  V30 33 F -3.512188 -1.045638 -1.419587 0
M  V30 34 C -1.435250 -2.256199 -1.202007 0
M  V30 35 C -0.513157 -2.928980 -0.389080 0
M  V30 36 F 0.527269 -3.374163 -1.143651 0
M  V30 37 H 4.860737 -3.849223 2.254757 0
M  V30 38 H 5.300905 -1.061187 1.734997 0
M  V30 39 H 4.256283 1.008711 1.141723 0
M  V30 40 H -0.364322 1.037106 0.471559 0
M  V30 41 H 0.870959 3.810089 -0.061378 0
M  V30 42 H -1.736408 3.089894 1.414603 0
M  V30 43 H -0.267593 3.815855 2.123275 0
M  V30 44 H -1.594003 5.119533 -0.051205 0
M  V30 45 H -2.188316 1.665920 -0.396161 0
M  V30 46 H -3.702662 1.677490 -2.312611 0
M  V30 47 H -3.355202 3.195796 -4.161415 0
M  V30 48 H -1.430019 4.761595 -4.097030 0
M  V30 49 H 0.106506 4.772644 -2.183313 0
M  V30 50 H 0.484283 -0.796443 0.892946 0
M  V30 51 H -0.049059 -8.447333 1.743259 0
M  V30 52 H -2.106334 -7.533799 3.071744 0
M  V30 53 H -1.951688 -4.990192 2.975489 0
M  V30 54 H -1.937420 -2.669814 2.566499 0
M  V30 55 H -3.658422 -1.457070 1.212661 0
M  V30 56 H -1.358896 -2.099001 -2.268914 0
M  V30 END ATOM
M  V30 BEGIN BOND
M  V30 1 2 1 2
M  V30 2 1 2 3
M  V30 3 1 3 4
M  V30 4 2 4 5
M  V30 5 1 5 6
M  V30 6 2 6 7
M  V30 7 1 7 8
M  V30 8 2 8 9
M  V30 9 1 8 10
M  V30 10 1 10 11
M  V30 11 1 11 12
M  V30 12 1 12 13
M  V30 13 1 11 14
M  V30 14 2 14 15
M  V30 15 1 15 16
M  V30 16 2 16 17
M  V30 17 1 17 18
M  V30 18 2 18 19
M  V30 19 1 7 20
M  V30 20 2 20 21
M  V30 21 1 21 22
M  V30 22 2 22 23
M  V30 23 1 23 24
M  V30 24 2 24 25
M  V30 25 1 25 26
M  V30 26 2 26 27
M  V30 27 1 27 28
M  V30 28 1 23 29
M  V30 29 2 29 30
M  V30 30 1 30 31
M  V30 31 2 31 32
M  V30 32 1 32 33
M  V30 33 1 32 34
M  V30 34 2 34 35
M  V30 35 1 35 36
M  V30 36 1 22 2
M  V30 37 1 28 24
M  V30 38 1 35 29
M  V30 39 1 21 4
M  V30 40 1 19 14
M  V30 41 1 3 37
M  V30 42 1 5 38
M  V30 43 1 6 39
M  V30 44 1 10 40
M  V30 45 1 11 41 CFG=3
M  V30 46 1 12 42
M  V30 47 1 12 43
M  V30 48 1 13 44
M  V30 49 1 15 45
M  V30 50 1 16 46
M  V30 51 1 17 47
M  V30 52 1 18 48
M  V30 53 1 19 49
M  V30 54 1 20 50
M  V30 55 1 26 51
M  V30 56 1 27 52
M  V30 57 1 28 53
M  V30 58 1 30 54
M  V30 59 1 31 55
M  V30 60 1 34 56
M  V30 END BOND
M  V30 END CTAB
M  END
>  <Dataset>  (296) 
ChEMBL_Kinases

>  <Ligand_Instance>  (296) 
nan

>  <PDB_ID>  (296) 
nan

>  <Standardized_SMILES>  (296) 
O=C1Nc2ccc(C(=O)N[C@H](CO)c3ccccc3)cc2/C1=C(/c1ncc[nH]1)c1ccc(F)cc1F

>  <Name>  (296) 
nan

>  <Pocket>  (296) 
nan

>  <ATP_Site>  (296) 
nan

>  <Peripheral>  (296) 
nan

>  <Num_H_Atoms_ProtBoundConf>  (296) 
nan

>  <Num_Resolved_Atoms>  (296) 
nan

>  <Num_Not_Resolved_Atoms>  (296) 
nan

$$$$
CHEMBL4788992
     RDKit          3D

  0  0  0  0  0  0  0  0  0  0999 V3000
M  V30 BEGIN CTAB
M  V30 COUNTS 46 49 0 0 0
M  V30 BEGIN ATOM
M  V30 1 C 1.553870 -4.352378 -0.350081 0
M  V30 2 N 1.740354 -3.096643 -1.057977 0
M  V30 3 C 2.631361 -3.017367 -2.167080 0
M  V30 4 O 3.257300 -4.092080 -2.367133 0
M  V30 5 C 2.882837 -1.880876 -3.050867 0
M  V30 6 C 3.959038 -2.135338 -3.876424 0
M  V30 7 C 4.317625 -1.135748 -4.777906 0
M  V30 8 C 3.628707 0.066833 -4.850047 0
M  V30 9 C 2.554783 0.295551 -4.011685 0
M  V30 10 Cl 1.606828 1.770933 -4.007320 0
M  V30 11 C 2.170791 -0.681328 -3.100351 0
M  V30 12 O 1.072254 -0.305245 -2.324869 0
M  V30 13 C 0.675031 -0.824395 -1.089902 0
M  V30 14 C -0.112599 0.075688 -0.401928 0
M  V30 15 C -0.656735 -0.159820 0.855734 0
M  V30 16 N -1.464563 0.795660 1.530943 0
M  V30 17 C -2.010016 0.508112 2.839565 0 CFG=1
M  V30 18 C -0.945678 0.239412 3.882298 0
M  V30 19 C -1.702893 0.126705 5.210348 0
M  V30 20 C -2.094034 1.540410 5.586277 0 CFG=2
M  V30 21 O -2.955733 1.532949 6.682831 0
M  V30 22 C -2.636954 2.336630 4.447953 0
M  V30 23 C -3.049145 1.486436 3.270224 0
M  V30 24 N -0.347349 -1.365888 1.363499 0
M  V30 25 C 0.414646 -2.282164 0.739436 0
M  V30 26 C 0.952952 -2.045054 -0.508538 0
M  V30 27 H 0.484306 -4.633939 -0.265016 0
M  V30 28 H 1.979067 -5.150277 -1.027918 0
M  V30 29 H 2.138316 -4.441388 0.570754 0
M  V30 30 H 4.491133 -3.067837 -3.818621 0
M  V30 31 H 5.162269 -1.276778 -5.459756 0
M  V30 32 H 3.891079 0.856308 -5.543254 0
M  V30 33 H -0.322915 1.034456 -0.873881 0
M  V30 34 H -1.635546 1.696762 1.034910 0
M  V30 35 H -2.547942 -0.479528 2.728642 0
M  V30 36 H -0.307625 1.159001 3.894066 0
M  V30 37 H -0.414597 -0.678573 3.638623 0
M  V30 38 H -1.068559 -0.301128 5.996770 0
M  V30 39 H -2.661147 -0.436806 5.058782 0
M  V30 40 H -1.132473 2.030289 5.920107 0
M  V30 41 H -2.465703 1.194282 7.478191 0
M  V30 42 H -1.949360 3.175042 4.134772 0
M  V30 43 H -3.562065 2.858601 4.806221 0
M  V30 44 H -4.034902 1.038189 3.517463 0
M  V30 45 H -3.219260 2.197049 2.430110 0
M  V30 46 H 0.621539 -3.221192 1.199934 0
M  V30 END ATOM
M  V30 BEGIN BOND
M  V30 1 1 1 2
M  V30 2 1 2 3
M  V30 3 2 3 4
M  V30 4 1 3 5
M  V30 5 2 5 6
M  V30 6 1 6 7
M  V30 7 2 7 8
M  V30 8 1 8 9
M  V30 9 1 9 10
M  V30 10 2 9 11
M  V30 11 1 11 12
M  V30 12 1 12 13
M  V30 13 2 13 14
M  V30 14 1 14 15
M  V30 15 1 15 16
M  V30 16 1 16 17
M  V30 17 1 17 18
M  V30 18 1 18 19
M  V30 19 1 19 20
M  V30 20 1 20 21
M  V30 21 1 20 22
M  V30 22 1 22 23
M  V30 23 2 15 24
M  V30 24 1 24 25
M  V30 25 2 25 26
M  V30 26 1 26 2
M  V30 27 1 11 5
M  V30 28 1 26 13
M  V30 29 1 23 17
M  V30 30 1 1 27
M  V30 31 1 1 28
M  V30 32 1 1 29
M  V30 33 1 6 30
M  V30 34 1 7 31
M  V30 35 1 8 32
M  V30 36 1 14 33
M  V30 37 1 16 34
M  V30 38 1 17 35 CFG=3
M  V30 39 1 18 36
M  V30 40 1 18 37
M  V30 41 1 19 38
M  V30 42 1 19 39
M  V30 43 1 20 40 CFG=1
M  V30 44 1 21 41
M  V30 45 1 22 42
M  V30 46 1 22 43
M  V30 47 1 23 44
M  V30 48 1 23 45
M  V30 49 1 25 46
M  V30 END BOND
M  V30 END CTAB
M  END
>  <Dataset>  (297) 
ChEMBL_Kinases

>  <Ligand_Instance>  (297) 
nan

>  <PDB_ID>  (297) 
nan

>  <Standardized_SMILES>  (297) 
CN1C(=O)c2cccc(Cl)c2Oc2cc(N[C@H]3CC[C@H](O)CC3)ncc21

>  <Name>  (297) 
nan

>  <Pocket>  (297) 
nan

>  <ATP_Site>  (297) 
nan

>  <Peripheral>  (297) 
nan

>  <Num_H_Atoms_ProtBoundConf>  (297) 
nan

>  <Num_Resolved_Atoms>  (297) 
nan

>  <Num_Not_Resolved_Atoms>  (297) 
nan

$$$$
CHEMBL4788886
     RDKit          3D

  0  0  0  0  0  0  0  0  0  0999 V3000
M  V30 BEGIN CTAB
M  V30 COUNTS 30 32 0 0 0
M  V30 BEGIN ATOM
M  V30 1 O 2.227804 -5.584680 3.720232 0
M  V30 2 C 2.244464 -5.527098 2.465248 0
M  V30 3 O 1.273725 -6.389585 1.996629 0
M  V30 4 C 3.262236 -4.587194 1.882417 0
M  V30 5 S 2.602099 -2.908437 1.776250 0
M  V30 6 C 1.284264 -2.924687 0.575508 0
M  V30 7 N 0.868166 -3.976222 -0.143001 0
M  V30 8 C -0.168299 -3.717301 -0.989220 0
M  V30 9 N -0.787763 -2.560948 -1.165668 0
M  V30 10 C -0.425006 -1.465721 -0.479124 0
M  V30 11 C -0.941077 -0.204341 -0.518871 0
M  V30 12 C -0.394614 0.767196 0.300213 0
M  V30 13 C -0.685632 2.145239 0.531026 0
M  V30 14 C 0.031749 2.827590 1.499621 0
M  V30 15 C -0.230005 4.179984 1.750799 0
M  V30 16 C -1.201167 4.845464 1.039279 0
M  V30 17 C -1.942807 4.218050 0.067068 0
M  V30 18 C -1.643125 2.887499 -0.138547 0
M  V30 19 F -2.371704 2.267030 -1.100928 0
M  V30 20 S 0.872274 -0.073527 1.157018 0
M  V30 21 C 0.646236 -1.679360 0.412483 0
M  V30 22 H 0.281942 -6.219243 2.095087 0
M  V30 23 H 3.409817 -4.946512 0.822249 0
M  V30 24 H 4.223592 -4.674067 2.384967 0
M  V30 25 H -0.526752 -4.557681 -1.588934 0
M  V30 26 H -1.762516 0.088699 -1.154361 0
M  V30 27 H 0.819337 2.405446 2.118929 0
M  V30 28 H 0.318979 4.723648 2.504671 0
M  V30 29 H -1.374757 5.904386 1.267266 0
M  V30 30 H -2.708585 4.719233 -0.505403 0
M  V30 END ATOM
M  V30 BEGIN BOND
M  V30 1 2 1 2
M  V30 2 1 2 3
M  V30 3 1 2 4
M  V30 4 1 4 5
M  V30 5 1 5 6
M  V30 6 2 6 7
M  V30 7 1 7 8
M  V30 8 2 8 9
M  V30 9 1 9 10
M  V30 10 1 10 11
M  V30 11 2 11 12
M  V30 12 1 12 13
M  V30 13 2 13 14
M  V30 14 1 14 15
M  V30 15 2 15 16
M  V30 16 1 16 17
M  V30 17 2 17 18
M  V30 18 1 18 19
M  V30 19 1 12 20
M  V30 20 1 20 21
M  V30 21 1 21 6
M  V30 22 2 21 10
M  V30 23 1 18 13
M  V30 24 1 3 22
M  V30 25 1 4 23
M  V30 26 1 4 24
M  V30 27 1 8 25
M  V30 28 1 11 26
M  V30 29 1 14 27
M  V30 30 1 15 28
M  V30 31 1 16 29
M  V30 32 1 17 30
M  V30 END BOND
M  V30 END CTAB
M  END
>  <Dataset>  (298) 
ChEMBL_Kinases

>  <Ligand_Instance>  (298) 
nan

>  <PDB_ID>  (298) 
nan

>  <Standardized_SMILES>  (298) 
O=C(O)CSc1ncnc2cc(-c3ccccc3F)sc12

>  <Name>  (298) 
nan

>  <Pocket>  (298) 
nan

>  <ATP_Site>  (298) 
nan

>  <Peripheral>  (298) 
nan

>  <Num_H_Atoms_ProtBoundConf>  (298) 
nan

>  <Num_Resolved_Atoms>  (298) 
nan

>  <Num_Not_Resolved_Atoms>  (298) 
nan

$$$$
CHEMBL4163801
     RDKit          3D

  0  0  0  0  0  0  0  0  0  0999 V3000
M  V30 BEGIN CTAB
M  V30 COUNTS 45 48 0 0 0
M  V30 BEGIN ATOM
M  V30 1 C -0.863858 -6.736475 1.105738 0
M  V30 2 O -1.551977 -6.301399 2.266175 0
M  V30 3 C -1.502866 -4.945109 2.562405 0
M  V30 4 C -0.811481 -4.023537 1.767615 0
M  V30 5 C -0.815382 -2.695157 2.136420 0
M  V30 6 C -0.071175 -1.798306 1.254808 0
M  V30 7 C -0.566012 -0.513501 1.170997 0
M  V30 8 N 0.084084 0.345140 0.373939 0
M  V30 9 C 1.169509 0.037737 -0.336639 0
M  V30 10 C 1.896655 0.898253 -1.200871 0
M  V30 11 N 1.745596 2.248695 -1.555902 0
M  V30 12 C 0.755408 3.174177 -1.058633 0
M  V30 13 C 0.900690 4.463774 -1.848407 0
M  V30 14 C 2.297239 4.978045 -1.628749 0
M  V30 15 O 3.027037 4.231970 -0.747767 0
M  V30 16 C 2.443493 4.050532 0.502409 0
M  V30 17 C 1.008360 3.597309 0.387369 0
M  V30 18 S 3.246130 -0.116166 -1.867024 0
M  V30 19 N 2.783740 -1.669465 -0.955432 0
M  V30 20 C 1.705665 -1.219671 -0.294012 0
M  V30 21 C 1.052651 -2.124773 0.521920 0
M  V30 22 C -1.465789 -2.212069 3.252972 0
M  V30 23 C -2.164975 -3.109244 4.066265 0
M  V30 24 C -2.144461 -4.434354 3.673176 0
M  V30 25 N -2.860266 -5.333733 4.511748 0
M  V30 26 H -1.244114 -6.173597 0.236840 0
M  V30 27 H 0.197108 -6.378384 1.235491 0
M  V30 28 H -0.903832 -7.829074 0.984862 0
M  V30 29 H -0.304511 -4.413294 0.893580 0
M  V30 30 H -1.439093 -0.131427 1.694541 0
M  V30 31 H 2.446319 2.604654 -2.275379 0
M  V30 32 H -0.269730 2.752186 -1.168167 0
M  V30 33 H 0.693285 4.302610 -2.928102 0
M  V30 34 H 0.127732 5.201486 -1.524194 0
M  V30 35 H 2.291862 6.066267 -1.395462 0
M  V30 36 H 2.835686 4.888461 -2.620732 0
M  V30 37 H 2.996657 3.223588 0.997893 0
M  V30 38 H 2.581792 4.943521 1.141871 0
M  V30 39 H 0.676109 2.904869 1.139310 0
M  V30 40 H 0.375101 4.524363 0.514424 0
M  V30 41 H 1.302369 -3.160559 0.702356 0
M  V30 42 H -1.438866 -1.170115 3.496930 0
M  V30 43 H -2.689752 -2.789089 4.947978 0
M  V30 44 H -3.824559 -5.636659 4.195390 0
M  V30 45 H -2.878742 -5.895481 5.390196 0
M  V30 END ATOM
M  V30 BEGIN BOND
M  V30 1 1 1 2
M  V30 2 1 2 3
M  V30 3 2 3 4
M  V30 4 1 4 5
M  V30 5 1 5 6
M  V30 6 1 6 7
M  V30 7 2 7 8
M  V30 8 1 8 9
M  V30 9 2 9 10
M  V30 10 1 10 11
M  V30 11 1 11 12
M  V30 12 1 12 13
M  V30 13 1 13 14
M  V30 14 1 14 15
M  V30 15 1 15 16
M  V30 16 1 16 17
M  V30 17 1 10 18
M  V30 18 1 18 19
M  V30 19 2 19 20
M  V30 20 1 20 21
M  V30 21 2 5 22
M  V30 22 1 22 23
M  V30 23 2 23 24
M  V30 24 1 24 25
M  V30 25 1 24 3
M  V30 26 2 21 6
M  V30 27 1 20 9
M  V30 28 1 17 12
M  V30 29 1 1 26
M  V30 30 1 1 27
M  V30 31 1 1 28
M  V30 32 1 4 29
M  V30 33 1 7 30
M  V30 34 1 11 31
M  V30 35 1 12 32
M  V30 36 1 13 33
M  V30 37 1 13 34
M  V30 38 1 14 35
M  V30 39 1 14 36
M  V30 40 1 16 37
M  V30 41 1 16 38
M  V30 42 1 17 39
M  V30 43 1 17 40
M  V30 44 1 21 41
M  V30 45 1 22 42
M  V30 46 1 23 43
M  V30 47 1 25 44
M  V30 48 1 25 45
M  V30 END BOND
M  V30 END CTAB
M  END
>  <Dataset>  (299) 
ChEMBL_Kinases

>  <Ligand_Instance>  (299) 
nan

>  <PDB_ID>  (299) 
nan

>  <Standardized_SMILES>  (299) 
COc1cc(-c2cnc3c(NC4CCOCC4)snc3c2)ccc1N

>  <Name>  (299) 
nan

>  <Pocket>  (299) 
nan

>  <ATP_Site>  (299) 
nan

>  <Peripheral>  (299) 
nan

>  <Num_H_Atoms_ProtBoundConf>  (299) 
nan

>  <Num_Resolved_Atoms>  (299) 
nan

>  <Num_Not_Resolved_Atoms>  (299) 
nan

$$$$
CHEMBL4163735
     RDKit          3D

  0  0  0  0  0  0  0  0  0  0999 V3000
M  V30 BEGIN CTAB
M  V30 COUNTS 71 76 0 0 0
M  V30 BEGIN ATOM
M  V30 1 C 5.282448 4.123581 2.597771 0
M  V30 2 N 4.654688 3.870219 1.335119 0
M  V30 3 C 3.269217 3.447652 1.434971 0 CFG=1
M  V30 4 C 2.754940 3.223732 0.058913 0
M  V30 5 C 1.546797 2.360920 -0.063054 0
M  V30 6 C 1.688724 1.056706 0.691586 0 CFG=1
M  V30 7 C 2.803287 0.235198 0.086571 0
M  V30 8 C 1.986600 1.405136 2.126844 0 CFG=1
M  V30 9 C 2.085074 0.183251 2.991879 0
M  V30 10 C 0.918333 -0.751386 2.820105 0
M  V30 11 C 0.624154 -1.047841 1.356383 0 CFG=2
M  V30 12 C 0.408756 0.293977 0.667062 0 CFG=2
M  V30 13 C -0.155720 0.122832 -0.719804 0
M  V30 14 C -1.497538 -0.571292 -0.624796 0
M  V30 15 C -1.286058 -1.921921 -0.051812 0 CFG=2
M  V30 16 C -0.503924 -2.833986 -0.926873 0
M  V30 17 C -2.567875 -2.587476 0.430539 0 CFG=1
M  V30 18 C -3.521070 -2.928248 -0.603196 0
M  V30 19 C -4.710635 -2.197985 -0.528630 0
M  V30 20 C -5.757219 -2.386492 -1.439754 0
M  V30 21 C -5.566476 -3.331166 -2.424439 0
M  V30 22 C -6.581417 -3.548837 -3.348946 0
M  V30 23 C -6.377177 -4.509524 -4.343459 0
M  V30 24 N -5.227984 -5.238699 -4.443341 0
M  V30 25 C -4.233245 -5.023666 -3.535243 0
M  V30 26 C -4.407640 -4.069366 -2.528539 0
M  V30 27 C -3.409143 -3.841585 -1.602848 0
M  V30 28 C -2.015773 -3.697648 1.259528 0
M  V30 29 C -0.691304 -3.167378 1.821394 0
M  V30 30 C -0.669123 -1.751341 1.328093 0 CFG=1
M  V30 31 C 3.233905 2.225895 2.312545 0
M  V30 32 H 5.012439 5.132702 2.973814 0
M  V30 33 H 5.127403 3.338435 3.348987 0
M  V30 34 H 6.377836 4.174958 2.406081 0
M  V30 35 H 5.188556 3.127118 0.843358 0
M  V30 36 H 2.706969 4.288820 1.915586 0
M  V30 37 H 3.560421 2.921555 -0.669070 0
M  V30 38 H 2.446427 4.239511 -0.328603 0
M  V30 39 H 1.425338 2.147751 -1.161112 0
M  V30 40 H 0.642046 2.887123 0.256633 0
M  V30 41 H 3.233614 -0.462677 0.834691 0
M  V30 42 H 3.643702 0.867152 -0.264043 0
M  V30 43 H 2.474412 -0.377153 -0.770357 0
M  V30 44 H 1.127506 2.013453 2.494619 0
M  V30 45 H 2.055935 0.525820 4.055461 0
M  V30 46 H 3.066819 -0.320202 2.868375 0
M  V30 47 H 0.027276 -0.204082 3.195537 0
M  V30 48 H 1.103540 -1.658509 3.410495 0
M  V30 49 H 1.411482 -1.637173 0.878124 0
M  V30 50 H -0.355475 0.834569 1.262844 0
M  V30 51 H -0.353708 1.151122 -1.090398 0
M  V30 52 H 0.517767 -0.431618 -1.374904 0
M  V30 53 H -2.199815 -0.027854 0.014226 0
M  V30 54 H -1.852127 -0.663490 -1.679651 0
M  V30 55 H -0.443983 -3.864625 -0.579039 0
M  V30 56 H 0.549991 -2.418394 -0.945339 0
M  V30 57 H -0.838715 -2.711170 -1.982312 0
M  V30 58 H -2.985195 -1.837427 1.171969 0
M  V30 59 H -4.930528 -1.429518 0.229715 0
M  V30 60 H -6.673617 -1.816943 -1.374019 0
M  V30 61 H -7.480622 -2.989006 -3.283357 0
M  V30 62 H -7.203443 -4.629583 -5.028873 0
M  V30 63 H -3.292655 -5.576555 -3.565249 0
M  V30 64 H -2.507729 -4.393313 -1.654018 0
M  V30 65 H -2.665199 -3.885502 2.160840 0
M  V30 66 H -1.782892 -4.627527 0.745837 0
M  V30 67 H -0.641117 -3.239705 2.913408 0
M  V30 68 H 0.171264 -3.698630 1.400305 0
M  V30 69 H -1.429029 -1.179259 1.927125 0
M  V30 70 H 3.211850 2.586205 3.363062 0
M  V30 71 H 4.112924 1.570928 2.214280 0
M  V30 END ATOM
M  V30 BEGIN BOND
M  V30 1 1 1 2
M  V30 2 1 2 3
M  V30 3 1 3 4
M  V30 4 1 4 5
M  V30 5 1 5 6
M  V30 6 1 6 7 CFG=3
M  V30 7 1 6 8
M  V30 8 1 8 9
M  V30 9 1 9 10
M  V30 10 1 10 11
M  V30 11 1 11 12
M  V30 12 1 12 13
M  V30 13 1 13 14
M  V30 14 1 14 15
M  V30 15 1 15 16 CFG=3
M  V30 16 1 15 17
M  V30 17 1 17 18
M  V30 18 2 18 19
M  V30 19 1 19 20
M  V30 20 2 20 21
M  V30 21 1 21 22
M  V30 22 2 22 23
M  V30 23 1 23 24
M  V30 24 2 24 25
M  V30 25 1 25 26
M  V30 26 2 26 27
M  V30 27 1 17 28
M  V30 28 1 28 29
M  V30 29 1 29 30
M  V30 30 1 8 31
M  V30 31 1 31 3
M  V30 32 1 12 6
M  V30 33 1 30 15
M  V30 34 1 30 11
M  V30 35 1 27 18
M  V30 36 1 26 21
M  V30 37 1 1 32
M  V30 38 1 1 33
M  V30 39 1 1 34
M  V30 40 1 2 35
M  V30 41 1 3 36 CFG=1
M  V30 42 1 4 37
M  V30 43 1 4 38
M  V30 44 1 5 39
M  V30 45 1 5 40
M  V30 46 1 7 41
M  V30 47 1 7 42
M  V30 48 1 7 43
M  V30 49 1 8 44 CFG=1
M  V30 50 1 9 45
M  V30 51 1 9 46
M  V30 52 1 10 47
M  V30 53 1 10 48
M  V30 54 1 11 49 CFG=3
M  V30 55 1 12 50 CFG=1
M  V30 56 1 13 51
M  V30 57 1 13 52
M  V30 58 1 14 53
M  V30 59 1 14 54
M  V30 60 1 16 55
M  V30 61 1 16 56
M  V30 62 1 16 57
M  V30 63 1 17 58 CFG=1
M  V30 64 1 19 59
M  V30 65 1 20 60
M  V30 66 1 22 61
M  V30 67 1 23 62
M  V30 68 1 25 63
M  V30 69 1 27 64
M  V30 70 1 28 65
M  V30 71 1 28 66
M  V30 72 1 29 67
M  V30 73 1 29 68
M  V30 74 1 30 69 CFG=1
M  V30 75 1 31 70
M  V30 76 1 31 71
M  V30 END BOND
M  V30 END CTAB
M  END
>  <Dataset>  (300) 
ChEMBL_Kinases

>  <Ligand_Instance>  (300) 
nan

>  <PDB_ID>  (300) 
nan

>  <Standardized_SMILES>  (300) 
CN[C@H]1CC[C@@]2(C)[C@@H](CC[C@@H]3[C@@H]2CC[C@]2(C)[C@@H](c4ccc5ccncc5c4)CC[C@@H]32)C1

>  <Name>  (300) 
nan

>  <Pocket>  (300) 
nan

>  <ATP_Site>  (300) 
nan

>  <Peripheral>  (300) 
nan

>  <Num_H_Atoms_ProtBoundConf>  (300) 
nan

>  <Num_Resolved_Atoms>  (300) 
nan

>  <Num_Not_Resolved_Atoms>  (300) 
nan

$$$$
CHEMBL4163627
     RDKit          3D

  0  0  0  0  0  0  0  0  0  0999 V3000
M  V30 BEGIN CTAB
M  V30 COUNTS 60 64 0 0 0
M  V30 BEGIN ATOM
M  V30 1 C -5.984670 2.167348 3.607283 0
M  V30 2 C -5.573596 0.719596 3.385020 0
M  V30 3 O -4.881345 0.660869 2.156442 0
M  V30 4 C -4.352353 -0.530282 1.627728 0
M  V30 5 O -4.674208 -1.348496 2.500514 0
M  V30 6 C -3.695970 -0.274556 0.352401 0
M  V30 7 C -4.499552 -0.385572 -0.761114 0
M  V30 8 C -5.920651 -0.742996 -0.691912 0
M  V30 9 N -3.885570 -0.140654 -1.942042 0
M  V30 10 C -2.567985 0.188688 -1.983786 0
M  V30 11 N -1.895580 0.453343 -3.208864 0
M  V30 12 N -0.532155 0.797851 -3.262482 0
M  V30 13 C 0.130215 1.065804 -4.502506 0
M  V30 14 O -0.525377 0.991265 -5.582833 0
M  V30 15 C 1.560772 1.410173 -4.337063 0
M  V30 16 C 2.023041 2.645017 -4.741957 0
M  V30 17 C 3.361044 3.009079 -4.601170 0
M  V30 18 C 4.200126 2.070229 -4.035326 0
M  V30 19 C 3.787509 0.818804 -3.612924 0
M  V30 20 C 4.638537 -0.108446 -3.049455 0
M  V30 21 O 5.872269 0.187586 -2.902726 0
M  V30 22 C 4.164611 -1.339467 -2.649070 0
M  V30 23 C 4.986939 -2.295149 -2.080140 0
M  V30 24 C 4.528724 -3.530439 -1.674528 0
M  V30 25 C 3.188158 -3.812104 -1.849977 0
M  V30 26 C 2.379551 -2.874031 -2.408711 0
M  V30 27 C 2.819543 -1.633218 -2.820451 0
M  V30 28 N 2.041214 -0.703087 -3.369180 0
M  V30 29 C 2.446931 0.510248 -3.777184 0
M  V30 30 N -1.829911 0.282085 -0.854245 0
M  V30 31 C -2.358476 0.055345 0.360657 0
M  V30 32 C -1.505746 0.178555 1.522336 0
M  V30 33 C -0.732477 1.346470 1.468983 0
M  V30 34 C 0.172287 1.691312 2.468641 0
M  V30 35 C 0.331814 0.871045 3.560662 0
M  V30 36 C -0.428820 -0.275086 3.610488 0
M  V30 37 C -1.326824 -0.626683 2.628054 0
M  V30 38 H -5.182913 2.758830 4.091031 0
M  V30 39 H -6.905594 2.214494 4.258406 0
M  V30 40 H -6.271056 2.685435 2.677529 0
M  V30 41 H -6.544715 0.176517 3.211831 0
M  V30 42 H -5.010982 0.364290 4.250369 0
M  V30 43 H -6.069709 -1.645237 -1.340240 0
M  V30 44 H -6.615976 0.040632 -1.041754 0
M  V30 45 H -6.166279 -1.105254 0.337416 0
M  V30 46 H -2.405503 0.396990 -4.106732 0
M  V30 47 H -0.031322 0.844923 -2.325245 0
M  V30 48 H 1.306914 3.352570 -5.186321 0
M  V30 49 H 3.717942 3.978689 -4.920955 0
M  V30 50 H 5.250161 2.325563 -3.911448 0
M  V30 51 H 6.024553 -2.075042 -1.945640 0
M  V30 52 H 5.217073 -4.237340 -1.236391 0
M  V30 53 H 2.782908 -4.781508 -1.542209 0
M  V30 54 H 1.325047 -3.053338 -2.564035 0
M  V30 55 H 1.034872 -0.981001 -3.473830 0
M  V30 56 H -0.759723 2.089869 0.655361 0
M  V30 57 H 0.770651 2.589095 2.433770 0
M  V30 58 H 1.011717 1.069040 4.374970 0
M  V30 59 H -0.395681 -0.997510 4.411458 0
M  V30 60 H -1.955911 -1.502816 2.589086 0
M  V30 END ATOM
M  V30 BEGIN BOND
M  V30 1 1 1 2
M  V30 2 1 2 3
M  V30 3 1 3 4
M  V30 4 2 4 5
M  V30 5 1 4 6
M  V30 6 2 6 7
M  V30 7 1 7 8
M  V30 8 1 7 9
M  V30 9 2 9 10
M  V30 10 1 10 11
M  V30 11 1 11 12
M  V30 12 1 12 13
M  V30 13 2 13 14
M  V30 14 1 13 15
M  V30 15 2 15 16
M  V30 16 1 16 17
M  V30 17 2 17 18
M  V30 18 1 18 19
M  V30 19 1 19 20
M  V30 20 2 20 21
M  V30 21 1 20 22
M  V30 22 2 22 23
M  V30 23 1 23 24
M  V30 24 2 24 25
M  V30 25 1 25 26
M  V30 26 2 26 27
M  V30 27 1 27 28
M  V30 28 1 28 29
M  V30 29 1 10 30
M  V30 30 2 30 31
M  V30 31 1 31 32
M  V30 32 2 32 33
M  V30 33 1 33 34
M  V30 34 2 34 35
M  V30 35 1 35 36
M  V30 36 2 36 37
M  V30 37 1 31 6
M  V30 38 1 37 32
M  V30 39 1 29 15
M  V30 40 2 29 19
M  V30 41 1 27 22
M  V30 42 1 1 38
M  V30 43 1 1 39
M  V30 44 1 1 40
M  V30 45 1 2 41
M  V30 46 1 2 42
M  V30 47 1 8 43
M  V30 48 1 8 44
M  V30 49 1 8 45
M  V30 50 1 11 46
M  V30 51 1 12 47
M  V30 52 1 16 48
M  V30 53 1 17 49
M  V30 54 1 18 50
M  V30 55 1 23 51
M  V30 56 1 24 52
M  V30 57 1 25 53
M  V30 58 1 26 54
M  V30 59 1 28 55
M  V30 60 1 33 56
M  V30 61 1 34 57
M  V30 62 1 35 58
M  V30 63 1 36 59
M  V30 64 1 37 60
M  V30 END BOND
M  V30 END CTAB
M  END
>  <Dataset>  (301) 
ChEMBL_Kinases

>  <Ligand_Instance>  (301) 
nan

>  <PDB_ID>  (301) 
nan

>  <Standardized_SMILES>  (301) 
CCOC(=O)c1c(C)nc(NNC(=O)c2cccc3c(=O)c4ccccc4[nH]c23)nc1-c1ccccc1

>  <Name>  (301) 
nan

>  <Pocket>  (301) 
nan

>  <ATP_Site>  (301) 
nan

>  <Peripheral>  (301) 
nan

>  <Num_H_Atoms_ProtBoundConf>  (301) 
nan

>  <Num_Resolved_Atoms>  (301) 
nan

>  <Num_Not_Resolved_Atoms>  (301) 
nan

$$$$
CHEMBL4163621
     RDKit          3D

  0  0  0  0  0  0  0  0  0  0999 V3000
M  V30 BEGIN CTAB
M  V30 COUNTS 52 56 0 0 0
M  V30 BEGIN ATOM
M  V30 1 O -2.446952 -4.297691 1.064523 0
M  V30 2 C -1.193224 -4.162239 0.971308 0
M  V30 3 N -0.716825 -2.855322 0.754547 0
M  V30 4 C -1.410292 -1.635472 0.616021 0
M  V30 5 C -2.767180 -1.447841 0.684998 0
M  V30 6 C -3.398685 -0.231435 0.523986 0
M  V30 7 C -2.553244 0.825975 0.279749 0
M  V30 8 N -2.857470 2.109611 0.073113 0
M  V30 9 N -1.811310 2.866531 -0.139958 0
M  V30 10 C -0.730434 2.036597 -0.072441 0
M  V30 11 N 0.699311 2.165710 -0.217276 0
M  V30 12 C 1.779788 2.653405 0.555029 0
M  V30 13 C 2.709607 1.683610 0.912702 0
M  V30 14 C 3.818322 1.999790 1.661051 0
M  V30 15 C 4.024692 3.321686 2.075600 0
M  V30 16 C 3.116559 4.297873 1.731001 0
M  V30 17 C 3.242556 5.635214 2.087416 0
M  V30 18 C 2.326250 6.605517 1.724861 0
M  V30 19 C 1.223298 6.208666 0.961676 0
M  V30 20 C 1.105464 4.882845 0.613045 0
M  V30 21 C 2.026313 3.936705 0.984286 0
M  V30 22 C -1.180188 0.743533 0.192234 0
M  V30 23 C -0.652452 -0.515079 0.369038 0
M  V30 24 C -0.406571 -5.404441 1.101816 0
M  V30 25 C -1.363773 -6.564571 1.297522 0
M  V30 26 C -2.148322 -6.904600 0.051770 0
M  V30 27 N -1.853300 -5.936248 -0.948278 0
M  V30 28 C -0.490686 -5.965702 -1.358974 0
M  V30 29 C 0.381009 -5.660998 -0.166101 0
M  V30 30 H 0.328440 -2.896351 0.703035 0
M  V30 31 H -3.412013 -2.287653 0.877605 0
M  V30 32 H -4.472331 -0.152851 0.589220 0
M  V30 33 H -3.787886 2.580211 0.059236 0
M  V30 34 H 1.056876 1.804459 -1.141239 0
M  V30 35 H 2.699470 0.636482 0.677424 0
M  V30 36 H 4.606285 1.341280 2.001179 0
M  V30 37 H 4.855959 3.663226 2.663818 0
M  V30 38 H 4.111632 5.916573 2.680715 0
M  V30 39 H 2.422691 7.633601 1.998096 0
M  V30 40 H 0.501686 6.961413 0.673181 0
M  V30 41 H 0.251586 4.638247 0.029371 0
M  V30 42 H 0.445258 -0.602363 0.306444 0
M  V30 43 H 0.310476 -5.401321 1.928647 0
M  V30 44 H -0.856141 -7.472256 1.639735 0
M  V30 45 H -2.085681 -6.248053 2.086455 0
M  V30 46 H -1.823027 -7.903700 -0.358698 0
M  V30 47 H -3.237790 -6.921413 0.232674 0
M  V30 48 H -2.548718 -5.851111 -1.715864 0
M  V30 49 H -0.275389 -6.985756 -1.790913 0
M  V30 50 H -0.314295 -5.268462 -2.213837 0
M  V30 51 H 1.127785 -4.878223 -0.363358 0
M  V30 52 H 0.987205 -6.594149 0.036501 0
M  V30 END ATOM
M  V30 BEGIN BOND
M  V30 1 2 1 2
M  V30 2 1 2 3
M  V30 3 1 3 4
M  V30 4 2 4 5
M  V30 5 1 5 6
M  V30 6 2 6 7
M  V30 7 1 7 8
M  V30 8 1 8 9
M  V30 9 2 9 10
M  V30 10 1 10 11
M  V30 11 1 11 12
M  V30 12 2 12 13
M  V30 13 1 13 14
M  V30 14 2 14 15
M  V30 15 1 15 16
M  V30 16 2 16 17
M  V30 17 1 17 18
M  V30 18 2 18 19
M  V30 19 1 19 20
M  V30 20 2 20 21
M  V30 21 1 10 22
M  V30 22 2 22 23
M  V30 23 1 2 24
M  V30 24 1 24 25
M  V30 25 1 25 26
M  V30 26 1 26 27
M  V30 27 1 27 28
M  V30 28 1 28 29
M  V30 29 1 23 4
M  V30 30 1 29 24
M  V30 31 1 22 7
M  V30 32 1 21 12
M  V30 33 1 21 16
M  V30 34 1 3 30
M  V30 35 1 5 31
M  V30 36 1 6 32
M  V30 37 1 8 33
M  V30 38 1 11 34
M  V30 39 1 13 35
M  V30 40 1 14 36
M  V30 41 1 15 37
M  V30 42 1 17 38
M  V30 43 1 18 39
M  V30 44 1 19 40
M  V30 45 1 20 41
M  V30 46 1 23 42
M  V30 47 1 24 43
M  V30 48 1 25 44
M  V30 49 1 25 45
M  V30 50 1 26 46
M  V30 51 1 26 47
M  V30 52 1 27 48
M  V30 53 1 28 49
M  V30 54 1 28 50
M  V30 55 1 29 51
M  V30 56 1 29 52
M  V30 END BOND
M  V30 END CTAB
M  END
>  <Dataset>  (302) 
ChEMBL_Kinases

>  <Ligand_Instance>  (302) 
nan

>  <PDB_ID>  (302) 
nan

>  <Standardized_SMILES>  (302) 
O=C(Nc1ccc2[nH]nc(Nc3cccc4ccccc34)c2c1)C1CCNCC1

>  <Name>  (302) 
nan

>  <Pocket>  (302) 
nan

>  <ATP_Site>  (302) 
nan

>  <Peripheral>  (302) 
nan

>  <Num_H_Atoms_ProtBoundConf>  (302) 
nan

>  <Num_Resolved_Atoms>  (302) 
nan

>  <Num_Not_Resolved_Atoms>  (302) 
nan

$$$$
CHEMBL4163608
     RDKit          3D

  0  0  0  0  0  0  0  0  0  0999 V3000
M  V30 BEGIN CTAB
M  V30 COUNTS 55 59 0 0 0
M  V30 BEGIN ATOM
M  V30 1 C 2.529838 -5.554327 4.444097 0
M  V30 2 O 2.357751 -4.498378 5.361538 0
M  V30 3 C 2.380903 -3.188839 4.941814 0
M  V30 4 C 2.219790 -2.070005 5.750864 0
M  V30 5 C 2.244139 -0.776508 5.322174 0
M  V30 6 C 2.440266 -0.486769 3.985933 0
M  V30 7 N 2.464754 0.752023 3.521768 0
M  V30 8 C 2.647858 0.937704 2.255987 0
M  V30 9 N 2.716141 2.002889 1.343252 0
M  V30 10 C 3.019419 1.871343 -0.017403 0
M  V30 11 O 3.267064 0.700575 -0.467458 0
M  V30 12 C 3.095854 2.930150 -1.052108 0
M  V30 13 S 1.580942 2.943370 -2.055420 0
M  V30 14 C 0.149378 3.465973 -1.112304 0
M  V30 15 N -0.616399 4.505289 -0.758279 0
M  V30 16 N -1.567850 4.103848 0.022292 0
M  V30 17 C -1.429633 2.755159 0.193255 0
M  V30 18 C -2.493424 2.194996 1.088452 0
M  V30 19 O -3.600074 1.679387 0.396660 0
M  V30 20 C -3.555762 0.582138 -0.438115 0
M  V30 21 C -4.667487 0.137664 -1.116002 0
M  V30 22 C -4.700248 -0.951746 -1.962121 0
M  V30 23 C -3.531670 -1.679081 -2.167195 0
M  V30 24 C -2.365086 -1.285723 -1.513072 0
M  V30 25 C -2.409973 -0.184942 -0.680716 0
M  V30 26 C -1.048973 -1.963224 -1.644854 0
M  V30 27 C -0.932874 -2.836444 -2.845719 0
M  V30 28 C -2.078644 -2.622678 -3.834417 0
M  V30 29 C -3.347936 -2.884801 -3.017154 0
M  V30 30 O -0.380288 2.439671 -0.515331 0
M  V30 31 S 2.821942 -0.825124 1.533030 0
M  V30 32 C 2.607828 -1.680773 3.152785 0
M  V30 33 C 2.580642 -2.965153 3.604287 0
M  V30 34 H 1.663144 -5.587421 3.722598 0
M  V30 35 H 2.601471 -6.525720 4.968591 0
M  V30 36 H 3.493955 -5.428265 3.882186 0
M  V30 37 H 2.066445 -2.355340 6.805171 0
M  V30 38 H 2.097712 -0.056033 6.128801 0
M  V30 39 H 2.535585 2.943635 1.683717 0
M  V30 40 H 3.924479 2.681153 -1.740666 0
M  V30 41 H 3.340285 3.923989 -0.627647 0
M  V30 42 H -2.771431 2.872077 1.915223 0
M  V30 43 H -2.036431 1.302574 1.639504 0
M  V30 44 H -5.602332 0.681514 -0.978958 0
M  V30 45 H -5.553126 -1.316358 -2.499161 0
M  V30 46 H -1.503635 0.095952 -0.166373 0
M  V30 47 H -0.226735 -1.191153 -1.636315 0
M  V30 48 H -0.903442 -2.566669 -0.727579 0
M  V30 49 H 0.062154 -2.660930 -3.321981 0
M  V30 50 H -0.971341 -3.927926 -2.572015 0
M  V30 51 H -2.069869 -1.548846 -4.106846 0
M  V30 52 H -1.963840 -3.308529 -4.676674 0
M  V30 53 H -4.152669 -3.081029 -3.720462 0
M  V30 54 H -3.210234 -3.792780 -2.389764 0
M  V30 55 H 2.726751 -3.642493 2.805374 0
M  V30 END ATOM
M  V30 BEGIN BOND
M  V30 1 1 1 2
M  V30 2 1 2 3
M  V30 3 2 3 4
M  V30 4 1 4 5
M  V30 5 2 5 6
M  V30 6 1 6 7
M  V30 7 2 7 8
M  V30 8 1 8 9
M  V30 9 1 9 10
M  V30 10 2 10 11
M  V30 11 1 10 12
M  V30 12 1 12 13
M  V30 13 1 13 14
M  V30 14 2 14 15
M  V30 15 1 15 16
M  V30 16 2 16 17
M  V30 17 1 17 18
M  V30 18 1 18 19
M  V30 19 1 19 20
M  V30 20 2 20 21
M  V30 21 1 21 22
M  V30 22 2 22 23
M  V30 23 1 23 24
M  V30 24 2 24 25
M  V30 25 1 24 26
M  V30 26 1 26 27
M  V30 27 1 27 28
M  V30 28 1 28 29
M  V30 29 1 17 30
M  V30 30 1 8 31
M  V30 31 1 31 32
M  V30 32 2 32 33
M  V30 33 1 33 3
M  V30 34 1 32 6
M  V30 35 1 30 14
M  V30 36 1 25 20
M  V30 37 1 29 23
M  V30 38 1 1 34
M  V30 39 1 1 35
M  V30 40 1 1 36
M  V30 41 1 4 37
M  V30 42 1 5 38
M  V30 43 1 9 39
M  V30 44 1 12 40
M  V30 45 1 12 41
M  V30 46 1 18 42
M  V30 47 1 18 43
M  V30 48 1 21 44
M  V30 49 1 22 45
M  V30 50 1 25 46
M  V30 51 1 26 47
M  V30 52 1 26 48
M  V30 53 1 27 49
M  V30 54 1 27 50
M  V30 55 1 28 51
M  V30 56 1 28 52
M  V30 57 1 29 53
M  V30 58 1 29 54
M  V30 59 1 33 55
M  V30 END BOND
M  V30 END CTAB
M  END
>  <Dataset>  (303) 
ChEMBL_Kinases

>  <Ligand_Instance>  (303) 
nan

>  <PDB_ID>  (303) 
nan

>  <Standardized_SMILES>  (303) 
COc1ccc2nc(NC(=O)CSc3nnc(COc4ccc5c(c4)CCCC5)o3)sc2c1

>  <Name>  (303) 
nan

>  <Pocket>  (303) 
nan

>  <ATP_Site>  (303) 
nan

>  <Peripheral>  (303) 
nan

>  <Num_H_Atoms_ProtBoundConf>  (303) 
nan

>  <Num_Resolved_Atoms>  (303) 
nan

>  <Num_Not_Resolved_Atoms>  (303) 
nan

$$$$
CHEMBL4163577
     RDKit          3D

  0  0  0  0  0  0  0  0  0  0999 V3000
M  V30 BEGIN CTAB
M  V30 COUNTS 69 73 0 0 0
M  V30 BEGIN ATOM
M  V30 1 C 4.455171 0.307832 0.101975 0
M  V30 2 C 3.576032 -0.034302 -1.109079 0
M  V30 3 C 3.495269 -1.536133 -1.157203 0
M  V30 4 C 4.122463 0.585368 -2.355432 0
M  V30 5 C 4.165025 2.041577 -2.204672 0
M  V30 6 C 5.339851 2.691441 -1.894191 0
M  V30 7 C 5.356386 4.055910 -1.744938 0
M  V30 8 C 4.246522 4.861877 -1.886692 0
M  V30 9 C 3.072989 4.166174 -2.202199 0
M  V30 10 C 3.019974 2.791502 -2.359932 0
M  V30 11 N 1.735662 2.299254 -2.695690 0
M  V30 12 C 0.518005 1.850201 -2.166658 0
M  V30 13 O 0.242726 1.773937 -0.959844 0
M  V30 14 N -0.469294 1.453806 -3.106576 0
M  V30 15 C -1.709643 0.994407 -2.596902 0
M  V30 16 C -1.750040 -0.373625 -2.375406 0
M  V30 17 C -2.898096 -0.955017 -1.885238 0
M  V30 18 C -4.049353 -0.260610 -1.587058 0
M  V30 19 C -5.332498 -0.776437 -1.059753 0
M  V30 20 C -5.441302 -0.750681 0.420699 0
M  V30 21 N -4.455539 -1.528293 1.095161 0
M  V30 22 C -4.526313 -1.541642 2.513245 0
M  V30 23 N -5.463296 -0.868357 3.196944 0
M  V30 24 C -5.539107 -0.878744 4.536307 0
M  V30 25 N -4.635170 -1.597853 5.258471 0
M  V30 26 C -3.674532 -2.290493 4.600858 0
M  V30 27 O -2.719859 -3.035100 5.065035 0
M  V30 28 C -1.983230 -3.543829 4.116755 0
M  V30 29 C -0.853876 -4.411417 4.392406 0
M  V30 30 C -0.026464 -4.983513 3.457223 0
M  V30 31 C 1.041582 -5.806918 3.747579 0
M  V30 32 C 1.326142 -6.096701 5.064356 0
M  V30 33 C 0.530108 -5.551017 6.044970 0
M  V30 34 C -0.520089 -4.737212 5.689136 0
M  V30 35 C -2.521895 -3.077402 2.941812 0
M  V30 36 Cl -1.941042 -3.436193 1.354388 0
M  V30 37 C -3.604257 -2.274139 3.225145 0
M  V30 38 C -3.984908 1.120763 -1.818739 0
M  V30 39 C -2.844554 1.723054 -2.309588 0
M  V30 40 H 3.868027 -0.004062 0.992995 0
M  V30 41 H 5.439278 -0.193159 0.024570 0
M  V30 42 H 4.532043 1.421155 0.193743 0
M  V30 43 H 2.583049 0.369487 -0.849646 0
M  V30 44 H 4.383607 -1.983756 -1.666013 0
M  V30 45 H 3.536675 -1.918568 -0.100598 0
M  V30 46 H 2.549949 -1.929642 -1.570129 0
M  V30 47 H 5.171990 0.219207 -2.455386 0
M  V30 48 H 3.607809 0.247487 -3.273945 0
M  V30 49 H 6.273744 2.147204 -1.760706 0
M  V30 50 H 6.301604 4.530716 -1.499717 0
M  V30 51 H 4.248605 5.933994 -1.771124 0
M  V30 52 H 2.194990 4.815177 -2.312646 0
M  V30 53 H 1.887520 2.332910 -3.749706 0
M  V30 54 H -0.413732 1.451216 -4.157227 0
M  V30 55 H -0.906733 -1.042238 -2.569726 0
M  V30 56 H -2.940988 -2.020184 -1.715457 0
M  V30 57 H -6.157332 -0.147642 -1.467445 0
M  V30 58 H -5.508302 -1.833379 -1.428329 0
M  V30 59 H -6.439054 -1.217978 0.672109 0
M  V30 60 H -5.511687 0.278125 0.833784 0
M  V30 61 H -3.783976 -2.009127 0.489325 0
M  V30 62 H -6.350427 -0.286469 4.932384 0
M  V30 63 H -0.181931 -4.807005 2.425762 0
M  V30 64 H 1.659075 -6.229932 2.968690 0
M  V30 65 H 2.158248 -6.739165 5.314128 0
M  V30 66 H 0.759090 -5.782120 7.067927 0
M  V30 67 H -1.089746 -4.354109 6.524651 0
M  V30 68 H -4.810443 1.795024 -1.631671 0
M  V30 69 H -2.751671 2.779584 -2.502945 0
M  V30 END ATOM
M  V30 BEGIN BOND
M  V30 1 1 1 2
M  V30 2 1 2 3
M  V30 3 1 2 4
M  V30 4 1 4 5
M  V30 5 2 5 6
M  V30 6 1 6 7
M  V30 7 2 7 8
M  V30 8 1 8 9
M  V30 9 2 9 10
M  V30 10 1 10 11
M  V30 11 1 11 12
M  V30 12 2 12 13
M  V30 13 1 12 14
M  V30 14 1 14 15
M  V30 15 2 15 16
M  V30 16 1 16 17
M  V30 17 2 17 18
M  V30 18 1 18 19
M  V30 19 1 19 20
M  V30 20 1 20 21
M  V30 21 1 21 22
M  V30 22 2 22 23
M  V30 23 1 23 24
M  V30 24 2 24 25
M  V30 25 1 25 26
M  V30 26 1 26 27
M  V30 27 1 27 28
M  V30 28 1 28 29
M  V30 29 2 29 30
M  V30 30 1 30 31
M  V30 31 2 31 32
M  V30 32 1 32 33
M  V30 33 2 33 34
M  V30 34 2 28 35
M  V30 35 1 35 36
M  V30 36 1 35 37
M  V30 37 1 18 38
M  V30 38 2 38 39
M  V30 39 1 10 5
M  V30 40 1 39 15
M  V30 41 1 37 22
M  V30 42 2 37 26
M  V30 43 1 34 29
M  V30 44 1 1 40
M  V30 45 1 1 41
M  V30 46 1 1 42
M  V30 47 1 2 43
M  V30 48 1 3 44
M  V30 49 1 3 45
M  V30 50 1 3 46
M  V30 51 1 4 47
M  V30 52 1 4 48
M  V30 53 1 6 49
M  V30 54 1 7 50
M  V30 55 1 8 51
M  V30 56 1 9 52
M  V30 57 1 11 53
M  V30 58 1 14 54
M  V30 59 1 16 55
M  V30 60 1 17 56
M  V30 61 1 19 57
M  V30 62 1 19 58
M  V30 63 1 20 59
M  V30 64 1 20 60
M  V30 65 1 21 61
M  V30 66 1 24 62
M  V30 67 1 30 63
M  V30 68 1 31 64
M  V30 69 1 32 65
M  V30 70 1 33 66
M  V30 71 1 34 67
M  V30 72 1 38 68
M  V30 73 1 39 69
M  V30 END BOND
M  V30 END CTAB
M  END
>  <Dataset>  (304) 
ChEMBL_Kinases

>  <Ligand_Instance>  (304) 
nan

>  <PDB_ID>  (304) 
nan

>  <Standardized_SMILES>  (304) 
CC(C)Cc1ccccc1NC(=O)Nc1ccc(CCNc2ncnc3oc(-c4ccccc4)c(Cl)c23)cc1

>  <Name>  (304) 
nan

>  <Pocket>  (304) 
nan

>  <ATP_Site>  (304) 
nan

>  <Peripheral>  (304) 
nan

>  <Num_H_Atoms_ProtBoundConf>  (304) 
nan

>  <Num_Resolved_Atoms>  (304) 
nan

>  <Num_Not_Resolved_Atoms>  (304) 
nan

$$$$
CHEMBL4788432
     RDKit          3D

  0  0  0  0  0  0  0  0  0  0999 V3000
M  V30 BEGIN CTAB
M  V30 COUNTS 83 88 0 0 0
M  V30 BEGIN ATOM
M  V30 1 C 2.212134 -4.558400 5.582975 0
M  V30 2 O 1.111817 -4.180078 4.823250 0
M  V30 3 C 0.830448 -2.917197 4.326127 0
M  V30 4 N 1.699147 -1.947235 4.596915 0
M  V30 5 C 1.370204 -0.754709 4.088992 0
M  V30 6 C 2.023141 0.582237 4.130058 0
M  V30 7 C 3.207221 0.658751 4.829671 0
M  V30 8 C 3.813213 1.897928 4.865650 0
M  V30 9 N 3.215264 2.945031 4.220603 0
M  V30 10 C 2.057704 2.805841 3.553776 0
M  V30 11 N 1.447619 3.927820 2.881626 0
M  V30 12 C 0.553768 4.657026 3.691366 0
M  V30 13 O 0.454684 4.193855 4.849810 0
M  V30 14 C -0.134592 5.840634 3.092842 0
M  V30 15 C -1.632479 5.896484 3.443874 0
M  V30 16 C -0.667191 6.910727 3.960236 0
M  V30 17 C 1.393638 1.603449 3.472894 0
M  V30 18 S -0.267277 -1.040398 3.178440 0
M  V30 19 C -0.315160 -2.788047 3.603169 0
M  V30 20 C -1.321722 -3.730560 3.239084 0
M  V30 21 O -1.219167 -4.926685 3.610438 0
M  V30 22 N -2.395700 -3.229802 2.460383 0
M  V30 23 C -3.479377 -4.055149 2.011998 0
M  V30 24 C -2.920092 -5.148889 1.136870 0
M  V30 25 C -2.192727 -4.596621 -0.058698 0
M  V30 26 C -1.622240 -5.669898 -0.957905 0
M  V30 27 N -0.924412 -5.079705 -2.089314 0
M  V30 28 C -0.288574 -5.825764 -3.109491 0
M  V30 29 O -0.388111 -7.074281 -2.943408 0
M  V30 30 C 0.394879 -5.070489 -4.213334 0
M  V30 31 O 0.271431 -3.677847 -4.017079 0
M  V30 32 C 0.809458 -2.746070 -4.884422 0
M  V30 33 C 1.505612 -3.170861 -6.007760 0
M  V30 34 C 2.052713 -2.242400 -6.890038 0
M  V30 35 C 1.875637 -0.894482 -6.603930 0
M  V30 36 C 1.177845 -0.510058 -5.477951 0
M  V30 37 C 0.633359 -1.423435 -4.599738 0
M  V30 38 C -0.036066 -0.717196 -3.516579 0
M  V30 39 O -0.633116 -1.270227 -2.552079 0
M  V30 40 N 0.121090 0.674256 -3.768423 0
M  V30 41 C -0.404965 1.713399 -2.913381 0
M  V30 42 C 0.669517 2.623080 -2.370152 0
M  V30 43 C 0.071311 3.549555 -1.359378 0
M  V30 44 C -1.334064 3.903181 -1.598559 0
M  V30 45 O -1.895523 4.533210 -0.662585 0
M  V30 46 N -2.019885 3.555127 -2.815542 0
M  V30 47 C -1.385619 2.566035 -3.648085 0
M  V30 48 O -1.729144 2.547418 -4.853954 0
M  V30 49 C 0.864999 0.822372 -4.970161 0
M  V30 50 O 1.143966 1.962931 -5.418947 0
M  V30 51 H 2.292824 -3.974665 6.520710 0
M  V30 52 H 2.290270 -5.645901 5.724157 0
M  V30 53 H 3.121101 -4.256871 4.992828 0
M  V30 54 H 3.591090 -0.236689 5.302718 0
M  V30 55 H 4.737257 1.970214 5.408452 0
M  V30 56 H 1.635202 4.197870 1.881194 0
M  V30 57 H 0.084804 6.100784 2.032203 0
M  V30 58 H -2.031430 5.198169 4.186108 0
M  V30 59 H -2.340927 6.130845 2.636911 0
M  V30 60 H -0.407210 6.941223 5.042831 0
M  V30 61 H -0.773432 7.921890 3.511195 0
M  V30 62 H 0.462015 1.479996 2.939012 0
M  V30 63 H -2.442553 -2.205451 2.172536 0
M  V30 64 H -4.275416 -3.486594 1.523214 0
M  V30 65 H -3.924320 -4.580866 2.909697 0
M  V30 66 H -2.271147 -5.792816 1.747886 0
M  V30 67 H -3.783083 -5.780268 0.800548 0
M  V30 68 H -2.927943 -3.973693 -0.632071 0
M  V30 69 H -1.374292 -3.926213 0.197026 0
M  V30 70 H -2.489087 -6.242753 -1.350625 0
M  V30 71 H -1.007333 -6.374240 -0.397178 0
M  V30 72 H -0.893765 -4.031943 -2.146226 0
M  V30 73 H 1.435760 -5.426375 -4.253960 0
M  V30 74 H -0.106436 -5.330858 -5.148757 0
M  V30 75 H 1.659197 -4.211814 -6.255160 0
M  V30 76 H 2.596344 -2.563039 -7.766892 0
M  V30 77 H 2.279298 -0.117554 -7.255078 0
M  V30 78 H -0.938798 1.276813 -2.046317 0
M  V30 79 H 1.105854 3.196927 -3.234159 0
M  V30 80 H 1.479889 2.039964 -1.861298 0
M  V30 81 H 0.141116 3.056875 -0.354195 0
M  V30 82 H 0.703789 4.473259 -1.241435 0
M  V30 83 H -2.926800 4.031237 -3.026629 0
M  V30 END ATOM
M  V30 BEGIN BOND
M  V30 1 1 1 2
M  V30 2 1 2 3
M  V30 3 1 3 4
M  V30 4 2 4 5
M  V30 5 1 5 6
M  V30 6 2 6 7
M  V30 7 1 7 8
M  V30 8 2 8 9
M  V30 9 1 9 10
M  V30 10 1 10 11
M  V30 11 1 11 12
M  V30 12 2 12 13
M  V30 13 1 12 14
M  V30 14 1 14 15
M  V30 15 1 15 16
M  V30 16 2 10 17
M  V30 17 1 5 18
M  V30 18 1 18 19
M  V30 19 1 19 20
M  V30 20 2 20 21
M  V30 21 1 20 22
M  V30 22 1 22 23
M  V30 23 1 23 24
M  V30 24 1 24 25
M  V30 25 1 25 26
M  V30 26 1 26 27
M  V30 27 1 27 28
M  V30 28 2 28 29
M  V30 29 1 28 30
M  V30 30 1 30 31
M  V30 31 1 31 32
M  V30 32 2 32 33
M  V30 33 1 33 34
M  V30 34 2 34 35
M  V30 35 1 35 36
M  V30 36 2 36 37
M  V30 37 1 37 38
M  V30 38 2 38 39
M  V30 39 1 38 40
M  V30 40 1 40 41
M  V30 41 1 41 42
M  V30 42 1 42 43
M  V30 43 1 43 44
M  V30 44 2 44 45
M  V30 45 1 44 46
M  V30 46 1 46 47
M  V30 47 2 47 48
M  V30 48 1 40 49
M  V30 49 2 49 50
M  V30 50 2 19 3
M  V30 51 1 37 32
M  V30 52 1 47 41
M  V30 53 1 17 6
M  V30 54 1 49 36
M  V30 55 1 16 14
M  V30 56 1 1 51
M  V30 57 1 1 52
M  V30 58 1 1 53
M  V30 59 1 7 54
M  V30 60 1 8 55
M  V30 61 1 11 56
M  V30 62 1 14 57
M  V30 63 1 15 58
M  V30 64 1 15 59
M  V30 65 1 16 60
M  V30 66 1 16 61
M  V30 67 1 17 62
M  V30 68 1 22 63
M  V30 69 1 23 64
M  V30 70 1 23 65
M  V30 71 1 24 66
M  V30 72 1 24 67
M  V30 73 1 25 68
M  V30 74 1 25 69
M  V30 75 1 26 70
M  V30 76 1 26 71
M  V30 77 1 27 72
M  V30 78 1 30 73
M  V30 79 1 30 74
M  V30 80 1 33 75
M  V30 81 1 34 76
M  V30 82 1 35 77
M  V30 83 1 41 78
M  V30 84 1 42 79
M  V30 85 1 42 80
M  V30 86 1 43 81
M  V30 87 1 43 82
M  V30 88 1 46 83
M  V30 END BOND
M  V30 END CTAB
M  END
>  <Dataset>  (305) 
ChEMBL_Kinases

>  <Ligand_Instance>  (305) 
nan

>  <PDB_ID>  (305) 
nan

>  <Standardized_SMILES>  (305) 
COc1nc(-c2ccnc(NC(=O)C3CC3)c2)sc1C(=O)NCCCCNC(=O)COc1cccc2c1C(=O)N(C1CCC(=O)NC1=O)C2=O

>  <Name>  (305) 
nan

>  <Pocket>  (305) 
nan

>  <ATP_Site>  (305) 
nan

>  <Peripheral>  (305) 
nan

>  <Num_H_Atoms_ProtBoundConf>  (305) 
nan

>  <Num_Resolved_Atoms>  (305) 
nan

>  <Num_Not_Resolved_Atoms>  (305) 
nan

$$$$
CHEMBL4163479
     RDKit          3D

  0  0  0  0  0  0  0  0  0  0999 V3000
M  V30 BEGIN CTAB
M  V30 COUNTS 40 44 0 0 0
M  V30 BEGIN ATOM
M  V30 1 O 0.991714 -2.124775 3.055206 0
M  V30 2 C 0.031482 -2.912439 2.896610 0
M  V30 3 N -0.817846 -2.746647 1.791698 0
M  V30 4 C -0.778930 -1.783424 0.756522 0
M  V30 5 C 0.132512 -0.766973 0.606282 0
M  V30 6 C 0.148173 0.159715 -0.413164 0
M  V30 7 C 1.171509 1.199289 -0.472827 0
M  V30 8 C 2.434787 0.680203 -0.245748 0
M  V30 9 C 3.547216 1.523145 -0.266068 0
M  V30 10 C 3.334453 2.863852 -0.516650 0
M  V30 11 C 2.082717 3.398068 -0.744944 0
M  V30 12 N 1.554547 4.612126 -1.007828 0
M  V30 13 C 0.206148 4.528440 -1.141413 0
M  V30 14 C -0.187008 3.197348 -0.959721 0
M  V30 15 C 1.005765 2.547374 -0.719391 0
M  V30 16 C -0.833903 0.071666 -1.377820 0
M  V30 17 C -1.769417 -0.936425 -1.262931 0
M  V30 18 N -2.820833 -1.263381 -2.035310 0
M  V30 19 N -3.455897 -2.323621 -1.536875 0
M  V30 20 C -2.816993 -2.719069 -0.403023 0
M  V30 21 C -1.742363 -1.840191 -0.222822 0
M  V30 22 C -0.103299 -3.966750 3.929877 0
M  V30 23 C 0.405018 -3.682774 5.291835 0
M  V30 24 C 1.208243 -4.610676 4.424409 0
M  V30 25 H -1.565219 -3.471038 1.792756 0
M  V30 26 H 0.918685 -0.656835 1.334073 0
M  V30 27 H 2.681347 -0.357846 -0.042716 0
M  V30 28 H 4.580773 1.253356 -0.106551 0
M  V30 29 H 4.154308 3.596667 -0.550591 0
M  V30 30 H 2.158758 5.472174 -1.086881 0
M  V30 31 H -0.436217 5.355602 -1.351467 0
M  V30 32 H -1.188103 2.791966 -1.000082 0
M  V30 33 H -0.897003 0.744191 -2.200826 0
M  V30 34 H -3.116347 -0.769108 -2.907992 0
M  V30 35 H -3.077897 -3.559274 0.254317 0
M  V30 36 H -0.952192 -4.665783 3.791278 0
M  V30 37 H -0.141790 -4.083700 6.162812 0
M  V30 38 H 0.845035 -2.685627 5.487530 0
M  V30 39 H 2.157905 -4.243896 3.971833 0
M  V30 40 H 1.153643 -5.673377 4.732433 0
M  V30 END ATOM
M  V30 BEGIN BOND
M  V30 1 2 1 2
M  V30 2 1 2 3
M  V30 3 1 3 4
M  V30 4 2 4 5
M  V30 5 1 5 6
M  V30 6 1 6 7
M  V30 7 2 7 8
M  V30 8 1 8 9
M  V30 9 2 9 10
M  V30 10 1 10 11
M  V30 11 1 11 12
M  V30 12 1 12 13
M  V30 13 2 13 14
M  V30 14 1 14 15
M  V30 15 2 6 16
M  V30 16 1 16 17
M  V30 17 1 17 18
M  V30 18 1 18 19
M  V30 19 2 19 20
M  V30 20 1 20 21
M  V30 21 1 2 22
M  V30 22 1 22 23
M  V30 23 1 23 24
M  V30 24 1 21 4
M  V30 25 1 24 22
M  V30 26 1 15 7
M  V30 27 2 21 17
M  V30 28 2 15 11
M  V30 29 1 3 25
M  V30 30 1 5 26
M  V30 31 1 8 27
M  V30 32 1 9 28
M  V30 33 1 10 29
M  V30 34 1 12 30
M  V30 35 1 13 31
M  V30 36 1 14 32
M  V30 37 1 16 33
M  V30 38 1 18 34
M  V30 39 1 20 35
M  V30 40 1 22 36
M  V30 41 1 23 37
M  V30 42 1 23 38
M  V30 43 1 24 39
M  V30 44 1 24 40
M  V30 END BOND
M  V30 END CTAB
M  END
>  <Dataset>  (306) 
ChEMBL_Kinases

>  <Ligand_Instance>  (306) 
nan

>  <PDB_ID>  (306) 
nan

>  <Standardized_SMILES>  (306) 
O=C(Nc1cc(-c2cccc3[nH]ccc23)cc2[nH]ncc12)C1CC1

>  <Name>  (306) 
nan

>  <Pocket>  (306) 
nan

>  <ATP_Site>  (306) 
nan

>  <Peripheral>  (306) 
nan

>  <Num_H_Atoms_ProtBoundConf>  (306) 
nan

>  <Num_Resolved_Atoms>  (306) 
nan

>  <Num_Not_Resolved_Atoms>  (306) 
nan

$$$$
CHEMBL4163357
     RDKit          3D

  0  0  0  0  0  0  0  0  0  0999 V3000
M  V30 BEGIN CTAB
M  V30 COUNTS 45 48 0 0 0
M  V30 BEGIN ATOM
M  V30 1 C -1.511893 -6.213155 2.102050 0
M  V30 2 O -0.167792 -6.258878 2.579710 0
M  V30 3 C 0.676437 -5.156912 2.465358 0
M  V30 4 C 0.199277 -3.982057 1.870862 0
M  V30 5 C 0.996552 -2.865323 1.735033 0
M  V30 6 C 0.394894 -1.696884 1.099939 0
M  V30 7 C 0.826289 -0.457717 1.494223 0
M  V30 8 N 0.276564 0.618838 0.913980 0
M  V30 9 C -0.669810 0.579257 -0.029468 0
M  V30 10 C -1.251553 1.646522 -0.641357 0
M  V30 11 N -1.025485 3.013800 -0.453779 0
M  V30 12 C -1.743178 4.026232 -1.206944 0
M  V30 13 C -0.797983 5.195090 -1.386820 0
M  V30 14 O 0.516378 4.721344 -1.595289 0
M  V30 15 C 1.015635 4.240009 -0.372412 0 CFG=2
M  V30 16 C 2.027621 3.140841 -0.612138 0
M  V30 17 C -0.101684 3.635683 0.460817 0
M  V30 18 S -2.403817 1.046415 -1.774184 0
M  V30 19 N -2.094846 -0.764280 -1.412852 0
M  V30 20 C -1.094907 -0.649774 -0.417914 0
M  V30 21 C -0.578122 -1.800378 0.131723 0
M  V30 22 C 2.312453 -2.879699 2.191901 0
M  V30 23 C 2.780907 -4.040370 2.778239 0
M  V30 24 C 1.983900 -5.159453 2.914949 0
M  V30 25 N 2.457664 -6.357589 3.516657 0
M  V30 26 H -1.976783 -5.352406 2.643070 0
M  V30 27 H -1.479916 -6.004124 1.019258 0
M  V30 28 H -1.988039 -7.180824 2.367013 0
M  V30 29 H -0.827968 -4.010810 1.528608 0
M  V30 30 H 1.602699 -0.354837 2.265978 0
M  V30 31 H -2.107918 3.635043 -2.178575 0
M  V30 32 H -2.628023 4.343340 -0.589104 0
M  V30 33 H -1.096141 5.740882 -2.307676 0
M  V30 34 H -0.768894 5.837258 -0.506577 0
M  V30 35 H 1.449609 5.116118 0.142940 0
M  V30 36 H 2.157021 2.619248 0.376252 0
M  V30 37 H 3.035463 3.536638 -0.849175 0
M  V30 38 H 1.639319 2.425907 -1.335904 0
M  V30 39 H 0.313355 2.963382 1.230257 0
M  V30 40 H -0.583478 4.488558 1.010342 0
M  V30 41 H -0.854940 -2.802185 -0.114823 0
M  V30 42 H 2.898819 -1.981073 2.063489 0
M  V30 43 H 3.820173 -4.061634 3.142588 0
M  V30 44 H 3.163805 -6.622069 4.209040 0
M  V30 45 H 2.037173 -7.290975 3.250858 0
M  V30 END ATOM
M  V30 BEGIN BOND
M  V30 1 1 1 2
M  V30 2 1 2 3
M  V30 3 2 3 4
M  V30 4 1 4 5
M  V30 5 1 5 6
M  V30 6 1 6 7
M  V30 7 2 7 8
M  V30 8 1 8 9
M  V30 9 2 9 10
M  V30 10 1 10 11
M  V30 11 1 11 12
M  V30 12 1 12 13
M  V30 13 1 13 14
M  V30 14 1 14 15
M  V30 15 1 15 16
M  V30 16 1 15 17
M  V30 17 1 10 18
M  V30 18 1 18 19
M  V30 19 2 19 20
M  V30 20 1 20 21
M  V30 21 2 5 22
M  V30 22 1 22 23
M  V30 23 2 23 24
M  V30 24 1 24 25
M  V30 25 1 24 3
M  V30 26 2 21 6
M  V30 27 1 20 9
M  V30 28 1 17 11
M  V30 29 1 1 26
M  V30 30 1 1 27
M  V30 31 1 1 28
M  V30 32 1 4 29
M  V30 33 1 7 30
M  V30 34 1 12 31
M  V30 35 1 12 32
M  V30 36 1 13 33
M  V30 37 1 13 34
M  V30 38 1 15 35 CFG=1
M  V30 39 1 16 36
M  V30 40 1 16 37
M  V30 41 1 16 38
M  V30 42 1 17 39
M  V30 43 1 17 40
M  V30 44 1 21 41
M  V30 45 1 22 42
M  V30 46 1 23 43
M  V30 47 1 25 44
M  V30 48 1 25 45
M  V30 END BOND
M  V30 END CTAB
M  END
>  <Dataset>  (307) 
ChEMBL_Kinases

>  <Ligand_Instance>  (307) 
nan

>  <PDB_ID>  (307) 
nan

>  <Standardized_SMILES>  (307) 
COc1cc(-c2cnc3c(N4CCO[C@H](C)C4)snc3c2)ccc1N

>  <Name>  (307) 
nan

>  <Pocket>  (307) 
nan

>  <ATP_Site>  (307) 
nan

>  <Peripheral>  (307) 
nan

>  <Num_H_Atoms_ProtBoundConf>  (307) 
nan

>  <Num_Resolved_Atoms>  (307) 
nan

>  <Num_Not_Resolved_Atoms>  (307) 
nan

$$$$
CHEMBL4163198
     RDKit          3D

  0  0  0  0  0  0  0  0  0  0999 V3000
M  V30 BEGIN CTAB
M  V30 COUNTS 51 55 0 0 0
M  V30 BEGIN ATOM
M  V30 1 O -2.055113 -3.607205 1.274818 0
M  V30 2 C -1.013612 -4.315459 1.058604 0
M  V30 3 N 0.284892 -3.949499 1.475893 0
M  V30 4 C 0.487494 -2.729937 2.180415 0
M  V30 5 C 0.404914 -2.760842 3.542346 0
M  V30 6 C 0.592453 -1.611277 4.274576 0
M  V30 7 C 0.867519 -0.395024 3.683466 0
M  V30 8 N 1.087487 0.840855 4.150134 0
M  V30 9 N 1.297050 1.595001 3.089971 0
M  V30 10 C 1.229796 0.935003 1.946299 0
M  V30 11 N 1.387727 1.348584 0.596811 0
M  V30 12 C 1.655190 2.659639 0.122987 0
M  V30 13 C 2.838354 2.808568 -0.576367 0
M  V30 14 C 3.283412 4.010635 -1.123489 0
M  V30 15 C 2.479251 5.130295 -0.950691 0
M  V30 16 C 1.313770 4.993555 -0.264433 0
M  V30 17 C 0.489153 6.082127 -0.075814 0
M  V30 18 C -0.704985 5.970773 0.616504 0
M  V30 19 C -1.082923 4.745833 1.131091 0
M  V30 20 C -0.301082 3.611811 0.977761 0
M  V30 21 C 0.874612 3.785131 0.280771 0
M  V30 22 C 0.950822 -0.364443 2.308102 0
M  V30 23 C 0.761337 -1.526529 1.565315 0
M  V30 24 C -1.311639 -5.583730 0.311434 0
M  V30 25 C -2.800917 -5.559600 0.074831 0
M  V30 26 C -3.054687 -4.828737 -1.237246 0
M  V30 27 O -2.535862 -5.661951 -2.216002 0
M  V30 28 C -1.171787 -5.571813 -2.219804 0
M  V30 29 C -0.503050 -5.751344 -0.915535 0
M  V30 30 H 1.089690 -4.588278 1.258360 0
M  V30 31 H 0.194643 -3.659077 4.103576 0
M  V30 32 H 0.530617 -1.619033 5.353997 0
M  V30 33 H 1.094749 1.157848 5.144931 0
M  V30 34 H 1.314916 0.682720 -0.199956 0
M  V30 35 H 3.538516 1.995015 -0.766990 0
M  V30 36 H 4.191716 4.126806 -1.660850 0
M  V30 37 H 2.747376 6.114352 -1.344587 0
M  V30 38 H 0.726272 7.069661 -0.453521 0
M  V30 39 H -1.374751 6.802011 0.782901 0
M  V30 40 H -2.023655 4.662947 1.675515 0
M  V30 41 H -0.599479 2.664273 1.374466 0
M  V30 42 H 0.822690 -1.522632 0.481722 0
M  V30 43 H -1.103455 -6.389471 1.054797 0
M  V30 44 H -3.352553 -5.075057 0.902691 0
M  V30 45 H -3.216811 -6.580531 -0.032078 0
M  V30 46 H -4.155700 -4.678502 -1.384232 0
M  V30 47 H -2.554096 -3.836019 -1.211115 0
M  V30 48 H -0.911675 -4.572938 -2.651252 0
M  V30 49 H -0.804533 -6.295562 -2.999122 0
M  V30 50 H 0.410092 -5.094576 -0.880875 0
M  V30 51 H -0.066443 -6.791084 -0.906469 0
M  V30 END ATOM
M  V30 BEGIN BOND
M  V30 1 2 1 2
M  V30 2 1 2 3
M  V30 3 1 3 4
M  V30 4 2 4 5
M  V30 5 1 5 6
M  V30 6 2 6 7
M  V30 7 1 7 8
M  V30 8 1 8 9
M  V30 9 2 9 10
M  V30 10 1 10 11
M  V30 11 1 11 12
M  V30 12 2 12 13
M  V30 13 1 13 14
M  V30 14 2 14 15
M  V30 15 1 15 16
M  V30 16 2 16 17
M  V30 17 1 17 18
M  V30 18 2 18 19
M  V30 19 1 19 20
M  V30 20 2 20 21
M  V30 21 1 10 22
M  V30 22 2 22 23
M  V30 23 1 2 24
M  V30 24 1 24 25
M  V30 25 1 25 26
M  V30 26 1 26 27
M  V30 27 1 27 28
M  V30 28 1 28 29
M  V30 29 1 23 4
M  V30 30 1 29 24
M  V30 31 1 22 7
M  V30 32 1 21 12
M  V30 33 1 21 16
M  V30 34 1 3 30
M  V30 35 1 5 31
M  V30 36 1 6 32
M  V30 37 1 8 33
M  V30 38 1 11 34
M  V30 39 1 13 35
M  V30 40 1 14 36
M  V30 41 1 15 37
M  V30 42 1 17 38
M  V30 43 1 18 39
M  V30 44 1 19 40
M  V30 45 1 20 41
M  V30 46 1 23 42
M  V30 47 1 24 43
M  V30 48 1 25 44
M  V30 49 1 25 45
M  V30 50 1 26 46
M  V30 51 1 26 47
M  V30 52 1 28 48
M  V30 53 1 28 49
M  V30 54 1 29 50
M  V30 55 1 29 51
M  V30 END BOND
M  V30 END CTAB
M  END
>  <Dataset>  (308) 
ChEMBL_Kinases

>  <Ligand_Instance>  (308) 
nan

>  <PDB_ID>  (308) 
nan

>  <Standardized_SMILES>  (308) 
O=C(Nc1ccc2[nH]nc(Nc3cccc4ccccc34)c2c1)C1CCOCC1

>  <Name>  (308) 
nan

>  <Pocket>  (308) 
nan

>  <ATP_Site>  (308) 
nan

>  <Peripheral>  (308) 
nan

>  <Num_H_Atoms_ProtBoundConf>  (308) 
nan

>  <Num_Resolved_Atoms>  (308) 
nan

>  <Num_Not_Resolved_Atoms>  (308) 
nan

$$$$
CHEMBL4163164
     RDKit          3D

  0  0  0  0  0  0  0  0  0  0999 V3000
M  V30 BEGIN CTAB
M  V30 COUNTS 64 68 0 0 0
M  V30 BEGIN ATOM
M  V30 1 C 3.230724 -3.853933 4.273716 0
M  V30 2 C 3.141811 -2.327380 4.128927 0
M  V30 3 O 2.828755 -2.087671 2.771644 0
M  V30 4 C 2.648862 -0.837299 2.213259 0
M  V30 5 O 2.889014 -0.432944 3.375803 0
M  V30 6 C 2.326401 -0.521074 0.834267 0
M  V30 7 C 2.199603 -1.593092 -0.018861 0
M  V30 8 C 2.366463 -2.981822 0.433427 0
M  V30 9 N 1.918921 -1.279281 -1.276810 0
M  V30 10 C 1.771157 -0.008485 -1.684569 0
M  V30 11 N 1.453377 0.387287 -3.014050 0
M  V30 12 N 0.097224 0.545418 -3.303184 0
M  V30 13 C -0.853983 0.305221 -2.260233 0
M  V30 14 O -0.538074 -0.049529 -1.070660 0
M  V30 15 C -2.324920 0.347540 -2.107682 0
M  V30 16 C -2.950493 1.583072 -2.060846 0
M  V30 17 C -4.313741 1.669764 -1.909623 0
M  V30 18 C -5.040350 0.498210 -1.806305 0
M  V30 19 C -4.463939 -0.762779 -1.847520 0
M  V30 20 C -5.220249 -1.906747 -1.740626 0
M  V30 21 O -6.469380 -1.810970 -1.602232 0
M  V30 22 C -4.539682 -3.104318 -1.794301 0
M  V30 23 C -5.288964 -4.274510 -1.687008 0
M  V30 24 C -4.636366 -5.486465 -1.736972 0
M  V30 25 C -3.252689 -5.548668 -1.891737 0
M  V30 26 C -2.512539 -4.376584 -1.997799 0
M  V30 27 C -3.150783 -3.158572 -1.949268 0
M  V30 28 N -2.477010 -2.003642 -2.046975 0
M  V30 29 C -3.088529 -0.818991 -2.000660 0
M  V30 30 N 1.906897 0.988072 -0.809010 0
M  V30 31 C 2.189131 0.805195 0.494532 0
M  V30 32 C 2.321523 1.960196 1.363821 0
M  V30 33 C 3.166800 2.974647 0.940722 0
M  V30 34 C 3.301187 4.113331 1.741057 0
M  V30 35 C 2.613796 4.252456 2.940211 0
M  V30 36 C 1.760244 3.243005 3.379338 0
M  V30 37 O 1.083630 3.382966 4.561435 0
M  V30 38 C 0.196408 2.481833 5.148665 0
M  V30 39 C 1.652301 2.124480 2.555389 0
M  V30 40 H 3.820380 -4.215052 3.408146 0
M  V30 41 H 3.598476 -4.160791 5.250153 0
M  V30 42 H 2.158010 -4.187600 4.155113 0
M  V30 43 H 2.287642 -2.024523 4.772072 0
M  V30 44 H 4.086308 -1.837343 4.446964 0
M  V30 45 H 3.383459 -3.217960 0.813149 0
M  V30 46 H 2.171758 -3.657258 -0.452192 0
M  V30 47 H 1.574157 -3.263171 1.154983 0
M  V30 48 H 2.031942 0.593897 -3.855019 0
M  V30 49 H -0.484008 0.809587 -4.125679 0
M  V30 50 H -2.411896 2.518060 -2.139008 0
M  V30 51 H -4.893932 2.590378 -1.862364 0
M  V30 52 H -6.122300 0.528570 -1.684615 0
M  V30 53 H -6.368505 -4.277458 -1.565106 0
M  V30 54 H -5.108209 -6.455105 -1.663937 0
M  V30 55 H -2.724178 -6.498723 -1.933052 0
M  V30 56 H -1.447565 -4.439372 -2.117444 0
M  V30 57 H -1.445199 -2.099946 -2.162286 0
M  V30 58 H 3.756130 2.995103 0.034218 0
M  V30 59 H 3.933445 4.986879 1.523278 0
M  V30 60 H 2.700503 5.124733 3.577569 0
M  V30 61 H -0.459215 3.088031 5.832029 0
M  V30 62 H 0.721136 1.761936 5.817096 0
M  V30 63 H -0.467570 1.939662 4.458228 0
M  V30 64 H 0.977163 1.374149 2.912138 0
M  V30 END ATOM
M  V30 BEGIN BOND
M  V30 1 1 1 2
M  V30 2 1 2 3
M  V30 3 1 3 4
M  V30 4 2 4 5
M  V30 5 1 4 6
M  V30 6 2 6 7
M  V30 7 1 7 8
M  V30 8 1 7 9
M  V30 9 2 9 10
M  V30 10 1 10 11
M  V30 11 1 11 12
M  V30 12 1 12 13
M  V30 13 2 13 14
M  V30 14 1 13 15
M  V30 15 2 15 16
M  V30 16 1 16 17
M  V30 17 2 17 18
M  V30 18 1 18 19
M  V30 19 1 19 20
M  V30 20 2 20 21
M  V30 21 1 20 22
M  V30 22 2 22 23
M  V30 23 1 23 24
M  V30 24 2 24 25
M  V30 25 1 25 26
M  V30 26 2 26 27
M  V30 27 1 27 28
M  V30 28 1 28 29
M  V30 29 1 10 30
M  V30 30 2 30 31
M  V30 31 1 31 32
M  V30 32 2 32 33
M  V30 33 1 33 34
M  V30 34 2 34 35
M  V30 35 1 35 36
M  V30 36 1 36 37
M  V30 37 1 37 38
M  V30 38 2 36 39
M  V30 39 1 31 6
M  V30 40 1 39 32
M  V30 41 1 29 15
M  V30 42 2 29 19
M  V30 43 1 27 22
M  V30 44 1 1 40
M  V30 45 1 1 41
M  V30 46 1 1 42
M  V30 47 1 2 43
M  V30 48 1 2 44
M  V30 49 1 8 45
M  V30 50 1 8 46
M  V30 51 1 8 47
M  V30 52 1 11 48
M  V30 53 1 12 49
M  V30 54 1 16 50
M  V30 55 1 17 51
M  V30 56 1 18 52
M  V30 57 1 23 53
M  V30 58 1 24 54
M  V30 59 1 25 55
M  V30 60 1 26 56
M  V30 61 1 28 57
M  V30 62 1 33 58
M  V30 63 1 34 59
M  V30 64 1 35 60
M  V30 65 1 38 61
M  V30 66 1 38 62
M  V30 67 1 38 63
M  V30 68 1 39 64
M  V30 END BOND
M  V30 END CTAB
M  END
>  <Dataset>  (309) 
ChEMBL_Kinases

>  <Ligand_Instance>  (309) 
nan

>  <PDB_ID>  (309) 
nan

>  <Standardized_SMILES>  (309) 
CCOC(=O)c1c(C)nc(NNC(=O)c2cccc3c(=O)c4ccccc4[nH]c23)nc1-c1cccc(OC)c1

>  <Name>  (309) 
nan

>  <Pocket>  (309) 
nan

>  <ATP_Site>  (309) 
nan

>  <Peripheral>  (309) 
nan

>  <Num_H_Atoms_ProtBoundConf>  (309) 
nan

>  <Num_Resolved_Atoms>  (309) 
nan

>  <Num_Not_Resolved_Atoms>  (309) 
nan

$$$$
CHEMBL4788686
     RDKit          3D

  0  0  0  0  0  0  0  0  0  0999 V3000
M  V30 BEGIN CTAB
M  V30 COUNTS 34 36 0 0 0
M  V30 BEGIN ATOM
M  V30 1 O 4.383611 -5.500276 -1.633342 0
M  V30 2 C 4.328187 -5.065997 -0.432827 0
M  V30 3 O 3.735838 -6.307573 -0.609545 0
M  V30 4 C 4.909092 -3.754415 -0.051625 0
M  V30 5 S 3.693712 -2.397077 -0.215950 0
M  V30 6 C 2.422751 -2.678132 0.988895 0
M  V30 7 N 2.288798 -3.655757 1.879033 0
M  V30 8 C 1.210455 -3.616413 2.682370 0
M  V30 9 N 0.249636 -2.682327 2.674898 0
M  V30 10 C 0.282644 -1.647068 1.816438 0
M  V30 11 C -0.566404 -0.613395 1.643839 0
M  V30 12 C -0.354221 0.330602 0.721343 0
M  V30 13 C -1.063192 1.524369 0.313429 0
M  V30 14 C -0.560975 2.305860 -0.706732 0
M  V30 15 C -1.279425 3.442250 -1.058275 0
M  V30 16 C -2.450469 3.781124 -0.415381 0
M  V30 17 C -2.957778 3.005261 0.604561 0
M  V30 18 O -4.114006 3.205510 1.347227 0
M  V30 19 C -5.326329 2.621434 0.855982 0
M  V30 20 F -5.147007 1.250728 0.783281 0
M  V30 21 F -5.572895 3.072029 -0.425365 0
M  V30 22 F -6.381665 2.924399 1.698762 0
M  V30 23 C -2.236108 1.869320 0.952998 0
M  V30 24 S 1.167353 -0.137652 -0.081108 0
M  V30 25 C 1.410919 -1.679298 0.968641 0
M  V30 26 H 3.458978 -6.898267 0.178745 0
M  V30 27 H 5.779481 -3.585228 -0.708051 0
M  V30 28 H 5.287490 -3.799018 1.011047 0
M  V30 29 H 1.088905 -4.419956 3.422754 0
M  V30 30 H -1.463122 -0.482862 2.233432 0
M  V30 31 H 0.355593 2.082983 -1.243750 0
M  V30 32 H -0.951708 4.094387 -1.837480 0
M  V30 33 H -3.056982 4.661267 -0.648755 0
M  V30 34 H -2.572764 1.205701 1.748752 0
M  V30 END ATOM
M  V30 BEGIN BOND
M  V30 1 2 1 2
M  V30 2 1 2 3
M  V30 3 1 2 4
M  V30 4 1 4 5
M  V30 5 1 5 6
M  V30 6 2 6 7
M  V30 7 1 7 8
M  V30 8 2 8 9
M  V30 9 1 9 10
M  V30 10 1 10 11
M  V30 11 2 11 12
M  V30 12 1 12 13
M  V30 13 2 13 14
M  V30 14 1 14 15
M  V30 15 2 15 16
M  V30 16 1 16 17
M  V30 17 1 17 18
M  V30 18 1 18 19
M  V30 19 1 19 20
M  V30 20 1 19 21
M  V30 21 1 19 22
M  V30 22 2 17 23
M  V30 23 1 12 24
M  V30 24 1 24 25
M  V30 25 1 25 6
M  V30 26 2 25 10
M  V30 27 1 23 13
M  V30 28 1 3 26
M  V30 29 1 4 27
M  V30 30 1 4 28
M  V30 31 1 8 29
M  V30 32 1 11 30
M  V30 33 1 14 31
M  V30 34 1 15 32
M  V30 35 1 16 33
M  V30 36 1 23 34
M  V30 END BOND
M  V30 END CTAB
M  END
>  <Dataset>  (310) 
ChEMBL_Kinases

>  <Ligand_Instance>  (310) 
nan

>  <PDB_ID>  (310) 
nan

>  <Standardized_SMILES>  (310) 
O=C(O)CSc1ncnc2cc(-c3cccc(OC(F)(F)F)c3)sc12

>  <Name>  (310) 
nan

>  <Pocket>  (310) 
nan

>  <ATP_Site>  (310) 
nan

>  <Peripheral>  (310) 
nan

>  <Num_H_Atoms_ProtBoundConf>  (310) 
nan

>  <Num_Resolved_Atoms>  (310) 
nan

>  <Num_Not_Resolved_Atoms>  (310) 
nan

$$$$
CHEMBL4788469
     RDKit          3D

  0  0  0  0  0  0  0  0  0  0999 V3000
M  V30 BEGIN CTAB
M  V30 COUNTS 50 53 0 0 0
M  V30 BEGIN ATOM
M  V30 1 C 4.190413 -3.224264 2.094645 0
M  V30 2 N 3.454969 -2.614334 1.009296 0
M  V30 3 C 4.046652 -2.637574 -0.286111 0
M  V30 4 O 5.182153 -3.169054 -0.383625 0
M  V30 5 C 3.469796 -2.106818 -1.515872 0
M  V30 6 C 4.111117 -2.563537 -2.648044 0
M  V30 7 C 3.661574 -2.136226 -3.887909 0
M  V30 8 C 2.593214 -1.267976 -4.040792 0
M  V30 9 C 1.928048 -0.791394 -2.921509 0
M  V30 10 C 2.411620 -1.244425 -1.711411 0
M  V30 11 N 1.616482 -0.658013 -0.655692 0
M  V30 12 C 0.962432 0.595724 -0.908925 0
M  V30 13 C 1.398421 -1.203975 0.664405 0
M  V30 14 C 0.212686 -0.782084 1.228680 0
M  V30 15 C -0.233445 -1.154449 2.480153 0
M  V30 16 N -1.452828 -0.716592 3.061255 0
M  V30 17 C -2.476219 0.150452 2.599122 0 CFG=1
M  V30 18 C -2.101943 1.567012 2.322285 0
M  V30 19 C -3.388462 2.384173 2.444704 0
M  V30 20 C -4.464251 1.870161 1.529980 0 CFG=2
M  V30 21 O -5.688140 2.345106 2.015454 0
M  V30 22 C -4.560025 0.394959 1.401261 0
M  V30 23 C -3.235401 -0.336317 1.382196 0
M  V30 24 N 0.594529 -1.985467 3.135004 0
M  V30 25 C 1.753075 -2.416926 2.620897 0
M  V30 26 C 2.202834 -2.056301 1.388481 0
M  V30 27 H 5.228789 -3.399243 1.718764 0
M  V30 28 H 4.330553 -2.558450 2.973080 0
M  V30 29 H 3.822456 -4.239829 2.350602 0
M  V30 30 H 4.945608 -3.241670 -2.530142 0
M  V30 31 H 4.189551 -2.514555 -4.775220 0
M  V30 32 H 2.248601 -0.939170 -5.015123 0
M  V30 33 H 1.077359 -0.106927 -2.945212 0
M  V30 34 H 1.009933 1.220810 0.037127 0
M  V30 35 H 1.699729 1.188509 -1.536515 0
M  V30 36 H -0.036411 0.554318 -1.328998 0
M  V30 37 H -0.359214 -0.134049 0.619380 0
M  V30 38 H -1.607386 -1.135406 4.036147 0
M  V30 39 H -3.259592 0.205101 3.410081 0
M  V30 40 H -1.678822 1.675456 1.308385 0
M  V30 41 H -1.438712 2.007242 3.119229 0
M  V30 42 H -3.156544 3.426434 2.160553 0
M  V30 43 H -3.687313 2.321788 3.509232 0
M  V30 44 H -4.330928 2.388680 0.539807 0
M  V30 45 H -6.202821 2.866089 1.358408 0
M  V30 46 H -5.070061 0.152444 0.440660 0
M  V30 47 H -5.213431 -0.024966 2.208235 0
M  V30 48 H -2.722993 -0.106075 0.439287 0
M  V30 49 H -3.448013 -1.404419 1.450562 0
M  V30 50 H 2.371884 -3.085409 3.203007 0
M  V30 END ATOM
M  V30 BEGIN BOND
M  V30 1 1 1 2
M  V30 2 1 2 3
M  V30 3 2 3 4
M  V30 4 1 3 5
M  V30 5 2 5 6
M  V30 6 1 6 7
M  V30 7 2 7 8
M  V30 8 1 8 9
M  V30 9 2 9 10
M  V30 10 1 10 11
M  V30 11 1 11 12
M  V30 12 1 11 13
M  V30 13 2 13 14
M  V30 14 1 14 15
M  V30 15 1 15 16
M  V30 16 1 16 17
M  V30 17 1 17 18
M  V30 18 1 18 19
M  V30 19 1 19 20
M  V30 20 1 20 21
M  V30 21 1 20 22
M  V30 22 1 22 23
M  V30 23 2 15 24
M  V30 24 1 24 25
M  V30 25 2 25 26
M  V30 26 1 26 2
M  V30 27 1 10 5
M  V30 28 1 26 13
M  V30 29 1 23 17
M  V30 30 1 1 27
M  V30 31 1 1 28
M  V30 32 1 1 29
M  V30 33 1 6 30
M  V30 34 1 7 31
M  V30 35 1 8 32
M  V30 36 1 9 33
M  V30 37 1 12 34
M  V30 38 1 12 35
M  V30 39 1 12 36
M  V30 40 1 14 37
M  V30 41 1 16 38
M  V30 42 1 17 39 CFG=1
M  V30 43 1 18 40
M  V30 44 1 18 41
M  V30 45 1 19 42
M  V30 46 1 19 43
M  V30 47 1 20 44 CFG=3
M  V30 48 1 21 45
M  V30 49 1 22 46
M  V30 50 1 22 47
M  V30 51 1 23 48
M  V30 52 1 23 49
M  V30 53 1 25 50
M  V30 END BOND
M  V30 END CTAB
M  END
>  <Dataset>  (311) 
ChEMBL_Kinases

>  <Ligand_Instance>  (311) 
nan

>  <PDB_ID>  (311) 
nan

>  <Standardized_SMILES>  (311) 
CN1C(=O)c2ccccc2N(C)c2cc(N[C@H]3CC[C@H](O)CC3)ncc21

>  <Name>  (311) 
nan

>  <Pocket>  (311) 
nan

>  <ATP_Site>  (311) 
nan

>  <Peripheral>  (311) 
nan

>  <Num_H_Atoms_ProtBoundConf>  (311) 
nan

>  <Num_Resolved_Atoms>  (311) 
nan

>  <Num_Not_Resolved_Atoms>  (311) 
nan

$$$$
CHEMBL4788491
     RDKit          3D

  0  0  0  0  0  0  0  0  0  0999 V3000
M  V30 BEGIN CTAB
M  V30 COUNTS 51 55 0 0 0
M  V30 BEGIN ATOM
M  V30 1 O 1.987896 0.582707 1.746404 0
M  V30 2 C 1.543865 0.731965 2.908292 0
M  V30 3 N 1.903468 -0.203207 3.909273 0
M  V30 4 C 2.728738 -1.350092 3.822193 0
M  V30 5 C 2.925896 -2.102961 4.947633 0
M  V30 6 C 3.713724 -3.231610 4.944410 0
M  V30 7 C 4.348803 -3.664439 3.799883 0
M  V30 8 C 4.168891 -2.926012 2.649897 0
M  V30 9 F 4.777969 -3.321859 1.506000 0
M  V30 10 C 3.372013 -1.801635 2.694392 0
M  V30 11 N 0.700143 1.854016 3.116546 0
M  V30 12 C 0.522844 2.617571 1.902338 0
M  V30 13 C 1.381103 3.657160 1.577220 0
M  V30 14 C 1.180796 4.373788 0.395864 0
M  V30 15 C 0.130977 4.037440 -0.432242 0
M  V30 16 C -0.747870 3.007534 -0.144709 0
M  V30 17 N -1.831638 2.672001 -1.015467 0
M  V30 18 C -2.680687 1.585957 -0.616051 0
M  V30 19 N -3.777532 1.771009 0.136367 0
M  V30 20 C -4.559462 0.736275 0.499332 0
M  V30 21 N -4.228287 -0.516802 0.094186 0
M  V30 22 C -3.122252 -0.707516 -0.665139 0
M  V30 23 C -2.908312 -2.024226 -1.002217 0
M  V30 24 C -1.814600 -2.284572 -1.763723 0
M  V30 25 C -1.328626 -3.560379 -2.273647 0
M  V30 26 C -2.027842 -4.662847 -1.971896 0
M  V30 27 C -1.863704 -5.972405 -2.272629 0
M  V30 28 C -0.596372 -5.976627 -3.113106 0
M  V30 29 S -0.005905 -4.153928 -3.237279 0
M  V30 30 C -0.957073 -1.291319 -2.182851 0
M  V30 31 C -1.204230 0.037511 -1.821999 0
M  V30 32 C -2.303829 0.329806 -1.051842 0
M  V30 33 C -0.505490 2.343445 1.018633 0
M  V30 34 H 1.464321 0.043604 4.822690 0
M  V30 35 H 2.449945 -1.806331 5.871665 0
M  V30 36 H 3.823970 -3.771116 5.857527 0
M  V30 37 H 4.958733 -4.557904 3.844632 0
M  V30 38 H 3.276834 -1.281855 1.776507 0
M  V30 39 H 0.312218 2.001489 4.090150 0
M  V30 40 H 2.174838 3.832941 2.306279 0
M  V30 41 H 1.884077 5.172980 0.198436 0
M  V30 42 H 0.008140 4.619207 -1.343094 0
M  V30 43 H -1.938224 3.241385 -1.892627 0
M  V30 44 H -5.427083 0.908663 1.098340 0
M  V30 45 H -3.477870 -2.886828 -0.753986 0
M  V30 46 H -2.952123 -4.831143 -1.383969 0
M  V30 47 H -1.729753 -7.012022 -2.513794 0
M  V30 48 H 0.300183 -6.409412 -3.770752 0
M  V30 49 H -0.052583 -1.358963 -2.790695 0
M  V30 50 H -0.588066 0.867826 -2.105893 0
M  V30 51 H -1.163267 1.515024 1.309179 0
M  V30 END ATOM
M  V30 BEGIN BOND
M  V30 1 2 1 2
M  V30 2 1 2 3
M  V30 3 1 3 4
M  V30 4 2 4 5
M  V30 5 1 5 6
M  V30 6 2 6 7
M  V30 7 1 7 8
M  V30 8 1 8 9
M  V30 9 2 8 10
M  V30 10 1 2 11
M  V30 11 1 11 12
M  V30 12 2 12 13
M  V30 13 1 13 14
M  V30 14 2 14 15
M  V30 15 1 15 16
M  V30 16 1 16 17
M  V30 17 1 17 18
M  V30 18 2 18 19
M  V30 19 1 19 20
M  V30 20 2 20 21
M  V30 21 1 21 22
M  V30 22 2 22 23
M  V30 23 1 23 24
M  V30 24 1 24 25
M  V30 25 2 25 26
M  V30 26 1 26 27
M  V30 27 2 27 28
M  V30 28 1 28 29
M  V30 29 2 24 30
M  V30 30 1 30 31
M  V30 31 2 31 32
M  V30 32 2 16 33
M  V30 33 1 10 4
M  V30 34 1 33 12
M  V30 35 1 32 18
M  V30 36 1 32 22
M  V30 37 1 29 25
M  V30 38 1 3 34
M  V30 39 1 5 35
M  V30 40 1 6 36
M  V30 41 1 7 37
M  V30 42 1 10 38
M  V30 43 1 11 39
M  V30 44 1 13 40
M  V30 45 1 14 41
M  V30 46 1 15 42
M  V30 47 1 17 43
M  V30 48 1 20 44
M  V30 49 1 23 45
M  V30 50 1 26 46
M  V30 51 1 27 47
M  V30 52 1 28 48
M  V30 53 1 30 49
M  V30 54 1 31 50
M  V30 55 1 33 51
M  V30 END BOND
M  V30 END CTAB
M  END
>  <Dataset>  (312) 
ChEMBL_Kinases

>  <Ligand_Instance>  (312) 
nan

>  <PDB_ID>  (312) 
nan

>  <Standardized_SMILES>  (312) 
O=C(Nc1cccc(F)c1)Nc1cccc(Nc2ncnc3cc(-c4cccs4)ccc23)c1

>  <Name>  (312) 
nan

>  <Pocket>  (312) 
nan

>  <ATP_Site>  (312) 
nan

>  <Peripheral>  (312) 
nan

>  <Num_H_Atoms_ProtBoundConf>  (312) 
nan

>  <Num_Resolved_Atoms>  (312) 
nan

>  <Num_Not_Resolved_Atoms>  (312) 
nan

$$$$
CHEMBL4162970
     RDKit          3D

  0  0  0  0  0  0  0  0  0  0999 V3000
M  V30 BEGIN CTAB
M  V30 COUNTS 62 66 0 0 0
M  V30 BEGIN ATOM
M  V30 1 C 3.404347 -5.002439 4.689057 0
M  V30 2 C 3.214481 -3.611201 4.166097 0
M  V30 3 N 2.541907 -3.329670 3.034195 0
M  V30 4 C 2.515207 -2.000802 2.783490 0
M  V30 5 C 1.909512 -1.161608 1.754879 0
M  V30 6 C 2.545483 -0.246959 1.066832 0
M  V30 7 C 3.936348 0.158775 1.107502 0
M  V30 8 O 4.764163 -0.422040 1.830901 0
M  V30 9 N 4.100928 1.239728 0.230784 0
M  V30 10 C 2.828143 1.502808 -0.346700 0
M  V30 11 C 2.521618 2.493591 -1.253500 0
M  V30 12 C 1.217454 2.613576 -1.689088 0
M  V30 13 C 0.225139 1.743534 -1.215796 0
M  V30 14 C -1.116324 1.970891 -1.752125 0
M  V30 15 O -1.302522 2.864980 -2.581691 0
M  V30 16 N -2.255324 1.228164 -1.388098 0
M  V30 17 C -3.539608 1.510559 -1.960766 0 CFG=2
M  V30 18 C -4.453937 1.864058 -0.777976 0
M  V30 19 O -3.915123 2.989419 -0.121346 0
M  V30 20 C -4.060437 0.257629 -2.564436 0
M  V30 21 C -4.633882 0.288026 -3.829467 0
M  V30 22 C -5.130945 -0.869632 -4.424274 0
M  V30 23 C -5.063580 -2.089595 -3.760013 0
M  V30 24 C -4.489134 -2.098131 -2.501976 0
M  V30 25 C -3.986883 -0.944900 -1.894193 0
M  V30 26 C 0.581694 0.769320 -0.310609 0
M  V30 27 C 1.872721 0.634363 0.130316 0
M  V30 28 C 0.555887 -1.660995 1.593358 0
M  V30 29 C 0.439278 -2.282623 0.336305 0
M  V30 30 C -0.781534 -2.845818 -0.050666 0
M  V30 31 C -1.882071 -2.791057 0.809579 0
M  V30 32 C -1.728699 -2.173590 2.033251 0
M  V30 33 C -0.539836 -1.615984 2.429338 0
M  V30 34 N 3.195430 -1.433316 3.796802 0
M  V30 35 C 3.632774 -2.380921 4.651443 0
M  V30 36 C 4.420196 -2.393160 5.930193 0
M  V30 37 H 3.380327 -5.707376 3.832959 0
M  V30 38 H 2.564279 -5.253025 5.369980 0
M  V30 39 H 4.355399 -5.063210 5.254583 0
M  V30 40 H 5.038235 1.680099 0.115555 0
M  V30 41 H 3.273170 3.172972 -1.628357 0
M  V30 42 H 1.012177 3.395347 -2.396903 0
M  V30 43 H -2.171700 0.458089 -0.690424 0
M  V30 44 H -3.518640 2.324675 -2.697215 0
M  V30 45 H -4.473944 1.050728 -0.037459 0
M  V30 46 H -5.487025 2.062668 -1.085288 0
M  V30 47 H -3.141952 2.621717 0.409118 0
M  V30 48 H -4.720004 1.217028 -4.411841 0
M  V30 49 H -5.584183 -0.878904 -5.410934 0
M  V30 50 H -5.437829 -3.025805 -4.180941 0
M  V30 51 H -4.406443 -3.023650 -1.928539 0
M  V30 52 H -3.551256 -1.027774 -0.906347 0
M  V30 53 H -0.266340 0.220094 -0.029105 0
M  V30 54 H 1.193127 -2.401825 -0.427551 0
M  V30 55 H -0.942705 -3.337402 -0.999732 0
M  V30 56 H -2.847214 -3.217113 0.545221 0
M  V30 57 H -2.529327 -2.080644 2.773646 0
M  V30 58 H -0.300430 -1.113056 3.348063 0
M  V30 59 H 3.486148 -0.477065 4.142954 0
M  V30 60 H 5.368155 -2.919470 5.781950 0
M  V30 61 H 3.803830 -2.934200 6.681773 0
M  V30 62 H 4.560092 -1.340120 6.306937 0
M  V30 END ATOM
M  V30 BEGIN BOND
M  V30 1 1 1 2
M  V30 2 1 2 3
M  V30 3 2 3 4
M  V30 4 1 4 5
M  V30 5 2 5 6
M  V30 6 1 6 7
M  V30 7 2 7 8
M  V30 8 1 7 9
M  V30 9 1 9 10
M  V30 10 2 10 11
M  V30 11 1 11 12
M  V30 12 2 12 13
M  V30 13 1 13 14
M  V30 14 2 14 15
M  V30 15 1 14 16
M  V30 16 1 16 17
M  V30 17 1 17 18
M  V30 18 1 18 19
M  V30 19 1 17 20
M  V30 20 2 20 21
M  V30 21 1 21 22
M  V30 22 2 22 23
M  V30 23 1 23 24
M  V30 24 2 24 25
M  V30 25 1 13 26
M  V30 26 2 26 27
M  V30 27 1 5 28
M  V30 28 2 28 29
M  V30 29 1 29 30
M  V30 30 2 30 31
M  V30 31 1 31 32
M  V30 32 2 32 33
M  V30 33 1 4 34
M  V30 34 1 34 35
M  V30 35 1 35 36
M  V30 36 2 35 2
M  V30 37 1 27 6
M  V30 38 1 33 28
M  V30 39 1 27 10
M  V30 40 1 25 20
M  V30 41 1 1 37
M  V30 42 1 1 38
M  V30 43 1 1 39
M  V30 44 1 9 40
M  V30 45 1 11 41
M  V30 46 1 12 42
M  V30 47 1 16 43
M  V30 48 1 17 44 CFG=3
M  V30 49 1 18 45
M  V30 50 1 18 46
M  V30 51 1 19 47
M  V30 52 1 21 48
M  V30 53 1 22 49
M  V30 54 1 23 50
M  V30 55 1 24 51
M  V30 56 1 25 52
M  V30 57 1 26 53
M  V30 58 1 29 54
M  V30 59 1 30 55
M  V30 60 1 31 56
M  V30 61 1 32 57
M  V30 62 1 33 58
M  V30 63 1 34 59
M  V30 64 1 36 60
M  V30 65 1 36 61
M  V30 66 1 36 62
M  V30 END BOND
M  V30 END CTAB
M  END
>  <Dataset>  (313) 
ChEMBL_Kinases

>  <Ligand_Instance>  (313) 
nan

>  <PDB_ID>  (313) 
nan

>  <Standardized_SMILES>  (313) 
Cc1nc(/C(=C2\C(=O)Nc3ccc(C(=O)N[C@H](CO)c4ccccc4)cc32)c2ccccc2)[nH]c1C

>  <Name>  (313) 
nan

>  <Pocket>  (313) 
nan

>  <ATP_Site>  (313) 
nan

>  <Peripheral>  (313) 
nan

>  <Num_H_Atoms_ProtBoundConf>  (313) 
nan

>  <Num_Resolved_Atoms>  (313) 
nan

>  <Num_Not_Resolved_Atoms>  (313) 
nan

$$$$
CHEMBL4162850
     RDKit          3D

  0  0  0  0  0  0  0  0  0  0999 V3000
M  V30 BEGIN CTAB
M  V30 COUNTS 61 67 0 0 0
M  V30 BEGIN ATOM
M  V30 1 O 4.172573 -2.834993 3.145519 0
M  V30 2 C 3.112259 -3.042750 2.474780 0
M  V30 3 N 2.720203 -2.447265 1.243724 0
M  V30 4 C 3.688577 -1.494346 0.728524 0
M  V30 5 C 3.045832 -0.126483 0.630858 0
M  V30 6 C 3.870368 0.897177 0.954004 0
M  V30 7 C 3.329986 2.162373 0.905958 0
M  V30 8 C 2.015783 2.341511 0.543532 0
M  V30 9 C 1.218978 1.266746 0.222960 0
M  V30 10 C -0.107704 1.212471 -0.155476 0
M  V30 11 C -1.027363 2.313885 -0.371655 0
M  V30 12 C -2.267422 2.614402 0.038776 0
M  V30 13 C -3.143110 1.857922 0.906214 0
M  V30 14 C -2.572765 1.324369 2.050640 0
M  V30 15 N -3.579478 0.671824 2.708310 0
M  V30 16 C -4.716062 0.797989 2.000906 0
M  V30 17 C -6.004093 0.315526 2.250720 0
M  V30 18 C -7.000344 0.601086 1.332861 0
M  V30 19 C -6.643481 1.344995 0.232507 0
M  V30 20 C -5.376587 1.831030 -0.032533 0
M  V30 21 N -4.444246 1.527657 0.891247 0
M  V30 22 C -2.657227 3.905722 -0.540511 0
M  V30 23 O -3.691617 4.618730 -0.468576 0
M  V30 24 N -1.590152 4.413497 -1.350546 0
M  V30 25 C -0.562510 3.414995 -1.248201 0
M  V30 26 O 0.546512 3.563105 -1.869102 0
M  V30 27 C -0.325026 -0.159647 -0.328359 0
M  V30 28 N 0.755799 -0.926883 -0.087737 0
M  V30 29 C 1.697171 -0.023260 0.252215 0
M  V30 30 C 0.755160 -2.343283 -0.233002 0
M  V30 31 C 1.425700 -3.021507 0.907788 0
M  V30 32 N 1.662294 -4.410422 0.705054 0
M  V30 33 C 0.581870 -5.241048 0.360747 0
M  V30 34 C 0.802748 -6.023480 -0.920389 0
M  V30 35 O 2.077347 -6.597908 -0.958364 0
M  V30 36 C 3.000770 -5.576259 -0.988126 0
M  V30 37 C 2.952157 -4.825542 0.321905 0
M  V30 38 H 2.668616 -3.771590 3.132062 0
M  V30 39 H 4.146420 -1.764651 -0.218673 0
M  V30 40 H 4.495460 -1.352930 1.475714 0
M  V30 41 H 4.907344 0.698082 1.234608 0
M  V30 42 H 3.994006 2.986816 1.164015 0
M  V30 43 H 1.707505 3.372656 0.551392 0
M  V30 44 H -1.628965 1.248196 2.589557 0
M  V30 45 H -6.189949 -0.255980 3.137112 0
M  V30 46 H -7.986805 0.237355 1.518718 0
M  V30 47 H -7.409182 1.570557 -0.480308 0
M  V30 48 H -5.126256 2.403244 -0.910566 0
M  V30 49 H -1.518229 5.305393 -1.916157 0
M  V30 50 H -1.291089 -0.547390 -0.629959 0
M  V30 51 H 1.309632 -2.672630 -1.165728 0
M  V30 52 H -0.292538 -2.704543 -0.286146 0
M  V30 53 H 0.775996 -2.899967 1.796870 0
M  V30 54 H 0.385383 -5.943094 1.208625 0
M  V30 55 H -0.359782 -4.667412 0.216032 0
M  V30 56 H 0.078427 -6.858642 -0.979344 0
M  V30 57 H 0.627133 -5.340261 -1.764313 0
M  V30 58 H 2.925843 -4.923734 -1.882585 0
M  V30 59 H 4.020605 -6.050795 -1.016495 0
M  V30 60 H 3.715639 -4.052536 0.308760 0
M  V30 61 H 3.294072 -5.578690 1.095066 0
M  V30 END ATOM
M  V30 BEGIN BOND
M  V30 1 2 1 2
M  V30 2 1 2 3
M  V30 3 1 3 4
M  V30 4 1 4 5
M  V30 5 2 5 6
M  V30 6 1 6 7
M  V30 7 2 7 8
M  V30 8 1 8 9
M  V30 9 1 9 10
M  V30 10 1 10 11
M  V30 11 2 11 12
M  V30 12 1 12 13
M  V30 13 2 13 14
M  V30 14 1 14 15
M  V30 15 2 15 16
M  V30 16 1 16 17
M  V30 17 2 17 18
M  V30 18 1 18 19
M  V30 19 2 19 20
M  V30 20 1 20 21
M  V30 21 1 12 22
M  V30 22 2 22 23
M  V30 23 1 22 24
M  V30 24 1 24 25
M  V30 25 2 25 26
M  V30 26 2 10 27
M  V30 27 1 27 28
M  V30 28 1 28 29
M  V30 29 1 28 30
M  V30 30 1 30 31
M  V30 31 1 31 32
M  V30 32 1 32 33
M  V30 33 1 33 34
M  V30 34 1 34 35
M  V30 35 1 35 36
M  V30 36 1 36 37
M  V30 37 1 31 3
M  V30 38 1 37 32
M  V30 39 1 29 5
M  V30 40 2 29 9
M  V30 41 1 25 11
M  V30 42 1 21 13
M  V30 43 1 21 16
M  V30 44 1 2 38
M  V30 45 1 4 39
M  V30 46 1 4 40
M  V30 47 1 6 41
M  V30 48 1 7 42
M  V30 49 1 8 43
M  V30 50 1 14 44
M  V30 51 1 17 45
M  V30 52 1 18 46
M  V30 53 1 19 47
M  V30 54 1 20 48
M  V30 55 1 24 49
M  V30 56 1 27 50
M  V30 57 1 30 51
M  V30 58 1 30 52
M  V30 59 1 31 53
M  V30 60 1 33 54
M  V30 61 1 33 55
M  V30 62 1 34 56
M  V30 63 1 34 57
M  V30 64 1 36 58
M  V30 65 1 36 59
M  V30 66 1 37 60
M  V30 67 1 37 61
M  V30 END BOND
M  V30 END CTAB
M  END
>  <Dataset>  (314) 
ChEMBL_Kinases

>  <Ligand_Instance>  (314) 
nan

>  <PDB_ID>  (314) 
nan

>  <Standardized_SMILES>  (314) 
O=CN1Cc2cccc3c(C4=C(c5cnc6ccccn56)C(=O)NC4=O)cn(c23)CC1N1CCOCC1

>  <Name>  (314) 
nan

>  <Pocket>  (314) 
nan

>  <ATP_Site>  (314) 
nan

>  <Peripheral>  (314) 
nan

>  <Num_H_Atoms_ProtBoundConf>  (314) 
nan

>  <Num_Resolved_Atoms>  (314) 
nan

>  <Num_Not_Resolved_Atoms>  (314) 
nan

$$$$
CHEMBL4162766
     RDKit          3D

  0  0  0  0  0  0  0  0  0  0999 V3000
M  V30 BEGIN CTAB
M  V30 COUNTS 46 49 0 0 0
M  V30 BEGIN ATOM
M  V30 1 C -0.610343 -7.015734 1.556309 0
M  V30 2 O -1.530444 -6.353576 2.378637 0
M  V30 3 C -1.664470 -4.981744 2.322292 0
M  V30 4 C -0.974148 -4.106223 1.517925 0
M  V30 5 C -1.200664 -2.747084 1.554874 0
M  V30 6 C -0.478802 -1.805981 0.711258 0
M  V30 7 C -0.282792 -0.542806 1.251968 0
M  V30 8 N 0.367544 0.378012 0.527591 0
M  V30 9 C 0.848715 0.161168 -0.699061 0
M  V30 10 C 1.533364 1.019411 -1.576550 0
M  V30 11 N 1.874376 2.401983 -1.267339 0
M  V30 12 C 0.765971 3.326399 -1.272245 0
M  V30 13 C 0.794231 4.335051 -0.167634 0
M  V30 14 C 2.015034 4.312836 0.684829 0
M  V30 15 N 1.964643 3.221169 1.631544 0
M  V30 16 C 3.219005 4.134455 -0.174663 0
M  V30 17 C 3.193799 2.875821 -0.985686 0
M  V30 18 S 1.887013 0.241252 -2.973406 0
M  V30 19 N 1.129486 -1.415796 -2.551890 0
M  V30 20 C 0.686678 -1.061185 -1.281646 0
M  V30 21 C 0.012626 -2.052841 -0.559438 0
M  V30 22 C -2.166147 -2.261468 2.444736 0
M  V30 23 C -2.901326 -3.080669 3.286129 0
M  V30 24 C -2.594997 -4.414317 3.165740 0
M  V30 25 N -3.352977 -5.267972 4.043185 0
M  V30 26 H -0.992157 -8.051474 1.295523 0
M  V30 27 H 0.354720 -7.060478 2.105978 0
M  V30 28 H -0.428843 -6.534906 0.581916 0
M  V30 29 H -0.238530 -4.530584 0.853538 0
M  V30 30 H -0.591472 -0.166295 2.220604 0
M  V30 31 H 0.772406 3.860096 -2.242861 0
M  V30 32 H -0.223897 2.777530 -1.234970 0
M  V30 33 H 0.593730 5.366530 -0.576431 0
M  V30 34 H -0.074477 4.147695 0.521328 0
M  V30 35 H 2.099719 5.313868 1.165462 0
M  V30 36 H 2.666535 3.317577 2.395303 0
M  V30 37 H 1.006148 2.979371 1.930259 0
M  V30 38 H 3.415741 5.024924 -0.817324 0
M  V30 39 H 4.108561 4.104993 0.516483 0
M  V30 40 H 3.764746 2.091022 -0.457694 0
M  V30 41 H 3.741714 3.109604 -1.948030 0
M  V30 42 H -0.205811 -3.060431 -0.848338 0
M  V30 43 H -2.340004 -1.193429 2.465461 0
M  V30 44 H -3.633967 -2.666079 3.952216 0
M  V30 45 H -3.312915 -5.619675 5.023104 0
M  V30 46 H -4.129027 -5.556488 3.418914 0
M  V30 END ATOM
M  V30 BEGIN BOND
M  V30 1 1 1 2
M  V30 2 1 2 3
M  V30 3 2 3 4
M  V30 4 1 4 5
M  V30 5 1 5 6
M  V30 6 1 6 7
M  V30 7 2 7 8
M  V30 8 1 8 9
M  V30 9 2 9 10
M  V30 10 1 10 11
M  V30 11 1 11 12
M  V30 12 1 12 13
M  V30 13 1 13 14
M  V30 14 1 14 15
M  V30 15 1 14 16
M  V30 16 1 16 17
M  V30 17 1 10 18
M  V30 18 1 18 19
M  V30 19 2 19 20
M  V30 20 1 20 21
M  V30 21 2 5 22
M  V30 22 1 22 23
M  V30 23 2 23 24
M  V30 24 1 24 25
M  V30 25 1 24 3
M  V30 26 2 21 6
M  V30 27 1 20 9
M  V30 28 1 17 11
M  V30 29 1 1 26
M  V30 30 1 1 27
M  V30 31 1 1 28
M  V30 32 1 4 29
M  V30 33 1 7 30
M  V30 34 1 12 31
M  V30 35 1 12 32
M  V30 36 1 13 33
M  V30 37 1 13 34
M  V30 38 1 14 35
M  V30 39 1 15 36
M  V30 40 1 15 37
M  V30 41 1 16 38
M  V30 42 1 16 39
M  V30 43 1 17 40
M  V30 44 1 17 41
M  V30 45 1 21 42
M  V30 46 1 22 43
M  V30 47 1 23 44
M  V30 48 1 25 45
M  V30 49 1 25 46
M  V30 END BOND
M  V30 END CTAB
M  END
>  <Dataset>  (315) 
ChEMBL_Kinases

>  <Ligand_Instance>  (315) 
nan

>  <PDB_ID>  (315) 
nan

>  <Standardized_SMILES>  (315) 
COc1cc(-c2cnc3c(N4CCC(N)CC4)snc3c2)ccc1N

>  <Name>  (315) 
nan

>  <Pocket>  (315) 
nan

>  <ATP_Site>  (315) 
nan

>  <Peripheral>  (315) 
nan

>  <Num_H_Atoms_ProtBoundConf>  (315) 
nan

>  <Num_Resolved_Atoms>  (315) 
nan

>  <Num_Not_Resolved_Atoms>  (315) 
nan

$$$$
CHEMBL4162650
     RDKit          3D

  0  0  0  0  0  0  0  0  0  0999 V3000
M  V30 BEGIN CTAB
M  V30 COUNTS 74 79 0 0 0
M  V30 BEGIN ATOM
M  V30 1 C 6.639354 0.838341 0.942099 0
M  V30 2 N 6.054278 0.599913 -0.346972 0
M  V30 3 C 6.638208 -0.601379 -0.916667 0
M  V30 4 C 4.632696 0.364477 -0.235757 0 CFG=1
M  V30 5 C 3.879812 1.519641 0.371354 0
M  V30 6 C 2.464113 1.094856 0.626108 0
M  V30 7 C 1.781275 0.645035 -0.658592 0 CFG=1
M  V30 8 C 1.409970 1.870005 -1.428867 0
M  V30 9 C 2.637909 -0.336888 -1.411793 0 CFG=1
M  V30 10 C 1.966664 -0.620911 -2.730905 0
M  V30 11 C 0.544998 -1.021198 -2.608840 0
M  V30 12 C -0.278539 -0.301053 -1.595335 0 CFG=2
M  V30 13 C 0.533633 -0.101858 -0.308869 0 CFG=2
M  V30 14 C -0.287173 0.519916 0.775173 0
M  V30 15 C -1.366820 -0.465320 1.177228 0
M  V30 16 C -2.209678 -0.716481 -0.013680 0 CFG=2
M  V30 17 C -2.968692 0.502843 -0.409535 0
M  V30 18 C -3.053695 -1.966122 0.067793 0 CFG=1
M  V30 19 C -3.966150 -2.063624 1.171062 0
M  V30 20 C -5.030014 -1.202182 1.413184 0
M  V30 21 C -5.912852 -1.291398 2.475166 0
M  V30 22 C -5.715734 -2.326622 3.367967 0
M  V30 23 C -6.574094 -2.458470 4.448803 0
M  V30 24 C -6.319653 -3.514171 5.300786 0
M  V30 25 N -5.308001 -4.390212 5.131455 0
M  V30 26 C -4.455648 -4.292490 4.093737 0
M  V30 27 C -4.694301 -3.243295 3.231441 0
M  V30 28 C -3.867509 -3.070917 2.141758 0
M  V30 29 C -3.587229 -2.038989 -1.322358 0
M  V30 30 C -2.487074 -1.420142 -2.187683 0
M  V30 31 C -1.390601 -1.200186 -1.212793 0 CFG=1
M  V30 32 C 4.042431 0.113325 -1.607666 0
M  V30 33 H 6.089478 0.206195 1.687401 0
M  V30 34 H 7.699764 0.484174 0.965020 0
M  V30 35 H 6.663643 1.900989 1.226683 0
M  V30 36 H 6.660662 -0.590489 -2.024355 0
M  V30 37 H 7.666519 -0.776985 -0.524404 0
M  V30 38 H 6.022864 -1.468070 -0.595563 0
M  V30 39 H 4.478778 -0.541841 0.380027 0
M  V30 40 H 3.966565 2.368238 -0.340258 0
M  V30 41 H 4.318425 1.872213 1.311020 0
M  V30 42 H 2.491565 0.283295 1.373011 0
M  V30 43 H 1.900217 1.945344 1.011711 0
M  V30 44 H 2.173407 2.674423 -1.403988 0
M  V30 45 H 0.512320 2.323813 -0.934360 0
M  V30 46 H 1.162964 1.699336 -2.475770 0
M  V30 47 H 2.649664 -1.265781 -0.796364 0
M  V30 48 H 2.527917 -1.487247 -3.176985 0
M  V30 49 H 2.162537 0.207745 -3.445555 0
M  V30 50 H 0.484737 -2.126784 -2.440537 0
M  V30 51 H 0.049283 -0.860458 -3.606743 0
M  V30 52 H -0.639297 0.659344 -1.998943 0
M  V30 53 H 0.810790 -1.128760 0.038275 0
M  V30 54 H 0.389694 0.704312 1.622322 0
M  V30 55 H -0.704315 1.503449 0.493822 0
M  V30 56 H -0.891123 -1.361239 1.596885 0
M  V30 57 H -1.995811 0.076538 1.922223 0
M  V30 58 H -2.321676 1.222513 -0.991724 0
M  V30 59 H -3.331063 1.089756 0.462875 0
M  V30 60 H -3.821531 0.318592 -1.098517 0
M  V30 61 H -2.302488 -2.806697 0.145513 0
M  V30 62 H -5.202121 -0.390486 0.732365 0
M  V30 63 H -6.710378 -0.603305 2.611354 0
M  V30 64 H -7.390678 -1.769196 4.604596 0
M  V30 65 H -7.003521 -3.598797 6.140035 0
M  V30 66 H -3.624238 -4.963425 3.902068 0
M  V30 67 H -3.044168 -3.783204 2.003211 0
M  V30 68 H -3.704088 -3.108253 -1.655095 0
M  V30 69 H -4.570444 -1.584074 -1.482754 0
M  V30 70 H -2.799537 -0.489624 -2.668412 0
M  V30 71 H -2.127189 -2.157285 -2.956084 0
M  V30 72 H -0.951988 -2.176484 -0.879746 0
M  V30 73 H 4.614961 -0.741901 -2.025015 0
M  V30 74 H 4.123232 1.000463 -2.256583 0
M  V30 END ATOM
M  V30 BEGIN BOND
M  V30 1 1 1 2
M  V30 2 1 2 3
M  V30 3 1 2 4
M  V30 4 1 4 5
M  V30 5 1 5 6
M  V30 6 1 6 7
M  V30 7 1 7 8 CFG=3
M  V30 8 1 7 9
M  V30 9 1 9 10
M  V30 10 1 10 11
M  V30 11 1 11 12
M  V30 12 1 12 13
M  V30 13 1 13 14
M  V30 14 1 14 15
M  V30 15 1 15 16
M  V30 16 1 16 17 CFG=3
M  V30 17 1 16 18
M  V30 18 1 18 19
M  V30 19 2 19 20
M  V30 20 1 20 21
M  V30 21 2 21 22
M  V30 22 1 22 23
M  V30 23 2 23 24
M  V30 24 1 24 25
M  V30 25 2 25 26
M  V30 26 1 26 27
M  V30 27 2 27 28
M  V30 28 1 18 29
M  V30 29 1 29 30
M  V30 30 1 30 31
M  V30 31 1 9 32
M  V30 32 1 32 4
M  V30 33 1 13 7
M  V30 34 1 31 16
M  V30 35 1 31 12
M  V30 36 1 28 19
M  V30 37 1 27 22
M  V30 38 1 1 33
M  V30 39 1 1 34
M  V30 40 1 1 35
M  V30 41 1 3 36
M  V30 42 1 3 37
M  V30 43 1 3 38
M  V30 44 1 4 39 CFG=1
M  V30 45 1 5 40
M  V30 46 1 5 41
M  V30 47 1 6 42
M  V30 48 1 6 43
M  V30 49 1 8 44
M  V30 50 1 8 45
M  V30 51 1 8 46
M  V30 52 1 9 47 CFG=1
M  V30 53 1 10 48
M  V30 54 1 10 49
M  V30 55 1 11 50
M  V30 56 1 11 51
M  V30 57 1 12 52 CFG=3
M  V30 58 1 13 53 CFG=1
M  V30 59 1 14 54
M  V30 60 1 14 55
M  V30 61 1 15 56
M  V30 62 1 15 57
M  V30 63 1 17 58
M  V30 64 1 17 59
M  V30 65 1 17 60
M  V30 66 1 18 61 CFG=1
M  V30 67 1 20 62
M  V30 68 1 21 63
M  V30 69 1 23 64
M  V30 70 1 24 65
M  V30 71 1 26 66
M  V30 72 1 28 67
M  V30 73 1 29 68
M  V30 74 1 29 69
M  V30 75 1 30 70
M  V30 76 1 30 71
M  V30 77 1 31 72 CFG=1
M  V30 78 1 32 73
M  V30 79 1 32 74
M  V30 END BOND
M  V30 END CTAB
M  END
>  <Dataset>  (316) 
ChEMBL_Kinases

>  <Ligand_Instance>  (316) 
nan

>  <PDB_ID>  (316) 
nan

>  <Standardized_SMILES>  (316) 
CN(C)[C@H]1CC[C@@]2(C)[C@@H](CC[C@@H]3[C@@H]2CC[C@]2(C)[C@@H](c4ccc5ccncc5c4)CC[C@@H]32)C1

>  <Name>  (316) 
nan

>  <Pocket>  (316) 
nan

>  <ATP_Site>  (316) 
nan

>  <Peripheral>  (316) 
nan

>  <Num_H_Atoms_ProtBoundConf>  (316) 
nan

>  <Num_Resolved_Atoms>  (316) 
nan

>  <Num_Not_Resolved_Atoms>  (316) 
nan

$$$$
CHEMBL4162573
     RDKit          3D

  0  0  0  0  0  0  0  0  0  0999 V3000
M  V30 BEGIN CTAB
M  V30 COUNTS 67 72 0 0 0
M  V30 BEGIN ATOM
M  V30 1 C 1.359954 -6.872380 3.062553 0
M  V30 2 O 2.720683 -6.596017 3.366755 0
M  V30 3 C 3.437018 -5.630387 2.677816 0
M  V30 4 C 2.731535 -4.975685 1.701051 0
M  V30 5 C 3.400225 -3.986152 0.966477 0
M  V30 6 C 4.722730 -3.656139 1.191360 0
M  V30 7 N 5.388161 -2.635569 0.432070 0
M  V30 8 N 4.534813 -2.038239 -0.493212 0
M  V30 9 C 4.656154 -0.848983 -0.960711 0
M  V30 10 C 3.523725 -0.662450 -1.902083 0
M  V30 11 C 3.530418 -0.715118 -3.301939 0
M  V30 12 C 4.745999 -0.967630 -4.115311 0
M  V30 13 N 2.254669 -0.491081 -3.672424 0
M  V30 14 N 1.463994 -0.306359 -2.636824 0
M  V30 15 C 0.068460 -0.060943 -2.681294 0
M  V30 16 C -0.623214 1.100756 -2.570040 0
M  V30 17 C -1.997349 1.220367 -2.626882 0
M  V30 18 C -2.640275 -0.008853 -2.816849 0
M  V30 19 C -2.039865 -1.241391 -2.941888 0
M  V30 20 C -0.666417 -1.220535 -2.867471 0
M  V30 21 C 2.197738 -0.401656 -1.509340 0
M  V30 22 O 1.897721 -0.301127 -0.193650 0
M  V30 23 C 0.640913 -0.020620 0.299210 0
M  V30 24 C -0.452658 -0.817275 0.561437 0
M  V30 25 C -1.605707 -0.252414 1.066713 0
M  V30 26 C -1.660300 1.107998 1.307941 0
M  V30 27 C -2.898795 1.663494 1.846763 0
M  V30 28 N -4.037671 1.011644 2.132818 0
M  V30 29 C -4.966841 1.882680 2.622301 0
M  V30 30 C -6.275953 1.746577 3.063137 0
M  V30 31 C -6.938407 2.870899 3.504221 0
M  V30 32 N -8.282578 2.706820 3.952287 0 CHG=1 VAL=4
M  V30 33 O -8.855740 1.599262 3.955125 0
M  V30 34 O -9.035422 3.762721 4.410783 0 CHG=-1 VAL=1
M  V30 35 C -6.385022 4.133560 3.537876 0
M  V30 36 C -5.083261 4.220465 3.090562 0
M  V30 37 C -4.350545 3.140901 2.632608 0
M  V30 38 N -3.103457 2.973885 2.158655 0
M  V30 39 C -0.589877 1.940503 1.059072 0
M  V30 40 C 0.574639 1.357268 0.546807 0
M  V30 41 C 5.347604 -4.376084 2.200595 0
M  V30 42 C 4.755268 -5.358271 2.960634 0
M  V30 43 H 0.689906 -6.017730 3.222814 0
M  V30 44 H 1.064928 -7.721405 3.700698 0
M  V30 45 H 1.256646 -7.199854 1.994909 0
M  V30 46 H 1.689254 -5.188218 1.472937 0
M  V30 47 H 2.810025 -3.483528 0.195541 0
M  V30 48 H 6.393024 -2.480395 0.667126 0
M  V30 49 H 5.482100 -0.239971 -0.634700 0
M  V30 50 H 4.457915 -1.243154 -5.163329 0
M  V30 51 H 5.317906 -0.010411 -4.191918 0
M  V30 52 H 5.375394 -1.761364 -3.704058 0
M  V30 53 H 0.004268 1.973994 -2.423919 0
M  V30 54 H -2.479761 2.167989 -2.531216 0
M  V30 55 H -3.732711 0.020728 -2.869923 0
M  V30 56 H -2.641445 -2.119392 -3.084407 0
M  V30 57 H -0.213335 -2.223535 -2.972633 0
M  V30 58 H -0.240593 -1.847053 0.318494 0
M  V30 59 H -2.409688 -0.950651 1.242246 0
M  V30 60 H -6.756940 0.777553 3.057813 0
M  V30 61 H -6.890306 5.025163 3.880691 0
M  V30 62 H -4.533529 5.168231 3.069773 0
M  V30 63 H -2.418349 3.750751 2.056412 0
M  V30 64 H -0.697041 2.998168 1.268923 0
M  V30 65 H 1.350028 2.120799 0.390796 0
M  V30 66 H 6.379661 -4.129528 2.390184 0
M  V30 67 H 5.290336 -5.885846 3.733812 0
M  V30 END ATOM
M  V30 BEGIN BOND
M  V30 1 1 1 2
M  V30 2 1 2 3
M  V30 3 2 3 4
M  V30 4 1 4 5
M  V30 5 2 5 6
M  V30 6 1 6 7
M  V30 7 1 7 8
M  V30 8 2 8 9
M  V30 9 1 9 10
M  V30 10 1 10 11
M  V30 11 1 11 12
M  V30 12 2 11 13
M  V30 13 1 13 14
M  V30 14 1 14 15
M  V30 15 2 15 16
M  V30 16 1 16 17
M  V30 17 2 17 18
M  V30 18 1 18 19
M  V30 19 2 19 20
M  V30 20 1 14 21
M  V30 21 1 21 22
M  V30 22 1 22 23
M  V30 23 2 23 24
M  V30 24 1 24 25
M  V30 25 2 25 26
M  V30 26 1 26 27
M  V30 27 2 27 28
M  V30 28 1 28 29
M  V30 29 2 29 30
M  V30 30 1 30 31
M  V30 31 1 31 32
M  V30 32 2 32 33
M  V30 33 1 32 34
M  V30 34 2 31 35
M  V30 35 1 35 36
M  V30 36 2 36 37
M  V30 37 1 37 38
M  V30 38 1 26 39
M  V30 39 2 39 40
M  V30 40 1 6 41
M  V30 41 2 41 42
M  V30 42 1 42 3
M  V30 43 2 21 10
M  V30 44 1 40 23
M  V30 45 1 20 15
M  V30 46 1 38 27
M  V30 47 1 37 29
M  V30 48 1 1 43
M  V30 49 1 1 44
M  V30 50 1 1 45
M  V30 51 1 4 46
M  V30 52 1 5 47
M  V30 53 1 7 48
M  V30 54 1 9 49
M  V30 55 1 12 50
M  V30 56 1 12 51
M  V30 57 1 12 52
M  V30 58 1 16 53
M  V30 59 1 17 54
M  V30 60 1 18 55
M  V30 61 1 19 56
M  V30 62 1 20 57
M  V30 63 1 24 58
M  V30 64 1 25 59
M  V30 65 1 30 60
M  V30 66 1 35 61
M  V30 67 1 36 62
M  V30 68 1 38 63
M  V30 69 1 39 64
M  V30 70 1 40 65
M  V30 71 1 41 66
M  V30 72 1 42 67
M  V30 END BOND
M  V30 END CTAB
M  END
>  <Dataset>  (317) 
ChEMBL_Kinases

>  <Ligand_Instance>  (317) 
nan

>  <PDB_ID>  (317) 
nan

>  <Standardized_SMILES>  (317) 
COc1ccc(N/N=C/c2c(C)nn(-c3ccccc3)c2Oc2ccc(-c3nc4cc([N+](=O)[O-])ccc4[nH]3)cc2)cc1

>  <Name>  (317) 
nan

>  <Pocket>  (317) 
nan

>  <ATP_Site>  (317) 
nan

>  <Peripheral>  (317) 
nan

>  <Num_H_Atoms_ProtBoundConf>  (317) 
nan

>  <Num_Resolved_Atoms>  (317) 
nan

>  <Num_Not_Resolved_Atoms>  (317) 
nan

$$$$
CHEMBL4788570
     RDKit          3D

  0  0  0  0  0  0  0  0  0  0999 V3000
M  V30 BEGIN CTAB
M  V30 COUNTS 39 42 0 0 0
M  V30 BEGIN ATOM
M  V30 1 O 2.207978 3.304595 3.460989 0
M  V30 2 C 1.928571 2.426597 2.573747 0
M  V30 3 N 2.852772 1.693527 1.833083 0
M  V30 4 C 2.386445 0.865312 0.996340 0
M  V30 5 N 3.125446 -0.000851 0.121201 0
M  V30 6 C 4.341625 -0.628585 0.603476 0
M  V30 7 C 4.849007 -1.464526 -0.546615 0
M  V30 8 C 4.472155 -2.800272 -0.735255 0
M  V30 9 C 5.155247 -3.196865 -1.891341 0
M  V30 10 O 5.871639 -2.192046 -2.348295 0
M  V30 11 C 5.727287 -1.123892 -1.580474 0
M  V30 12 S 0.572641 0.895381 1.030542 0
M  V30 13 C 0.516693 2.174499 2.319335 0
M  V30 14 C -0.630693 2.616356 2.761819 0
M  V30 15 C -1.907226 2.084797 2.228516 0
M  V30 16 C -3.140597 2.603826 1.924133 0
M  V30 17 C -3.866741 1.540519 1.464108 0
M  V30 18 C -3.092006 0.412620 1.491069 0
M  V30 19 C -3.334688 -0.991865 1.120884 0
M  V30 20 C -2.271063 -1.883314 1.290558 0
M  V30 21 C -2.439828 -3.223807 0.956506 0
M  V30 22 C -3.659866 -3.688064 0.454313 0
M  V30 23 C -4.636630 -2.729597 0.327848 0
M  V30 24 Cl -6.182947 -3.308449 -0.307134 0
M  V30 25 C -4.553421 -1.394358 0.631848 0
M  V30 26 O -1.958380 0.820482 1.952454 0
M  V30 27 H 2.737224 -0.140721 -0.849022 0
M  V30 28 H 5.091500 0.123277 0.927591 0
M  V30 29 H 4.177544 -1.311537 1.457848 0
M  V30 30 H 3.800501 -3.444222 -0.150410 0
M  V30 31 H 5.075065 -4.201803 -2.314767 0
M  V30 32 H 6.164975 -0.135590 -1.660004 0
M  V30 33 H -0.533375 3.378575 3.525309 0
M  V30 34 H -3.352743 3.647567 2.068564 0
M  V30 35 H -4.889179 1.563381 1.128132 0
M  V30 36 H -1.287640 -1.589884 1.678098 0
M  V30 37 H -1.585887 -3.896496 1.101014 0
M  V30 38 H -3.765366 -4.732290 0.202530 0
M  V30 39 H -5.379073 -0.713079 0.497575 0
M  V30 END ATOM
M  V30 BEGIN BOND
M  V30 1 2 1 2
M  V30 2 1 2 3
M  V30 3 2 3 4
M  V30 4 1 4 5
M  V30 5 1 5 6
M  V30 6 1 6 7
M  V30 7 1 7 8
M  V30 8 2 8 9
M  V30 9 1 9 10
M  V30 10 1 10 11
M  V30 11 1 4 12
M  V30 12 1 12 13
M  V30 13 2 13 14
M  V30 14 1 14 15
M  V30 15 2 15 16
M  V30 16 1 16 17
M  V30 17 2 17 18
M  V30 18 1 18 19
M  V30 19 2 19 20
M  V30 20 1 20 21
M  V30 21 2 21 22
M  V30 22 1 22 23
M  V30 23 1 23 24
M  V30 24 2 23 25
M  V30 25 1 18 26
M  V30 26 1 13 2
M  V30 27 1 26 15
M  V30 28 2 11 7
M  V30 29 1 25 19
M  V30 30 1 5 27
M  V30 31 1 6 28
M  V30 32 1 6 29
M  V30 33 1 8 30
M  V30 34 1 9 31
M  V30 35 1 11 32
M  V30 36 1 14 33
M  V30 37 1 16 34
M  V30 38 1 17 35
M  V30 39 1 20 36
M  V30 40 1 21 37
M  V30 41 1 22 38
M  V30 42 1 25 39
M  V30 END BOND
M  V30 END CTAB
M  END
>  <Dataset>  (318) 
ChEMBL_Kinases

>  <Ligand_Instance>  (318) 
nan

>  <PDB_ID>  (318) 
nan

>  <Standardized_SMILES>  (318) 
O=C1N=C(NCc2ccoc2)S/C1=C\c1ccc(-c2cccc(Cl)c2)o1

>  <Name>  (318) 
nan

>  <Pocket>  (318) 
nan

>  <ATP_Site>  (318) 
nan

>  <Peripheral>  (318) 
nan

>  <Num_H_Atoms_ProtBoundConf>  (318) 
nan

>  <Num_Resolved_Atoms>  (318) 
nan

>  <Num_Not_Resolved_Atoms>  (318) 
nan

$$$$
CHEMBL4788633
     RDKit          3D

  0  0  0  0  0  0  0  0  0  0999 V3000
M  V30 BEGIN CTAB
M  V30 COUNTS 45 47 0 0 0
M  V30 BEGIN ATOM
M  V30 1 O 0.993821 -5.010060 -0.016811 0
M  V30 2 C 2.261744 -4.314210 -0.141843 0
M  V30 3 C 2.531385 -4.116560 -1.580548 0
M  V30 4 C 3.771970 -3.517710 -2.043759 0
M  V30 5 C 4.273424 -2.177515 -1.811583 0
M  V30 6 C 4.617788 -1.639040 -0.487287 0
M  V30 7 N 3.615585 -1.458201 0.499263 0
M  V30 8 C 2.515702 -0.581743 0.226453 0
M  V30 9 N 2.405325 0.077967 -0.936747 0
M  V30 10 C 1.401444 0.905098 -1.239674 0
M  V30 11 C 0.397742 1.115048 -0.316768 0
M  V30 12 C 0.492557 0.445463 0.886827 0
M  V30 13 C -0.537727 0.622437 1.910626 0
M  V30 14 C -0.539666 0.002535 3.144511 0
M  V30 15 N -1.650876 0.435357 3.768016 0
M  V30 16 N -2.318953 1.282179 2.977727 0
M  V30 17 C -3.537916 1.994622 3.189606 0
M  V30 18 C -4.684939 1.372243 2.710066 0
M  V30 19 C -5.900695 2.030810 2.894065 0
M  V30 20 C -5.955800 3.256854 3.530589 0
M  V30 21 C -4.814174 3.874425 4.006888 0
M  V30 22 C -3.595034 3.226620 3.828988 0
M  V30 23 F -2.442564 3.784969 4.275624 0
M  V30 24 C -1.652190 1.429957 1.794231 0
M  V30 25 N 1.534862 -0.373621 1.122464 0
M  V30 26 H 0.962610 -5.683913 -0.743132 0
M  V30 27 H 3.025114 -4.960326 0.305716 0
M  V30 28 H 2.083516 -3.413943 0.452418 0
M  V30 29 H 1.659005 -3.537304 -2.068801 0
M  V30 30 H 2.393730 -5.127243 -2.124296 0
M  V30 31 H 3.833756 -3.714615 -3.208269 0
M  V30 32 H 4.644139 -4.226239 -1.705492 0
M  V30 33 H 5.234089 -2.049563 -2.461669 0
M  V30 34 H 3.543585 -1.456962 -2.347300 0
M  V30 35 H 5.185483 -0.641450 -0.589921 0
M  V30 36 H 5.431616 -2.330000 -0.056272 0
M  V30 37 H 3.655733 -1.939373 1.423549 0
M  V30 38 H 1.376615 1.407027 -2.203653 0
M  V30 39 H -0.437504 1.780306 -0.523263 0
M  V30 40 H 0.185444 -0.696442 3.565025 0
M  V30 41 H -4.664362 0.414718 2.209957 0
M  V30 42 H -6.784932 1.526330 2.511425 0
M  V30 43 H -6.918242 3.743347 3.657939 0
M  V30 44 H -4.867670 4.836224 4.504852 0
M  V30 45 H -1.895703 2.028490 0.930406 0
M  V30 END ATOM
M  V30 BEGIN BOND
M  V30 1 1 1 2
M  V30 2 1 2 3
M  V30 3 1 3 4
M  V30 4 1 4 5
M  V30 5 1 5 6
M  V30 6 1 6 7
M  V30 7 1 7 8
M  V30 8 2 8 9
M  V30 9 1 9 10
M  V30 10 2 10 11
M  V30 11 1 11 12
M  V30 12 1 12 13
M  V30 13 1 13 14
M  V30 14 2 14 15
M  V30 15 1 15 16
M  V30 16 1 16 17
M  V30 17 2 17 18
M  V30 18 1 18 19
M  V30 19 2 19 20
M  V30 20 1 20 21
M  V30 21 2 21 22
M  V30 22 1 22 23
M  V30 23 1 16 24
M  V30 24 2 12 25
M  V30 25 1 25 8
M  V30 26 2 24 13
M  V30 27 1 22 17
M  V30 28 1 1 26
M  V30 29 1 2 27
M  V30 30 1 2 28
M  V30 31 1 3 29
M  V30 32 1 3 30
M  V30 33 1 4 31
M  V30 34 1 4 32
M  V30 35 1 5 33
M  V30 36 1 5 34
M  V30 37 1 6 35
M  V30 38 1 6 36
M  V30 39 1 7 37
M  V30 40 1 10 38
M  V30 41 1 11 39
M  V30 42 1 14 40
M  V30 43 1 18 41
M  V30 44 1 19 42
M  V30 45 1 20 43
M  V30 46 1 21 44
M  V30 47 1 24 45
M  V30 END BOND
M  V30 END CTAB
M  END
>  <Dataset>  (319) 
ChEMBL_Kinases

>  <Ligand_Instance>  (319) 
nan

>  <PDB_ID>  (319) 
nan

>  <Standardized_SMILES>  (319) 
OCCCCCNc1nccc(-c2cnn(-c3ccccc3F)c2)n1

>  <Name>  (319) 
nan

>  <Pocket>  (319) 
nan

>  <ATP_Site>  (319) 
nan

>  <Peripheral>  (319) 
nan

>  <Num_H_Atoms_ProtBoundConf>  (319) 
nan

>  <Num_Resolved_Atoms>  (319) 
nan

>  <Num_Not_Resolved_Atoms>  (319) 
nan

$$$$
CHEMBL4162472
     RDKit          3D

  0  0  0  0  0  0  0  0  0  0999 V3000
M  V30 BEGIN CTAB
M  V30 COUNTS 61 66 0 0 0
M  V30 BEGIN ATOM
M  V30 1 C 0.994422 0.954018 2.127593 0
M  V30 2 C -0.437679 0.553480 2.100130 0 CFG=2
M  V30 3 C -1.194240 1.617570 2.910317 0
M  V30 4 C -0.569292 1.823909 4.250047 0
M  V30 5 C -0.336366 0.587967 5.053281 0 CFG=2
M  V30 6 O 0.792493 0.837362 5.864817 0
M  V30 7 C -0.062360 -0.660117 4.298476 0
M  V30 8 C -0.635841 -0.679212 2.914752 0
M  V30 9 C -1.278945 -1.765326 2.490512 0
M  V30 10 C -1.872226 -1.843764 1.127564 0
M  V30 11 C -0.998126 -1.002651 0.229629 0 CFG=2
M  V30 12 C -1.019688 0.434932 0.718601 0 CFG=2
M  V30 13 C -0.548451 1.440815 -0.248316 0
M  V30 14 C -0.067012 1.022786 -1.586664 0
M  V30 15 C -0.321983 -0.399577 -1.964744 0 CFG=2
M  V30 16 C 0.916841 -1.244605 -1.785447 0
M  V30 17 C -0.815734 -0.666810 -3.311455 0
M  V30 18 C -0.511462 -0.095715 -4.620096 0
M  V30 19 C 0.447254 0.868012 -4.832656 0
M  V30 20 C 0.757419 1.443124 -6.044495 0
M  V30 21 C 0.071293 1.046897 -7.169408 0
M  V30 22 C 0.118119 1.398016 -8.501401 0
M  V30 23 N -0.812588 0.648180 -9.105573 0
M  V30 24 N -1.431445 -0.138538 -8.254789 0
M  V30 25 C -0.904461 0.084889 -7.038122 0
M  V30 26 C -1.149642 -0.435679 -5.792188 0
M  V30 27 C -1.726982 -1.643641 -3.290431 0
M  V30 28 C -1.882821 -2.085550 -1.885366 0
M  V30 29 C -1.508371 -0.882937 -1.158849 0 CFG=1
M  V30 30 H 1.143558 2.059383 2.104749 0
M  V30 31 H 1.631111 0.436004 1.376199 0
M  V30 32 H 1.425194 0.654117 3.105726 0
M  V30 33 H -2.259921 1.307861 3.056301 0
M  V30 34 H -1.180100 2.560536 2.366842 0
M  V30 35 H -1.276512 2.466692 4.818470 0
M  V30 36 H 0.356025 2.468888 4.181531 0
M  V30 37 H -1.170349 0.433810 5.786535 0
M  V30 38 H 1.064863 1.786348 5.844241 0
M  V30 39 H 1.029756 -0.946157 4.299435 0
M  V30 40 H -0.517922 -1.516592 4.881018 0
M  V30 41 H -1.366481 -2.609538 3.165400 0
M  V30 42 H -2.938161 -1.551046 1.095055 0
M  V30 43 H -1.818316 -2.907932 0.753802 0
M  V30 44 H 0.030070 -1.341082 0.343701 0
M  V30 45 H -2.130950 0.602431 0.865431 0
M  V30 46 H -1.312792 2.262156 -0.398963 0
M  V30 47 H 0.284415 2.016762 0.257988 0
M  V30 48 H -0.539350 1.639333 -2.380085 0
M  V30 49 H 1.024902 1.190684 -1.679571 0
M  V30 50 H 1.680600 -0.686157 -1.192881 0
M  V30 51 H 1.417454 -1.448711 -2.777427 0
M  V30 52 H 0.756384 -2.225404 -1.344688 0
M  V30 53 H 1.056581 1.250565 -4.037909 0
M  V30 54 H 1.515232 2.199054 -6.185069 0
M  V30 55 H 0.799590 2.143249 -8.912015 0
M  V30 56 H -2.196835 -0.815284 -8.490810 0
M  V30 57 H -1.941594 -1.198531 -5.762259 0
M  V30 58 H -2.352975 -2.168250 -4.027080 0
M  V30 59 H -1.194472 -2.947521 -1.737389 0
M  V30 60 H -2.927680 -2.365468 -1.616080 0
M  V30 61 H -2.286922 -0.117812 -1.266793 0
M  V30 END ATOM
M  V30 BEGIN BOND
M  V30 1 1 2 1 CFG=3
M  V30 2 1 2 3
M  V30 3 1 3 4
M  V30 4 1 4 5
M  V30 5 1 5 6
M  V30 6 1 5 7
M  V30 7 1 7 8
M  V30 8 2 8 9
M  V30 9 1 9 10
M  V30 10 1 10 11
M  V30 11 1 11 12
M  V30 12 1 12 13
M  V30 13 1 13 14
M  V30 14 1 14 15
M  V30 15 1 15 16 CFG=1
M  V30 16 1 15 17
M  V30 17 1 17 18
M  V30 18 2 18 19
M  V30 19 1 19 20
M  V30 20 2 20 21
M  V30 21 1 21 22
M  V30 22 2 22 23
M  V30 23 1 23 24
M  V30 24 1 24 25
M  V30 25 2 25 26
M  V30 26 2 17 27
M  V30 27 1 27 28
M  V30 28 1 28 29
M  V30 29 1 8 2
M  V30 30 1 29 11
M  V30 31 1 12 2
M  V30 32 1 29 15
M  V30 33 1 26 18
M  V30 34 1 25 21
M  V30 35 1 1 30
M  V30 36 1 1 31
M  V30 37 1 1 32
M  V30 38 1 3 33
M  V30 39 1 3 34
M  V30 40 1 4 35
M  V30 41 1 4 36
M  V30 42 1 5 37 CFG=1
M  V30 43 1 6 38
M  V30 44 1 7 39
M  V30 45 1 7 40
M  V30 46 1 9 41
M  V30 47 1 10 42
M  V30 48 1 10 43
M  V30 49 1 11 44 CFG=3
M  V30 50 1 12 45 CFG=1
M  V30 51 1 13 46
M  V30 52 1 13 47
M  V30 53 1 14 48
M  V30 54 1 14 49
M  V30 55 1 16 50
M  V30 56 1 16 51
M  V30 57 1 16 52
M  V30 58 1 19 53
M  V30 59 1 20 54
M  V30 60 1 22 55
M  V30 61 1 24 56
M  V30 62 1 26 57
M  V30 63 1 27 58
M  V30 64 1 28 59
M  V30 65 1 28 60
M  V30 66 1 29 61 CFG=1
M  V30 END BOND
M  V30 END CTAB
M  END
>  <Dataset>  (320) 
ChEMBL_Kinases

>  <Ligand_Instance>  (320) 
nan

>  <PDB_ID>  (320) 
nan

>  <Standardized_SMILES>  (320) 
C[C@]12CC[C@H](O)CC1=CC[C@@H]1[C@@H]2CC[C@]2(C)C(c3ccc4cn[nH]c4c3)=CC[C@@H]12

>  <Name>  (320) 
nan

>  <Pocket>  (320) 
nan

>  <ATP_Site>  (320) 
nan

>  <Peripheral>  (320) 
nan

>  <Num_H_Atoms_ProtBoundConf>  (320) 
nan

>  <Num_Resolved_Atoms>  (320) 
nan

>  <Num_Not_Resolved_Atoms>  (320) 
nan

$$$$
CHEMBL4162429
     RDKit          3D

  0  0  0  0  0  0  0  0  0  0999 V3000
M  V30 BEGIN CTAB
M  V30 COUNTS 69 75 0 0 0
M  V30 BEGIN ATOM
M  V30 1 C 5.423746 -0.994319 3.659125 0
M  V30 2 N 5.832078 -1.071274 2.290061 0
M  V30 3 C 5.904567 -2.480717 1.951279 0
M  V30 4 C 4.907900 -0.434176 1.379942 0 CFG=1
M  V30 5 C 3.550505 -1.053943 1.446838 0
M  V30 6 C 2.619224 -0.506593 0.419428 0 CFG=1
M  V30 7 C 2.608102 -1.372045 -0.821812 0
M  V30 8 C 1.191289 -1.137103 -1.363503 0
M  V30 9 C 0.491101 -0.484767 -0.221850 0 CFG=1
M  V30 10 O 1.333409 -0.706349 0.896076 0
M  V30 11 C 0.511459 0.991563 -0.390512 0
M  V30 12 C -0.597441 1.668473 -0.451745 0
M  V30 13 C -1.941395 1.097688 -0.366495 0
M  V30 14 C -2.031188 -0.383535 -0.518679 0 CFG=2
M  V30 15 C -2.168676 -0.742678 -1.967788 0
M  V30 16 C -3.089305 -0.921716 0.368035 0
M  V30 17 C -4.488378 -1.251753 0.176068 0
M  V30 18 C -5.261096 -1.775644 1.189065 0
M  V30 19 C -6.610245 -2.094233 1.031712 0
M  V30 20 C -7.238664 -1.893827 -0.168638 0
M  V30 21 C -8.572362 -2.221657 -0.282272 0
M  V30 22 C -9.175190 -2.009193 -1.498430 0
M  V30 23 N -8.459410 -1.492683 -2.537428 0
M  V30 24 C -7.145033 -1.178788 -2.395751 0
M  V30 25 C -6.503891 -1.370666 -1.212381 0
M  V30 26 C -5.173355 -1.073158 -1.002971 0
M  V30 27 C -2.577636 -1.122745 1.597879 0
M  V30 28 C -1.136097 -0.716577 1.568026 0
M  V30 29 C -0.825933 -1.037831 0.119031 0
M  V30 30 C 1.831227 1.610949 -0.468439 0
M  V30 31 C 2.811332 0.911746 0.120735 0
M  V30 32 C 4.068858 1.642626 0.440729 0 CFG=1
M  V30 33 O 3.815600 2.969700 0.731238 0
M  V30 34 C 4.766555 1.040306 1.641875 0 CFG=2
M  V30 35 O 6.011678 1.641969 1.771444 0
M  V30 36 H 4.551919 -1.620282 3.912760 0
M  V30 37 H 6.259842 -1.382445 4.278577 0
M  V30 38 H 5.246814 0.035939 4.020758 0
M  V30 39 H 6.974061 -2.769651 2.084431 0
M  V30 40 H 5.667049 -2.661488 0.898503 0
M  V30 41 H 5.290750 -3.096998 2.666987 0
M  V30 42 H 5.292717 -0.563258 0.347491 0
M  V30 43 H 3.099094 -0.961291 2.465460 0
M  V30 44 H 3.598597 -2.165109 1.264171 0
M  V30 45 H 2.725238 -2.425837 -0.484099 0
M  V30 46 H 3.388390 -1.096560 -1.540502 0
M  V30 47 H 0.726230 -2.131392 -1.610089 0
M  V30 48 H 1.316300 -0.495962 -2.260358 0
M  V30 49 H -0.505118 2.735127 -0.575765 0
M  V30 50 H -2.450465 1.397967 0.595126 0
M  V30 51 H -2.557694 1.629844 -1.147804 0
M  V30 52 H -1.101820 -0.805643 -2.352690 0
M  V30 53 H -2.581058 0.117153 -2.531962 0
M  V30 54 H -2.594238 -1.716995 -2.182530 0
M  V30 55 H -4.872452 -1.975745 2.176940 0
M  V30 56 H -7.180487 -2.502613 1.849497 0
M  V30 57 H -9.098318 -2.626621 0.563361 0
M  V30 58 H -10.231988 -2.265854 -1.598384 0
M  V30 59 H -6.571907 -0.763746 -3.232596 0
M  V30 60 H -4.695629 -0.672929 -1.859838 0
M  V30 61 H -2.948084 -1.490594 2.555170 0
M  V30 62 H -0.499467 -1.285239 2.247991 0
M  V30 63 H -1.012322 0.357025 1.767724 0
M  V30 64 H -0.808731 -2.131146 -0.042744 0
M  V30 65 H 1.951457 2.551963 -0.967394 0
M  V30 66 H 4.774072 1.603004 -0.428799 0
M  V30 67 H 2.944595 3.124697 1.162080 0
M  V30 68 H 4.114293 1.252372 2.522344 0
M  V30 69 H 6.713868 0.949476 1.610614 0
M  V30 END ATOM
M  V30 BEGIN BOND
M  V30 1 1 1 2
M  V30 2 1 2 3
M  V30 3 1 2 4
M  V30 4 1 4 5
M  V30 5 1 6 5 CFG=1
M  V30 6 1 6 7
M  V30 7 1 7 8
M  V30 8 1 9 8 CFG=3
M  V30 9 1 9 10
M  V30 10 1 9 11
M  V30 11 2 11 12
M  V30 12 1 12 13
M  V30 13 1 13 14
M  V30 14 1 14 15 CFG=3
M  V30 15 1 14 16
M  V30 16 1 16 17
M  V30 17 2 17 18
M  V30 18 1 18 19
M  V30 19 2 19 20
M  V30 20 1 20 21
M  V30 21 2 21 22
M  V30 22 1 22 23
M  V30 23 2 23 24
M  V30 24 1 24 25
M  V30 25 2 25 26
M  V30 26 2 16 27
M  V30 27 1 27 28
M  V30 28 1 28 29
M  V30 29 1 11 30
M  V30 30 2 30 31
M  V30 31 1 31 32
M  V30 32 1 32 33
M  V30 33 1 32 34
M  V30 34 1 34 35
M  V30 35 1 34 4
M  V30 36 1 10 6
M  V30 37 1 29 14
M  V30 38 1 31 6
M  V30 39 1 29 9
M  V30 40 1 26 17
M  V30 41 1 25 20
M  V30 42 1 1 36
M  V30 43 1 1 37
M  V30 44 1 1 38
M  V30 45 1 3 39
M  V30 46 1 3 40
M  V30 47 1 3 41
M  V30 48 1 4 42 CFG=3
M  V30 49 1 5 43
M  V30 50 1 5 44
M  V30 51 1 7 45
M  V30 52 1 7 46
M  V30 53 1 8 47
M  V30 54 1 8 48
M  V30 55 1 12 49
M  V30 56 1 13 50
M  V30 57 1 13 51
M  V30 58 1 15 52
M  V30 59 1 15 53
M  V30 60 1 15 54
M  V30 61 1 18 55
M  V30 62 1 19 56
M  V30 63 1 21 57
M  V30 64 1 22 58
M  V30 65 1 24 59
M  V30 66 1 26 60
M  V30 67 1 27 61
M  V30 68 1 28 62
M  V30 69 1 28 63
M  V30 70 1 29 64
M  V30 71 1 30 65
M  V30 72 1 32 66 CFG=3
M  V30 73 1 33 67
M  V30 74 1 34 68 CFG=1
M  V30 75 1 35 69
M  V30 END BOND
M  V30 END CTAB
M  END
>  <Dataset>  (321) 
ChEMBL_Kinases

>  <Ligand_Instance>  (321) 
nan

>  <PDB_ID>  (321) 
nan

>  <Standardized_SMILES>  (321) 
CN(C)[C@H]1C[C@@]23CC[C@@]4(O2)C(=CC[C@]2(C)C(c5ccc6ccncc6c5)=CCC24)C=C3[C@@H](O)[C@@H]1O

>  <Name>  (321) 
nan

>  <Pocket>  (321) 
nan

>  <ATP_Site>  (321) 
nan

>  <Peripheral>  (321) 
nan

>  <Num_H_Atoms_ProtBoundConf>  (321) 
nan

>  <Num_Resolved_Atoms>  (321) 
nan

>  <Num_Not_Resolved_Atoms>  (321) 
nan

$$$$
CHEMBL4162300
     RDKit          3D

  0  0  0  0  0  0  0  0  0  0999 V3000
M  V30 BEGIN CTAB
M  V30 COUNTS 67 72 0 0 0
M  V30 BEGIN ATOM
M  V30 1 C 3.178852 2.085388 3.808751 0
M  V30 2 C 2.215958 1.369002 2.931067 0
M  V30 3 N 2.313714 0.103167 2.472804 0
M  V30 4 N 1.280580 -0.222297 1.714759 0
M  V30 5 C 1.271665 -1.523301 1.152322 0
M  V30 6 C 0.612471 -2.703055 1.433950 0
M  V30 7 C 0.826384 -3.825232 0.682892 0
M  V30 8 C 1.698677 -3.843382 -0.383502 0
M  V30 9 C 2.381587 -2.694647 -0.708123 0
M  V30 10 C 2.150795 -1.584520 0.060469 0
M  V30 11 C 0.464908 0.839101 1.656267 0
M  V30 12 O -0.724350 0.869110 0.953191 0
M  V30 13 C -1.273370 -0.176110 0.237147 0
M  V30 14 C -2.204827 -0.970762 0.875555 0
M  V30 15 C -2.801990 -2.035616 0.235117 0
M  V30 16 C -2.515084 -2.373767 -1.066334 0
M  V30 17 C -3.146710 -3.492769 -1.750825 0
M  V30 18 N -2.970239 -3.931218 -2.994943 0
M  V30 19 C -3.750197 -4.993577 -3.253605 0
M  V30 20 C -4.026449 -5.856655 -4.290593 0
M  V30 21 C -4.924334 -6.851459 -4.164952 0
M  V30 22 C -5.200362 -7.751782 -5.258945 0
M  V30 23 N -4.476504 -7.664056 -6.462229 0
M  V30 24 O -5.999105 -8.691676 -5.442076 0
M  V30 25 C -5.625197 -7.077989 -3.002527 0
M  V30 26 C -5.407809 -6.258590 -1.912650 0
M  V30 27 C -4.464861 -5.227005 -2.071314 0
M  V30 28 N -4.080141 -4.297784 -1.165072 0
M  V30 29 C -1.581485 -1.558532 -1.669789 0
M  V30 30 C -0.952111 -0.482260 -1.078193 0
M  V30 31 C 1.032778 1.836981 2.407055 0
M  V30 32 C 0.466811 3.167510 2.585560 0
M  V30 33 N 0.735794 4.193900 3.113300 0
M  V30 34 N 0.975940 5.331615 3.666124 0
M  V30 35 C 2.348669 5.509112 3.993873 0
M  V30 36 C 2.996066 5.454139 5.205179 0
M  V30 37 C 4.354790 5.633095 5.309738 0
M  V30 38 C 5.148002 5.879408 4.198514 0
M  V30 39 N 6.540824 6.065056 4.291468 0 CHG=1 VAL=4
M  V30 40 O 7.213663 6.039530 5.326626 0
M  V30 41 O 7.283421 6.305041 3.160943 0 CHG=-1 VAL=1
M  V30 42 C 4.513440 5.937283 2.975685 0
M  V30 43 C 3.133125 5.755186 2.872020 0
M  V30 44 H 3.841926 2.772505 3.286715 0
M  V30 45 H 2.566556 2.684628 4.546201 0
M  V30 46 H 3.694933 1.338348 4.466428 0
M  V30 47 H -0.038003 -2.547596 2.291478 0
M  V30 48 H 0.253076 -4.692407 0.992858 0
M  V30 49 H 1.822004 -4.778846 -0.943116 0
M  V30 50 H 3.055037 -2.754162 -1.549030 0
M  V30 51 H 2.760213 -0.739248 -0.306074 0
M  V30 52 H -2.498592 -0.785941 1.902966 0
M  V30 53 H -3.528786 -2.629597 0.782902 0
M  V30 54 H -3.456008 -5.649361 -5.186631 0
M  V30 55 H -3.972693 -7.617750 -7.346318 0
M  V30 56 H -4.087540 -7.717894 -7.416584 0
M  V30 57 H -6.324055 -7.900679 -3.000475 0
M  V30 58 H -5.944736 -6.425061 -1.013431 0
M  V30 59 H -4.459070 -4.232518 -0.175716 0
M  V30 60 H -1.306858 -1.770743 -2.702999 0
M  V30 61 H -0.225719 0.154169 -1.548721 0
M  V30 62 H -0.439236 3.639731 2.263823 0
M  V30 63 H 0.264574 6.076646 3.871490 0
M  V30 64 H 2.331806 5.259111 6.033557 0
M  V30 65 H 4.828398 5.584005 6.273669 0
M  V30 66 H 5.123375 6.127558 2.085397 0
M  V30 67 H 2.736368 5.819299 1.851681 0
M  V30 END ATOM
M  V30 BEGIN BOND
M  V30 1 1 1 2
M  V30 2 2 2 3
M  V30 3 1 3 4
M  V30 4 1 4 5
M  V30 5 2 5 6
M  V30 6 1 6 7
M  V30 7 2 7 8
M  V30 8 1 8 9
M  V30 9 2 9 10
M  V30 10 1 4 11
M  V30 11 1 11 12
M  V30 12 1 12 13
M  V30 13 2 13 14
M  V30 14 1 14 15
M  V30 15 2 15 16
M  V30 16 1 16 17
M  V30 17 2 17 18
M  V30 18 1 18 19
M  V30 19 2 19 20
M  V30 20 1 20 21
M  V30 21 1 21 22
M  V30 22 1 22 23
M  V30 23 2 22 24
M  V30 24 2 21 25
M  V30 25 1 25 26
M  V30 26 2 26 27
M  V30 27 1 27 28
M  V30 28 1 16 29
M  V30 29 2 29 30
M  V30 30 2 11 31
M  V30 31 1 31 32
M  V30 32 2 32 33
M  V30 33 1 33 34
M  V30 34 1 34 35
M  V30 35 2 35 36
M  V30 36 1 36 37
M  V30 37 2 37 38
M  V30 38 1 38 39
M  V30 39 2 39 40
M  V30 40 1 39 41
M  V30 41 1 38 42
M  V30 42 2 42 43
M  V30 43 1 31 2
M  V30 44 1 43 35
M  V30 45 1 10 5
M  V30 46 1 30 13
M  V30 47 1 28 17
M  V30 48 1 27 19
M  V30 49 1 1 44
M  V30 50 1 1 45
M  V30 51 1 1 46
M  V30 52 1 6 47
M  V30 53 1 7 48
M  V30 54 1 8 49
M  V30 55 1 9 50
M  V30 56 1 10 51
M  V30 57 1 14 52
M  V30 58 1 15 53
M  V30 59 1 20 54
M  V30 60 1 23 55
M  V30 61 1 23 56
M  V30 62 1 25 57
M  V30 63 1 26 58
M  V30 64 1 28 59
M  V30 65 1 29 60
M  V30 66 1 30 61
M  V30 67 1 32 62
M  V30 68 1 34 63
M  V30 69 1 36 64
M  V30 70 1 37 65
M  V30 71 1 42 66
M  V30 72 1 43 67
M  V30 END BOND
M  V30 END CTAB
M  END
>  <Dataset>  (322) 
ChEMBL_Kinases

>  <Ligand_Instance>  (322) 
nan

>  <PDB_ID>  (322) 
nan

>  <Standardized_SMILES>  (322) 
Cc1nn(-c2ccccc2)c(Oc2ccc(-c3nc4cc(C(N)=O)ccc4[nH]3)cc2)c1/C=N/Nc1ccc([N+](=O)[O-])cc1

>  <Name>  (322) 
nan

>  <Pocket>  (322) 
nan

>  <ATP_Site>  (322) 
nan

>  <Peripheral>  (322) 
nan

>  <Num_H_Atoms_ProtBoundConf>  (322) 
nan

>  <Num_Resolved_Atoms>  (322) 
nan

>  <Num_Not_Resolved_Atoms>  (322) 
nan

$$$$
CHEMBL4788447
     RDKit          3D

  0  0  0  0  0  0  0  0  0  0999 V3000
M  V30 BEGIN CTAB
M  V30 COUNTS 55 58 0 0 0
M  V30 BEGIN ATOM
M  V30 1 C 5.849397 -4.693995 0.350826 0
M  V30 2 C 5.130724 -4.133048 -0.604813 0
M  V30 3 C 4.733279 -2.781511 -0.882198 0
M  V30 4 O 4.038723 -2.750378 -1.929736 0
M  V30 5 N 5.109466 -1.721106 -0.055089 0
M  V30 6 C 5.912367 -1.741380 1.165092 0
M  V30 7 C 5.669891 -0.503607 1.998808 0
M  V30 8 C 4.254210 -0.014454 1.822834 0
M  V30 9 C 3.715887 0.048109 0.613776 0
M  V30 10 C 2.357343 0.508703 0.366094 0
M  V30 11 C 1.501538 0.924117 1.359949 0
M  V30 12 C 0.209635 1.362049 1.129868 0
M  V30 13 C -0.287785 1.399672 -0.157210 0
M  V30 14 C -1.665293 1.870440 -0.361792 0 CFG=2
M  V30 15 C -1.795562 3.315983 0.076962 0
M  V30 16 C -2.681609 1.092903 0.348021 0
M  V30 17 O -1.956006 0.225853 0.925527 0
M  V30 18 N -4.052790 1.397249 0.273808 0
M  V30 19 C -4.874390 0.516399 1.039709 0
M  V30 20 C -5.384859 -0.632178 0.468623 0
M  V30 21 C -6.139797 -1.308108 1.408365 0
M  V30 22 C -6.881924 -2.587680 1.259084 0
M  V30 23 C -7.474759 -2.797187 -0.101901 0
M  V30 24 C -6.339755 -3.633049 0.343056 0
M  V30 25 N -6.071095 -0.551783 2.534983 0
M  V30 26 N -5.317352 0.535214 2.315686 0
M  V30 27 C 0.541421 0.991068 -1.175899 0
M  V30 28 C 1.824300 0.561084 -0.902450 0
M  V30 29 C 4.639258 -0.395783 -0.459623 0
M  V30 30 H 6.300820 -5.550135 0.829745 0
M  V30 31 H 6.448643 -4.864732 1.218905 0
M  V30 32 H 4.947265 -5.067966 -1.108781 0
M  V30 33 H 6.969718 -1.756721 0.847904 0
M  V30 34 H 5.692952 -2.652903 1.722191 0
M  V30 35 H 6.349871 0.306720 1.737943 0
M  V30 36 H 5.762019 -0.832650 3.054578 0
M  V30 37 H 3.687473 0.283552 2.693415 0
M  V30 38 H 1.809107 0.926935 2.393568 0
M  V30 39 H -0.427866 1.681152 1.957900 0
M  V30 40 H -1.894726 1.837270 -1.434476 0
M  V30 41 H -1.906841 3.348001 1.189010 0
M  V30 42 H -0.856963 3.850521 -0.202489 0
M  V30 43 H -2.674556 3.818386 -0.371001 0
M  V30 44 H -4.295059 2.216847 -0.323161 0
M  V30 45 H -5.258076 -1.003496 -0.535171 0
M  V30 46 H -7.424725 -2.958784 2.150920 0
M  V30 47 H -7.307746 -2.052651 -0.884545 0
M  V30 48 H -8.485906 -3.241645 -0.109448 0
M  V30 49 H -5.306395 -3.431981 -0.028569 0
M  V30 50 H -6.507991 -4.702569 0.518154 0
M  V30 51 H -6.537660 -0.776731 3.452242 0
M  V30 52 H 0.122452 1.033671 -2.161009 0
M  V30 53 H 2.365442 0.272467 -1.767728 0
M  V30 54 H 5.558393 0.241104 -0.436319 0
M  V30 55 H 4.250972 -0.368194 -1.466888 0
M  V30 END ATOM
M  V30 BEGIN BOND
M  V30 1 2 1 2
M  V30 2 1 2 3
M  V30 3 2 3 4
M  V30 4 1 3 5
M  V30 5 1 5 6
M  V30 6 1 6 7
M  V30 7 1 7 8
M  V30 8 2 8 9
M  V30 9 1 9 10
M  V30 10 2 10 11
M  V30 11 1 11 12
M  V30 12 2 12 13
M  V30 13 1 13 14
M  V30 14 1 14 15
M  V30 15 1 14 16
M  V30 16 2 16 17
M  V30 17 1 16 18
M  V30 18 1 18 19
M  V30 19 1 19 20
M  V30 20 2 20 21
M  V30 21 1 21 22
M  V30 22 1 22 23
M  V30 23 1 23 24
M  V30 24 1 21 25
M  V30 25 1 25 26
M  V30 26 1 13 27
M  V30 27 2 27 28
M  V30 28 1 9 29
M  V30 29 1 29 5
M  V30 30 1 28 10
M  V30 31 2 26 19
M  V30 32 1 24 22
M  V30 33 1 1 30
M  V30 34 1 1 31
M  V30 35 1 2 32
M  V30 36 1 6 33
M  V30 37 1 6 34
M  V30 38 1 7 35
M  V30 39 1 7 36
M  V30 40 1 8 37
M  V30 41 1 11 38
M  V30 42 1 12 39
M  V30 43 1 14 40 CFG=3
M  V30 44 1 15 41
M  V30 45 1 15 42
M  V30 46 1 15 43
M  V30 47 1 18 44
M  V30 48 1 20 45
M  V30 49 1 22 46
M  V30 50 1 23 47
M  V30 51 1 23 48
M  V30 52 1 24 49
M  V30 53 1 24 50
M  V30 54 1 25 51
M  V30 55 1 27 52
M  V30 56 1 28 53
M  V30 57 1 29 54
M  V30 58 1 29 55
M  V30 END BOND
M  V30 END CTAB
M  END
>  <Dataset>  (323) 
ChEMBL_Kinases

>  <Ligand_Instance>  (323) 
nan

>  <PDB_ID>  (323) 
nan

>  <Standardized_SMILES>  (323) 
C=CC(=O)N1CCC=C(c2ccc([C@H](C)C(=O)Nc3cc(C4CC4)[nH]n3)cc2)C1

>  <Name>  (323) 
nan

>  <Pocket>  (323) 
nan

>  <ATP_Site>  (323) 
nan

>  <Peripheral>  (323) 
nan

>  <Num_H_Atoms_ProtBoundConf>  (323) 
nan

>  <Num_Resolved_Atoms>  (323) 
nan

>  <Num_Not_Resolved_Atoms>  (323) 
nan

$$$$
CHEMBL412265
     RDKit          3D

  0  0  0  0  0  0  0  0  0  0999 V3000
M  V30 BEGIN CTAB
M  V30 COUNTS 49 52 0 0 0
M  V30 BEGIN ATOM
M  V30 1 C 0.578261 -4.361016 3.394498 0
M  V30 2 N 0.774386 -2.948975 3.036118 0
M  V30 3 C 1.406703 -2.088670 3.984095 0
M  V30 4 O 1.785444 -2.522445 5.090205 0
M  V30 5 C 1.627083 -0.680096 3.687273 0
M  V30 6 C 2.239466 0.083729 4.682511 0
M  V30 7 C 2.485165 1.436682 4.496434 0
M  V30 8 C 2.121559 2.043907 3.312706 0
M  V30 9 C 2.370871 3.489992 3.074022 0
M  V30 10 C 1.505084 1.297358 2.298845 0
M  V30 11 N 1.122756 1.933031 1.060925 0
M  V30 12 C 0.539734 1.042451 0.121467 0
M  V30 13 N 1.381974 0.625652 -0.853298 0
M  V30 14 C 0.965255 -0.240378 -1.813167 0
M  V30 15 O 1.779400 -0.703494 -2.839440 0
M  V30 16 C 3.130516 -0.287522 -2.949407 0
M  V30 17 N -0.298045 -0.695661 -1.803254 0
M  V30 18 C -1.197897 -0.320579 -0.855601 0
M  V30 19 C -0.749082 0.560236 0.107489 0
M  V30 20 C -1.771876 0.837780 0.987272 0
M  V30 21 N -2.823304 0.125139 0.549506 0
M  V30 22 N -2.488133 -0.554799 -0.531233 0
M  V30 23 C -3.171829 -1.468399 -1.414052 0
M  V30 24 C -3.824477 -1.034024 -2.544589 0
M  V30 25 C -4.436684 -2.006396 -3.319173 0
M  V30 26 C -4.431449 -3.370648 -3.028253 0
M  V30 27 C -3.754678 -3.733043 -1.873434 0
M  V30 28 C -3.130818 -2.802209 -1.071619 0
M  V30 29 C 1.272238 -0.052409 2.512131 0
M  V30 30 H 0.178958 -4.448514 4.436520 0
M  V30 31 H -0.235737 -4.765274 2.747965 0
M  V30 32 H 1.538350 -4.872750 3.293948 0
M  V30 33 H 0.447386 -2.619706 2.101956 0
M  V30 34 H 2.551234 -0.335230 5.639722 0
M  V30 35 H 2.964016 2.029968 5.274257 0
M  V30 36 H 1.470431 4.103790 3.269443 0
M  V30 37 H 3.131972 3.812121 3.834125 0
M  V30 38 H 2.818094 3.672922 2.075380 0
M  V30 39 H 1.288743 2.933613 0.950061 0
M  V30 40 H 3.363965 0.423377 -2.121117 0
M  V30 41 H 3.863660 -1.090538 -2.881420 0
M  V30 42 H 3.284721 0.319294 -3.884844 0
M  V30 43 H -1.734411 1.491047 1.847093 0
M  V30 44 H -3.853337 0.011853 -2.808067 0
M  V30 45 H -4.940301 -1.665627 -4.194532 0
M  V30 46 H -4.937199 -4.054872 -3.694493 0
M  V30 47 H -3.783868 -4.815046 -1.695335 0
M  V30 48 H -2.630762 -3.190948 -0.193442 0
M  V30 49 H 0.799363 -0.652123 1.749404 0
M  V30 END ATOM
M  V30 BEGIN BOND
M  V30 1 1 1 2
M  V30 2 1 2 3
M  V30 3 2 3 4
M  V30 4 1 3 5
M  V30 5 2 5 6
M  V30 6 1 6 7
M  V30 7 2 7 8
M  V30 8 1 8 9
M  V30 9 1 8 10
M  V30 10 1 10 11
M  V30 11 1 11 12
M  V30 12 2 12 13
M  V30 13 1 13 14
M  V30 14 1 14 15
M  V30 15 1 15 16
M  V30 16 2 14 17
M  V30 17 1 17 18
M  V30 18 2 18 19
M  V30 19 1 19 20
M  V30 20 2 20 21
M  V30 21 1 21 22
M  V30 22 1 22 23
M  V30 23 2 23 24
M  V30 24 1 24 25
M  V30 25 2 25 26
M  V30 26 1 26 27
M  V30 27 2 27 28
M  V30 28 2 10 29
M  V30 29 1 29 5
M  V30 30 1 19 12
M  V30 31 1 28 23
M  V30 32 1 22 18
M  V30 33 1 1 30
M  V30 34 1 1 31
M  V30 35 1 1 32
M  V30 36 1 2 33
M  V30 37 1 6 34
M  V30 38 1 7 35
M  V30 39 1 9 36
M  V30 40 1 9 37
M  V30 41 1 9 38
M  V30 42 1 11 39
M  V30 43 1 16 40
M  V30 44 1 16 41
M  V30 45 1 16 42
M  V30 46 1 20 43
M  V30 47 1 24 44
M  V30 48 1 25 45
M  V30 49 1 26 46
M  V30 50 1 27 47
M  V30 51 1 28 48
M  V30 52 1 29 49
M  V30 END BOND
M  V30 END CTAB
M  END
>  <Dataset>  (324) 
ChEMBL_Kinases

>  <Ligand_Instance>  (324) 
nan

>  <PDB_ID>  (324) 
nan

>  <Standardized_SMILES>  (324) 
CNC(=O)c1ccc(C)c(Nc2nc(OC)nc3c2cnn3-c2ccccc2)c1

>  <Name>  (324) 
nan

>  <Pocket>  (324) 
nan

>  <ATP_Site>  (324) 
nan

>  <Peripheral>  (324) 
nan

>  <Num_H_Atoms_ProtBoundConf>  (324) 
nan

>  <Num_Resolved_Atoms>  (324) 
nan

>  <Num_Not_Resolved_Atoms>  (324) 
nan

$$$$
CHEMBL412059
     RDKit          3D

  0  0  0  0  0  0  0  0  0  0999 V3000
M  V30 BEGIN CTAB
M  V30 COUNTS 57 60 0 0 0
M  V30 BEGIN ATOM
M  V30 1 C 1.626442 0.981831 5.099547 0
M  V30 2 C 3.049693 0.609989 4.990988 0
M  V30 3 C 3.467750 -0.556816 5.577899 0
M  V30 4 C 4.793890 -0.964974 5.530961 0
M  V30 5 C 5.655924 -0.128580 4.861330 0
M  V30 6 C 5.205518 1.054599 4.271687 0
M  V30 7 C 3.874179 1.453716 4.325106 0
M  V30 8 C 3.580229 2.719929 3.638070 0
M  V30 9 N 2.987713 2.435065 2.353592 0
M  V30 10 C 1.667994 2.329459 2.174886 0
M  V30 11 C 1.256113 2.054048 0.899226 0
M  V30 12 N 0.304151 1.806267 -0.106036 0
M  V30 13 C -0.199557 0.549965 -0.564317 0
M  V30 14 O 0.128006 -0.572289 -0.142944 0
M  V30 15 C -1.196376 0.639076 -1.634796 0
M  V30 16 N -1.766663 1.721863 -2.212487 0
M  V30 17 O -2.602361 1.383384 -3.135828 0
M  V30 18 C -2.665830 0.080335 -3.258508 0
M  V30 19 C -1.783267 -0.408217 -2.316723 0
M  V30 20 C -1.652643 -1.883500 -2.243605 0
M  V30 21 C -3.065127 -2.425337 -2.127289 0
M  V30 22 C -3.079774 -3.940013 -2.015051 0
M  V30 23 C -4.508833 -4.473569 -1.895987 0
M  V30 24 C -2.321179 -4.394270 -0.798454 0
M  V30 25 C -2.480884 -4.610266 -3.228731 0
M  V30 26 C -4.008977 -1.920959 -3.161635 0
M  V30 27 C -3.398402 -0.902466 -4.098093 0
M  V30 28 C 2.508981 1.990911 0.243979 0
M  V30 29 N 3.503837 2.223902 1.152418 0
M  V30 30 H 1.215045 0.548129 6.061398 0
M  V30 31 H 0.982350 0.537917 4.312772 0
M  V30 32 H 1.477362 2.076513 5.214762 0
M  V30 33 H 2.759506 -1.191108 6.099298 0
M  V30 34 H 5.042401 -1.895574 6.018431 0
M  V30 35 H 6.691807 -0.430601 4.814264 0
M  V30 36 H 5.986269 1.617718 3.777387 0
M  V30 37 H 2.879873 3.312693 4.282237 0
M  V30 38 H 4.473852 3.363258 3.532679 0
M  V30 39 H 0.762838 2.405302 2.778007 0
M  V30 40 H -0.033995 2.720586 -0.528990 0
M  V30 41 H -1.175983 -2.190014 -3.195749 0
M  V30 42 H -1.098582 -2.184396 -1.355682 0
M  V30 43 H -3.437185 -2.070017 -1.123839 0
M  V30 44 H -5.190343 -3.586674 -2.033424 0
M  V30 45 H -4.737631 -4.823073 -0.857346 0
M  V30 46 H -4.738975 -5.240390 -2.641435 0
M  V30 47 H -1.247785 -4.593111 -1.041454 0
M  V30 48 H -2.456406 -3.746761 0.074342 0
M  V30 49 H -2.732107 -5.406150 -0.514532 0
M  V30 50 H -3.229210 -4.624701 -4.052107 0
M  V30 51 H -1.523616 -4.165272 -3.530726 0
M  V30 52 H -2.286537 -5.669319 -2.956247 0
M  V30 53 H -4.469195 -2.762855 -3.756181 0
M  V30 54 H -4.907524 -1.426780 -2.700918 0
M  V30 55 H -4.203214 -0.392858 -4.664122 0
M  V30 56 H -2.651279 -1.377223 -4.783178 0
M  V30 57 H 3.029726 1.827925 -0.717765 0
M  V30 END ATOM
M  V30 BEGIN BOND
M  V30 1 1 1 2
M  V30 2 2 2 3
M  V30 3 1 3 4
M  V30 4 2 4 5
M  V30 5 1 5 6
M  V30 6 2 6 7
M  V30 7 1 7 8
M  V30 8 1 8 9
M  V30 9 1 9 10
M  V30 10 2 10 11
M  V30 11 1 11 12
M  V30 12 1 12 13
M  V30 13 2 13 14
M  V30 14 1 13 15
M  V30 15 2 15 16
M  V30 16 1 16 17
M  V30 17 1 17 18
M  V30 18 2 18 19
M  V30 19 1 19 20
M  V30 20 1 20 21
M  V30 21 1 21 22
M  V30 22 1 22 23
M  V30 23 1 22 24
M  V30 24 1 22 25
M  V30 25 1 21 26
M  V30 26 1 26 27
M  V30 27 1 11 28
M  V30 28 2 28 29
M  V30 29 1 7 2
M  V30 30 1 29 9
M  V30 31 1 19 15
M  V30 32 1 27 18
M  V30 33 1 1 30
M  V30 34 1 1 31
M  V30 35 1 1 32
M  V30 36 1 3 33
M  V30 37 1 4 34
M  V30 38 1 5 35
M  V30 39 1 6 36
M  V30 40 1 8 37
M  V30 41 1 8 38
M  V30 42 1 10 39
M  V30 43 1 12 40
M  V30 44 1 20 41
M  V30 45 1 20 42
M  V30 46 1 21 43
M  V30 47 1 23 44
M  V30 48 1 23 45
M  V30 49 1 23 46
M  V30 50 1 24 47
M  V30 51 1 24 48
M  V30 52 1 24 49
M  V30 53 1 25 50
M  V30 54 1 25 51
M  V30 55 1 25 52
M  V30 56 1 26 53
M  V30 57 1 26 54
M  V30 58 1 27 55
M  V30 59 1 27 56
M  V30 60 1 28 57
M  V30 END BOND
M  V30 END CTAB
M  END
>  <Dataset>  (325) 
ChEMBL_Kinases

>  <Ligand_Instance>  (325) 
nan

>  <PDB_ID>  (325) 
nan

>  <Standardized_SMILES>  (325) 
Cc1ccccc1Cn1cc(NC(=O)c2noc3c2CC(C(C)(C)C)CC3)cn1

>  <Name>  (325) 
nan

>  <Pocket>  (325) 
nan

>  <ATP_Site>  (325) 
nan

>  <Peripheral>  (325) 
nan

>  <Num_H_Atoms_ProtBoundConf>  (325) 
nan

>  <Num_Resolved_Atoms>  (325) 
nan

>  <Num_Not_Resolved_Atoms>  (325) 
nan

$$$$
CHEMBL4793633
     RDKit          3D

  0  0  0  0  0  0  0  0  0  0999 V3000
M  V30 BEGIN CTAB
M  V30 COUNTS 55 57 0 0 0
M  V30 BEGIN ATOM
M  V30 1 C 0.167034 -6.357856 2.509138 0
M  V30 2 C 1.548105 -5.732961 2.609779 0
M  V30 3 C 1.523364 -4.466913 1.819210 0
M  V30 4 C 1.455342 -3.224234 2.417154 0
M  V30 5 C 1.429586 -2.037582 1.715461 0
M  V30 6 N 1.357029 -0.760435 2.337694 0
M  V30 7 C 1.308120 0.393399 1.506144 0
M  V30 8 N 2.338834 1.133232 1.071954 0
M  V30 9 C 2.174683 2.201723 0.287799 0
M  V30 10 C 0.905847 2.562836 -0.092499 0
M  V30 11 C 0.755817 3.727523 -0.944684 0
M  V30 12 O -0.165967 4.361784 -1.491519 0
M  V30 13 N 1.897491 4.467103 -1.363900 0
M  V30 14 C 1.920869 5.632373 -2.199569 0
M  V30 15 C -0.169974 1.830247 0.332191 0
M  V30 16 N -1.494826 2.117236 -0.013390 0
M  V30 17 C -2.690650 1.414214 0.382795 0 CFG=2
M  V30 18 C -2.993469 1.474202 1.848722 0
M  V30 19 O -2.009262 0.934762 2.652791 0
M  V30 20 C -2.639140 -0.019463 -0.090398 0
M  V30 21 C -2.992710 -1.063742 0.745432 0
M  V30 22 C -2.959529 -2.389538 0.355412 0
M  V30 23 C -2.550380 -2.684127 -0.941180 0
M  V30 24 C -2.200672 -1.634955 -1.764696 0
M  V30 25 C -2.239689 -0.314564 -1.358256 0
M  V30 26 N 0.104509 0.776980 1.115887 0
M  V30 27 C 1.477773 -2.165871 0.324639 0
M  V30 28 C 1.546667 -3.390130 -0.320211 0
M  V30 29 C 1.569271 -4.543942 0.437633 0
M  V30 30 C 1.639821 -5.800526 -0.252759 0
M  V30 31 N 1.692320 -6.830727 -0.803590 0
M  V30 32 H -0.007882 -6.574075 1.427114 0
M  V30 33 H 0.096562 -7.272407 3.117212 0
M  V30 34 H -0.636609 -5.694504 2.826264 0
M  V30 35 H 2.254012 -6.455045 2.146688 0
M  V30 36 H 1.862053 -5.583393 3.650179 0
M  V30 37 H 1.421562 -3.200901 3.491699 0
M  V30 38 H 1.344952 -0.757614 3.378858 0
M  V30 39 H 3.102215 2.652125 0.051882 0
M  V30 40 H 2.902560 4.253317 -1.110649 0
M  V30 41 H 2.389165 6.483221 -1.630907 0
M  V30 42 H 2.468834 5.463817 -3.161754 0
M  V30 43 H 0.926642 6.000851 -2.497100 0
M  V30 44 H -1.677521 2.933900 -0.632565 0
M  V30 45 H -3.594941 1.821511 -0.132651 0
M  V30 46 H -3.994203 1.025412 2.036369 0
M  V30 47 H -3.147085 2.567123 2.085464 0
M  V30 48 H -1.587597 1.670572 3.164925 0
M  V30 49 H -3.315427 -0.878268 1.758386 0
M  V30 50 H -3.239933 -3.196199 1.023403 0
M  V30 51 H -2.519280 -3.723582 -1.262251 0
M  V30 52 H -1.893485 -1.958389 -2.760698 0
M  V30 53 H -1.952329 0.455024 -2.055251 0
M  V30 54 H 1.458107 -1.233581 -0.238424 0
M  V30 55 H 1.578494 -3.349898 -1.402130 0
M  V30 END ATOM
M  V30 BEGIN BOND
M  V30 1 1 1 2
M  V30 2 1 2 3
M  V30 3 2 3 4
M  V30 4 1 4 5
M  V30 5 1 5 6
M  V30 6 1 6 7
M  V30 7 2 7 8
M  V30 8 1 8 9
M  V30 9 2 9 10
M  V30 10 1 10 11
M  V30 11 2 11 12
M  V30 12 1 11 13
M  V30 13 1 13 14
M  V30 14 1 10 15
M  V30 15 1 15 16
M  V30 16 1 16 17
M  V30 17 1 17 18
M  V30 18 1 18 19
M  V30 19 1 17 20
M  V30 20 2 20 21
M  V30 21 1 21 22
M  V30 22 2 22 23
M  V30 23 1 23 24
M  V30 24 2 24 25
M  V30 25 2 15 26
M  V30 26 2 5 27
M  V30 27 1 27 28
M  V30 28 2 28 29
M  V30 29 1 29 30
M  V30 30 3 30 31
M  V30 31 1 29 3
M  V30 32 1 26 7
M  V30 33 1 25 20
M  V30 34 1 1 32
M  V30 35 1 1 33
M  V30 36 1 1 34
M  V30 37 1 2 35
M  V30 38 1 2 36
M  V30 39 1 4 37
M  V30 40 1 6 38
M  V30 41 1 9 39
M  V30 42 1 13 40
M  V30 43 1 14 41
M  V30 44 1 14 42
M  V30 45 1 14 43
M  V30 46 1 16 44
M  V30 47 1 17 45 CFG=3
M  V30 48 1 18 46
M  V30 49 1 18 47
M  V30 50 1 19 48
M  V30 51 1 21 49
M  V30 52 1 22 50
M  V30 53 1 23 51
M  V30 54 1 24 52
M  V30 55 1 25 53
M  V30 56 1 27 54
M  V30 57 1 28 55
M  V30 END BOND
M  V30 END CTAB
M  END
>  <Dataset>  (326) 
ChEMBL_Kinases

>  <Ligand_Instance>  (326) 
nan

>  <PDB_ID>  (326) 
nan

>  <Standardized_SMILES>  (326) 
CCc1cc(Nc2ncc(C(=O)NC)c(N[C@H](CO)c3ccccc3)n2)ccc1C#N

>  <Name>  (326) 
nan

>  <Pocket>  (326) 
nan

>  <ATP_Site>  (326) 
nan

>  <Peripheral>  (326) 
nan

>  <Num_H_Atoms_ProtBoundConf>  (326) 
nan

>  <Num_Resolved_Atoms>  (326) 
nan

>  <Num_Not_Resolved_Atoms>  (326) 
nan

$$$$
CHEMBL411729
     RDKit          3D

  0  0  0  0  0  0  0  0  0  0999 V3000
M  V30 BEGIN CTAB
M  V30 COUNTS 72 75 0 0 0
M  V30 BEGIN ATOM
M  V30 1 C 2.023360 2.541086 4.130904 0
M  V30 2 C 1.286760 2.071158 3.139073 0
M  V30 3 C 0.917580 2.747145 1.873295 0 CFG=1
M  V30 4 C 1.750550 4.009987 1.741424 0
M  V30 5 C 1.129970 1.836574 0.641015 0 CFG=1
M  V30 6 C 2.606868 1.777341 0.446880 0 CFG=2
M  V30 7 C 3.121969 2.035834 -0.922889 0
M  V30 8 C 2.676617 1.140190 -1.986636 0
M  V30 9 C 1.608449 1.237121 -2.847604 0
M  V30 10 C 1.351666 0.277473 -3.794865 0
M  V30 11 C 2.138745 -0.838948 -3.947558 0
M  V30 12 C 3.214120 -0.951639 -3.092276 0
M  V30 13 C 3.484005 0.005635 -2.135272 0
M  V30 14 N 3.089402 0.503951 0.981638 0
M  V30 15 C 1.924121 -0.241608 1.286898 0
M  V30 16 O 2.103572 -1.407784 1.782427 0
M  V30 17 C 0.660910 0.507498 0.957260 0 CFG=2
M  V30 18 O 0.013801 -0.309790 0.073845 0
M  V30 19 C -0.804202 -0.251048 -0.965573 0
M  V30 20 O -1.280983 0.657870 -1.587791 0
M  V30 21 C -1.394761 -1.371114 -1.653662 0
M  V30 22 C -2.085436 -2.083047 -2.468408 0
M  V30 23 C -2.277248 -3.533597 -2.668705 0 CFG=2
M  V30 24 O -3.137667 -3.738030 -3.775400 0
M  V30 25 C -2.587784 -4.409834 -1.533285 0
M  V30 26 C -3.749411 -4.379180 -0.698374 0
M  V30 27 C -4.313828 -3.464271 0.237324 0
M  V30 28 C -3.699357 -3.158540 1.594201 0 CFG=1
M  V30 29 C -3.650044 -4.428408 2.437694 0
M  V30 30 C -2.343131 -2.710473 1.357688 0
M  V30 31 C -1.451730 -2.123019 2.386074 0
M  V30 32 C -0.863576 -0.896164 2.287675 0
M  V30 33 C -0.159145 0.419578 2.310720 0 CFG=1
M  V30 34 C 0.784210 0.660587 3.399214 0 CFG=2
M  V30 35 O 0.031028 0.805670 4.592074 0
M  V30 36 H 2.540079 3.466378 4.324474 0
M  V30 37 H 2.277869 2.028113 5.043519 0
M  V30 38 H -0.151371 3.036257 1.933520 0
M  V30 39 H 1.933660 4.308838 0.695995 0
M  V30 40 H 2.653908 4.012712 2.382971 0
M  V30 41 H 1.125458 4.853072 2.162524 0
M  V30 42 H 0.601299 2.308344 -0.223342 0
M  V30 43 H 3.148296 2.535845 1.104229 0
M  V30 44 H 4.247645 2.061227 -0.829793 0
M  V30 45 H 2.881759 3.119110 -1.148740 0
M  V30 46 H 1.015256 2.138857 -2.687477 0
M  V30 47 H 0.481873 0.467788 -4.411471 0
M  V30 48 H 1.898637 -1.566295 -4.705763 0
M  V30 49 H 3.832913 -1.841507 -3.221018 0
M  V30 50 H 4.365965 -0.217297 -1.532925 0
M  V30 51 H 4.086832 0.294092 1.074374 0
M  V30 52 H -0.945754 -2.241467 -1.134802 0
M  V30 53 H -2.657970 -1.413474 -3.167545 0
M  V30 54 H -1.280960 -3.839594 -3.136560 0
M  V30 55 H -3.910331 -4.290143 -3.453791 0
M  V30 56 H -1.575284 -4.615809 -1.038256 0
M  V30 57 H -2.662546 -5.466527 -2.045486 0
M  V30 58 H -3.700677 -5.397352 -0.118373 0
M  V30 59 H -4.634742 -4.687359 -1.403274 0
M  V30 60 H -4.581373 -2.441476 -0.152943 0
M  V30 61 H -5.350759 -3.855239 0.530216 0
M  V30 62 H -4.348835 -2.401328 2.072559 0
M  V30 63 H -3.633223 -4.106578 3.486384 0
M  V30 64 H -2.676932 -4.938529 2.254495 0
M  V30 65 H -4.473966 -5.123172 2.187112 0
M  V30 66 H -1.756101 -3.561094 0.948694 0
M  V30 67 H -2.501051 -1.875327 0.630512 0
M  V30 68 H -1.253710 -2.731169 3.297961 0
M  V30 69 H -1.368986 -0.648031 1.318562 0
M  V30 70 H -0.874685 1.227724 2.263387 0
M  V30 71 H 1.599629 -0.034805 3.568837 0
M  V30 72 H -0.588949 1.578881 4.422841 0
M  V30 END ATOM
M  V30 BEGIN BOND
M  V30 1 2 1 2
M  V30 2 1 2 3
M  V30 3 1 3 4
M  V30 4 1 3 5
M  V30 5 1 5 6
M  V30 6 1 6 7
M  V30 7 1 7 8
M  V30 8 2 8 9
M  V30 9 1 9 10
M  V30 10 2 10 11
M  V30 11 1 11 12
M  V30 12 2 12 13
M  V30 13 1 6 14
M  V30 14 1 14 15
M  V30 15 2 15 16
M  V30 16 1 15 17
M  V30 17 1 17 18 CFG=3
M  V30 18 1 18 19
M  V30 19 2 19 20
M  V30 20 1 19 21
M  V30 21 2 21 22
M  V30 22 1 22 23
M  V30 23 1 23 24
M  V30 24 1 23 25
M  V30 25 1 25 26
M  V30 26 1 26 27
M  V30 27 1 27 28
M  V30 28 1 28 29
M  V30 29 1 28 30
M  V30 30 1 30 31
M  V30 31 2 31 32
M  V30 32 1 32 33
M  V30 33 1 33 34
M  V30 34 1 34 35
M  V30 35 1 34 2
M  V30 36 1 17 5
M  V30 37 1 13 8
M  V30 38 1 33 17
M  V30 39 1 1 36
M  V30 40 1 1 37
M  V30 41 1 3 38 CFG=1
M  V30 42 1 4 39
M  V30 43 1 4 40
M  V30 44 1 4 41
M  V30 45 1 5 42 CFG=3
M  V30 46 1 6 43 CFG=1
M  V30 47 1 7 44
M  V30 48 1 7 45
M  V30 49 1 9 46
M  V30 50 1 10 47
M  V30 51 1 11 48
M  V30 52 1 12 49
M  V30 53 1 13 50
M  V30 54 1 14 51
M  V30 55 1 21 52
M  V30 56 1 22 53
M  V30 57 1 23 54 CFG=3
M  V30 58 1 24 55
M  V30 59 1 25 56
M  V30 60 1 25 57
M  V30 61 1 26 58
M  V30 62 1 26 59
M  V30 63 1 27 60
M  V30 64 1 27 61
M  V30 65 1 28 62 CFG=1
M  V30 66 1 29 63
M  V30 67 1 29 64
M  V30 68 1 29 65
M  V30 69 1 30 66
M  V30 70 1 30 67
M  V30 71 1 31 68
M  V30 72 1 32 69
M  V30 73 1 33 70 CFG=3
M  V30 74 1 34 71 CFG=1
M  V30 75 1 35 72
M  V30 END BOND
M  V30 END CTAB
M  END
>  <Dataset>  (327) 
ChEMBL_Kinases

>  <Ligand_Instance>  (327) 
nan

>  <PDB_ID>  (327) 
nan

>  <Standardized_SMILES>  (327) 
C=C1[C@@H](C)[C@H]2[C@H](Cc3ccccc3)NC(=O)[C@]23OC(=O)/C=C/[C@H](O)CCC[C@@H](C)C/C=C/[C@H]3[C@@H]1O

>  <Name>  (327) 
CYTOCHALASIN B

>  <Pocket>  (327) 
nan

>  <ATP_Site>  (327) 
nan

>  <Peripheral>  (327) 
nan

>  <Num_H_Atoms_ProtBoundConf>  (327) 
nan

>  <Num_Resolved_Atoms>  (327) 
nan

>  <Num_Not_Resolved_Atoms>  (327) 
nan

$$$$
CHEMBL411704
     RDKit          3D

  0  0  0  0  0  0  0  0  0  0999 V3000
M  V30 BEGIN CTAB
M  V30 COUNTS 36 39 0 0 0
M  V30 BEGIN ATOM
M  V30 1 C 3.213103 -2.553639 -1.015453 0
M  V30 2 O 2.109991 -1.898513 -0.454993 0
M  V30 3 C 1.557323 -2.133904 0.776721 0
M  V30 4 C 1.977236 -3.071674 1.724800 0
M  V30 5 C 1.302235 -3.169679 2.909452 0
M  V30 6 N 0.235966 -2.404339 3.228331 0
M  V30 7 C -0.194284 -1.489570 2.334664 0
M  V30 8 C 0.455358 -1.353154 1.123504 0
M  V30 9 C -0.222278 -0.348356 0.451511 0
M  V30 10 C 0.067885 0.182869 -0.882932 0
M  V30 11 C -0.436354 -0.262429 -2.087493 0
M  V30 12 C -0.059211 0.352203 -3.262787 0
M  V30 13 N 0.804499 1.389192 -3.221643 0
M  V30 14 C 1.300280 1.828074 -2.045053 0
M  V30 15 N 2.206980 2.925467 -2.066680 0
M  V30 16 N 0.937279 1.234398 -0.898408 0
M  V30 17 C -1.260033 0.115091 1.236673 0
M  V30 18 C -2.231029 1.070284 1.091363 0
M  V30 19 C -3.188163 1.365252 2.039039 0
M  V30 20 N -3.091764 0.616441 3.156848 0
M  V30 21 C -2.140338 -0.327612 3.312910 0
M  V30 22 N -2.164243 -1.040679 4.552078 0
M  V30 23 N -1.208955 -0.603396 2.371758 0
M  V30 24 H 3.991821 -2.845954 -0.305602 0
M  V30 25 H 2.909870 -3.502994 -1.544770 0
M  V30 26 H 3.690765 -1.838001 -1.741614 0
M  V30 27 H 2.823151 -3.648432 1.420493 0
M  V30 28 H 1.705272 -3.922526 3.571021 0
M  V30 29 H -1.119073 -1.098232 -2.001137 0
M  V30 30 H -0.514856 -0.077378 -4.150704 0
M  V30 31 H 3.219616 3.070256 -2.272252 0
M  V30 32 H 1.875489 3.892794 -1.829063 0
M  V30 33 H -2.218579 1.617776 0.148841 0
M  V30 34 H -3.928852 2.133067 1.862085 0
M  V30 35 H -1.769702 -0.382487 5.286557 0
M  V30 36 H -2.422740 -1.947088 4.976921 0
M  V30 END ATOM
M  V30 BEGIN BOND
M  V30 1 1 1 2
M  V30 2 1 2 3
M  V30 3 2 3 4
M  V30 4 1 4 5
M  V30 5 2 5 6
M  V30 6 1 6 7
M  V30 7 2 7 8
M  V30 8 1 8 9
M  V30 9 1 9 10
M  V30 10 2 10 11
M  V30 11 1 11 12
M  V30 12 2 12 13
M  V30 13 1 13 14
M  V30 14 1 14 15
M  V30 15 2 14 16
M  V30 16 2 9 17
M  V30 17 1 17 18
M  V30 18 2 18 19
M  V30 19 1 19 20
M  V30 20 2 20 21
M  V30 21 1 21 22
M  V30 22 1 21 23
M  V30 23 1 8 3
M  V30 24 1 16 10
M  V30 25 1 23 17
M  V30 26 1 23 7
M  V30 27 1 1 24
M  V30 28 1 1 25
M  V30 29 1 1 26
M  V30 30 1 4 27
M  V30 31 1 5 28
M  V30 32 1 11 29
M  V30 33 1 12 30
M  V30 34 1 15 31
M  V30 35 1 15 32
M  V30 36 1 18 33
M  V30 37 1 19 34
M  V30 38 1 22 35
M  V30 39 1 22 36
M  V30 END BOND
M  V30 END CTAB
M  END
>  <Dataset>  (328) 
ChEMBL_Kinases

>  <Ligand_Instance>  (328) 
nan

>  <PDB_ID>  (328) 
nan

>  <Standardized_SMILES>  (328) 
COc1ccnc2c1c(-c1ccnc(N)n1)c1ccnc(N)n12

>  <Name>  (328) 
nan

>  <Pocket>  (328) 
nan

>  <ATP_Site>  (328) 
nan

>  <Peripheral>  (328) 
nan

>  <Num_H_Atoms_ProtBoundConf>  (328) 
nan

>  <Num_Resolved_Atoms>  (328) 
nan

>  <Num_Not_Resolved_Atoms>  (328) 
nan

$$$$
CHEMBL4793635
     RDKit          3D

  0  0  0  0  0  0  0  0  0  0999 V3000
M  V30 BEGIN CTAB
M  V30 COUNTS 68 72 0 0 0
M  V30 BEGIN ATOM
M  V30 1 C 7.728760 -1.892764 7.447596 0
M  V30 2 C 6.952944 -1.485786 6.252590 0
M  V30 3 C 5.986583 -2.324385 5.742070 0
M  V30 4 C 5.263162 -1.962332 4.640394 0
M  V30 5 C 5.436892 -0.773632 3.977597 0
M  V30 6 N 4.664040 -0.437804 2.838078 0
M  V30 7 C 4.706297 0.726315 2.027013 0
M  V30 8 C 3.856059 0.848715 0.958810 0
M  V30 9 C 3.848308 1.950654 0.135845 0
M  V30 10 C 2.911125 2.005954 -0.982283 0
M  V30 11 N 2.930612 2.026554 -2.331215 0
M  V30 12 O 1.712944 2.082760 -2.781011 0
M  V30 13 C 0.849219 2.101801 -1.786964 0
M  V30 14 C -0.616858 2.161250 -1.809687 0
M  V30 15 C -1.372387 2.172359 -0.651510 0
M  V30 16 C -2.759526 2.229581 -0.705292 0
M  V30 17 C -3.424693 2.277170 -1.922768 0
M  V30 18 N -4.837861 2.332824 -1.791594 0
M  V30 19 S -5.671427 1.306164 -0.693428 0
M  V30 20 O -7.149829 1.610209 -0.889012 0
M  V30 21 O -5.380060 1.593015 0.736297 0
M  V30 22 C -5.463228 -0.370896 -1.064036 0
M  V30 23 C -4.434932 -1.093504 -0.539156 0
M  V30 24 C -4.195554 -2.436672 -0.782957 0
M  V30 25 C -5.062677 -3.132248 -1.632033 0
M  V30 26 C -4.808253 -4.551681 -1.889439 0
M  V30 27 C -3.907957 -4.709713 -3.099176 0
M  V30 28 C -4.059462 -5.122052 -0.688178 0
M  V30 29 C -6.034831 -5.388211 -2.071110 0
M  V30 30 C -6.111591 -2.418995 -2.174844 0
M  V30 31 C -6.311197 -1.089594 -1.906326 0
M  V30 32 C -2.671521 2.266114 -3.079570 0
M  V30 33 C -1.293797 2.209034 -3.011612 0
M  V30 34 N 1.587640 2.054175 -0.661152 0
M  V30 35 C 4.699604 2.982986 0.352122 0
M  V30 36 C 5.548412 2.848430 1.427610 0
M  V30 37 N 5.532240 1.762841 2.211027 0
M  V30 38 C 6.412150 0.022710 4.529111 0
M  V30 39 C 7.178569 -0.274324 5.633503 0
M  V30 40 H 7.116101 -2.404242 8.216039 0
M  V30 41 H 8.164298 -0.970457 7.903016 0
M  V30 42 H 8.586045 -2.507682 7.089285 0
M  V30 43 H 5.801475 -3.277180 6.219937 0
M  V30 44 H 4.511121 -2.675516 4.287388 0
M  V30 45 H 3.949387 -1.175449 2.558803 0
M  V30 46 H 3.143402 0.051008 0.728400 0
M  V30 47 H -0.779337 2.133002 0.256235 0
M  V30 48 H -3.177274 2.229835 0.285788 0
M  V30 49 H -5.130333 3.084652 -2.477739 0
M  V30 50 H -3.731335 -0.618037 0.122101 0
M  V30 51 H -3.370852 -2.974019 -0.348965 0
M  V30 52 H -3.503921 -5.750993 -3.062126 0
M  V30 53 H -4.548140 -4.565375 -4.012818 0
M  V30 54 H -3.066417 -3.986209 -3.053428 0
M  V30 55 H -2.965744 -4.925993 -0.782498 0
M  V30 56 H -4.255613 -6.218876 -0.643666 0
M  V30 57 H -4.443242 -4.622493 0.216543 0
M  V30 58 H -6.395198 -5.700165 -1.061262 0
M  V30 59 H -5.705223 -6.335285 -2.572786 0
M  V30 60 H -6.820555 -4.954835 -2.689631 0
M  V30 61 H -6.804168 -2.920028 -2.836088 0
M  V30 62 H -7.152311 -0.547567 -2.350830 0
M  V30 63 H -3.255400 2.305098 -3.987538 0
M  V30 64 H -0.763453 2.203458 -3.958469 0
M  V30 65 H 4.702926 3.842864 -0.279275 0
M  V30 66 H 6.264166 3.621714 1.679312 0
M  V30 67 H 6.641353 0.984065 4.096217 0
M  V30 68 H 7.933097 0.386817 6.027514 0
M  V30 END ATOM
M  V30 BEGIN BOND
M  V30 1 1 1 2
M  V30 2 2 2 3
M  V30 3 1 3 4
M  V30 4 2 4 5
M  V30 5 1 5 6
M  V30 6 1 6 7
M  V30 7 2 7 8
M  V30 8 1 8 9
M  V30 9 1 9 10
M  V30 10 2 10 11
M  V30 11 1 11 12
M  V30 12 1 12 13
M  V30 13 1 13 14
M  V30 14 2 14 15
M  V30 15 1 15 16
M  V30 16 2 16 17
M  V30 17 1 17 18
M  V30 18 1 18 19
M  V30 19 2 19 20
M  V30 20 2 19 21
M  V30 21 1 19 22
M  V30 22 2 22 23
M  V30 23 1 23 24
M  V30 24 2 24 25
M  V30 25 1 25 26
M  V30 26 1 26 27
M  V30 27 1 26 28
M  V30 28 1 26 29
M  V30 29 1 25 30
M  V30 30 2 30 31
M  V30 31 1 17 32
M  V30 32 2 32 33
M  V30 33 2 13 34
M  V30 34 2 9 35
M  V30 35 1 35 36
M  V30 36 2 36 37
M  V30 37 1 5 38
M  V30 38 2 38 39
M  V30 39 1 39 2
M  V30 40 1 37 7
M  V30 41 1 34 10
M  V30 42 1 33 14
M  V30 43 1 31 22
M  V30 44 1 1 40
M  V30 45 1 1 41
M  V30 46 1 1 42
M  V30 47 1 3 43
M  V30 48 1 4 44
M  V30 49 1 6 45
M  V30 50 1 8 46
M  V30 51 1 15 47
M  V30 52 1 16 48
M  V30 53 1 18 49
M  V30 54 1 23 50
M  V30 55 1 24 51
M  V30 56 1 27 52
M  V30 57 1 27 53
M  V30 58 1 27 54
M  V30 59 1 28 55
M  V30 60 1 28 56
M  V30 61 1 28 57
M  V30 62 1 29 58
M  V30 63 1 29 59
M  V30 64 1 29 60
M  V30 65 1 30 61
M  V30 66 1 31 62
M  V30 67 1 32 63
M  V30 68 1 33 64
M  V30 69 1 35 65
M  V30 70 1 36 66
M  V30 71 1 38 67
M  V30 72 1 39 68
M  V30 END BOND
M  V30 END CTAB
M  END
>  <Dataset>  (329) 
ChEMBL_Kinases

>  <Ligand_Instance>  (329) 
nan

>  <PDB_ID>  (329) 
nan

>  <Standardized_SMILES>  (329) 
Cc1ccc(Nc2cc(-c3noc(-c4ccc(NS(=O)(=O)c5ccc(C(C)(C)C)cc5)cc4)n3)ccn2)cc1

>  <Name>  (329) 
nan

>  <Pocket>  (329) 
nan

>  <ATP_Site>  (329) 
nan

>  <Peripheral>  (329) 
nan

>  <Num_H_Atoms_ProtBoundConf>  (329) 
nan

>  <Num_Resolved_Atoms>  (329) 
nan

>  <Num_Not_Resolved_Atoms>  (329) 
nan

$$$$
CHEMBL411659
     RDKit          3D

  0  0  0  0  0  0  0  0  0  0999 V3000
M  V30 BEGIN CTAB
M  V30 COUNTS 55 58 0 0 0
M  V30 BEGIN ATOM
M  V30 1 N 6.788503 -5.055325 -1.186296 0
M  V30 2 C 6.048549 -3.912751 -0.840968 0
M  V30 3 O 4.850145 -4.171111 -0.600603 0
M  V30 4 N 6.540040 -2.588798 -0.755349 0
M  V30 5 C 5.842738 -1.404532 -0.413998 0
M  V30 6 C 4.527127 -1.303541 -0.094668 0
M  V30 7 C 3.955193 -0.098797 0.221353 0
M  V30 8 C 4.651773 1.087394 0.241588 0
M  V30 9 N 4.119280 2.362581 0.559598 0
M  V30 10 C 2.790394 2.700736 0.909245 0
M  V30 11 N 2.502486 3.984264 1.181192 0
M  V30 12 C 1.280981 4.413931 1.521737 0
M  V30 13 C 0.248698 3.507098 1.603829 0
M  V30 14 C 0.503095 2.184950 1.333102 0
M  V30 15 C -0.560871 1.197191 1.407006 0
M  V30 16 C -0.362519 -0.140086 1.143198 0
M  V30 17 C -1.363118 -1.089722 1.209568 0
M  V30 18 C -2.645038 -0.715012 1.555996 0
M  V30 19 S -3.874037 -1.965062 1.622037 0
M  V30 20 O -3.204151 -3.272084 1.949569 0
M  V30 21 O -4.833682 -1.618114 2.716212 0
M  V30 22 N -4.667949 -2.152915 0.112609 0
M  V30 23 C -5.363735 -0.985798 -0.333262 0
M  V30 24 C -6.798932 -0.930340 0.134275 0
M  V30 25 N -7.495976 -2.179888 -0.208337 0
M  V30 26 C -6.852982 -3.227286 0.539309 0
M  V30 27 C -5.419989 -3.358609 0.114939 0
M  V30 28 C -2.891284 0.617271 1.829758 0
M  V30 29 C -1.851619 1.523232 1.747507 0
M  V30 30 N 1.756687 1.855987 1.001660 0
M  V30 31 C 5.982727 0.951204 -0.086616 0
M  V30 32 C 6.562821 -0.248796 -0.403807 0
M  V30 33 H 7.462390 -5.556362 -1.818034 0
M  V30 34 H 6.756448 -5.936389 -0.623778 0
M  V30 35 H 7.555999 -2.578915 -0.990590 0
M  V30 36 H 3.910516 -2.177797 -0.085787 0
M  V30 37 H 2.918421 -0.088772 0.462435 0
M  V30 38 H 4.818770 3.162666 0.528473 0
M  V30 39 H 1.136025 5.473941 1.725495 0
M  V30 40 H -0.712439 3.908629 1.882240 0
M  V30 41 H 0.608902 -0.510509 0.866254 0
M  V30 42 H -1.155111 -2.133008 0.991839 0
M  V30 43 H -5.374109 -0.986248 -1.447364 0
M  V30 44 H -4.854176 -0.086377 0.069249 0
M  V30 45 H -7.306953 -0.125891 -0.434180 0
M  V30 46 H -6.907428 -0.743984 1.204263 0
M  V30 47 H -7.376389 -2.358762 -1.224428 0
M  V30 48 H -6.888544 -2.938213 1.611283 0
M  V30 49 H -7.324567 -4.218367 0.380187 0
M  V30 50 H -4.932972 -4.063687 0.828794 0
M  V30 51 H -5.370007 -3.911134 -0.868343 0
M  V30 52 H -3.893948 0.874255 2.094785 0
M  V30 53 H -2.150728 2.520274 1.977881 0
M  V30 54 H 6.624089 1.827415 -0.101140 0
M  V30 55 H 7.635538 -0.260969 -0.653670 0
M  V30 END ATOM
M  V30 BEGIN BOND
M  V30 1 1 1 2
M  V30 2 2 2 3
M  V30 3 1 2 4
M  V30 4 1 4 5
M  V30 5 2 5 6
M  V30 6 1 6 7
M  V30 7 2 7 8
M  V30 8 1 8 9
M  V30 9 1 9 10
M  V30 10 2 10 11
M  V30 11 1 11 12
M  V30 12 2 12 13
M  V30 13 1 13 14
M  V30 14 1 14 15
M  V30 15 2 15 16
M  V30 16 1 16 17
M  V30 17 2 17 18
M  V30 18 1 18 19
M  V30 19 2 19 20
M  V30 20 2 19 21
M  V30 21 1 19 22
M  V30 22 1 22 23
M  V30 23 1 23 24
M  V30 24 1 24 25
M  V30 25 1 25 26
M  V30 26 1 26 27
M  V30 27 1 18 28
M  V30 28 2 28 29
M  V30 29 2 14 30
M  V30 30 1 8 31
M  V30 31 2 31 32
M  V30 32 1 32 5
M  V30 33 1 30 10
M  V30 34 1 29 15
M  V30 35 1 27 22
M  V30 36 1 1 33
M  V30 37 1 1 34
M  V30 38 1 4 35
M  V30 39 1 6 36
M  V30 40 1 7 37
M  V30 41 1 9 38
M  V30 42 1 12 39
M  V30 43 1 13 40
M  V30 44 1 16 41
M  V30 45 1 17 42
M  V30 46 1 23 43
M  V30 47 1 23 44
M  V30 48 1 24 45
M  V30 49 1 24 46
M  V30 50 1 25 47
M  V30 51 1 26 48
M  V30 52 1 26 49
M  V30 53 1 27 50
M  V30 54 1 27 51
M  V30 55 1 28 52
M  V30 56 1 29 53
M  V30 57 1 31 54
M  V30 58 1 32 55
M  V30 END BOND
M  V30 END CTAB
M  END
>  <Dataset>  (330) 
ChEMBL_Kinases

>  <Ligand_Instance>  (330) 
nan

>  <PDB_ID>  (330) 
nan

>  <Standardized_SMILES>  (330) 
NC(=O)Nc1ccc(Nc2nccc(-c3ccc(S(=O)(=O)N4CCNCC4)cc3)n2)cc1

>  <Name>  (330) 
nan

>  <Pocket>  (330) 
nan

>  <ATP_Site>  (330) 
nan

>  <Peripheral>  (330) 
nan

>  <Num_H_Atoms_ProtBoundConf>  (330) 
nan

>  <Num_Resolved_Atoms>  (330) 
nan

>  <Num_Not_Resolved_Atoms>  (330) 
nan

$$$$
CHEMBL411635
     RDKit          3D

  0  0  0  0  0  0  0  0  0  0999 V3000
M  V30 BEGIN CTAB
M  V30 COUNTS 50 53 0 0 0
M  V30 BEGIN ATOM
M  V30 1 C 2.177995 -1.964699 -2.717241 0
M  V30 2 O 1.653789 -1.291686 -1.617834 0
M  V30 3 C 0.332465 -1.047115 -1.330118 0
M  V30 4 O 0.260589 -1.668818 -2.401315 0
M  V30 5 C -0.163928 -0.334388 -0.159516 0
M  V30 6 C 0.818130 0.103121 0.680215 0
M  V30 7 C 2.229262 -0.133466 0.463556 0
M  V30 8 C 2.938350 0.813365 -0.273689 0
M  V30 9 C 4.295597 0.598721 -0.489198 0
M  V30 10 C 4.897192 -0.538175 0.029871 0
M  V30 11 C 4.146783 -1.443049 0.752848 0
M  V30 12 C 2.790642 -1.260498 0.986924 0
M  V30 13 C 0.412572 0.806377 1.789175 0
M  V30 14 C 1.337014 1.286548 2.691630 0
M  V30 15 C 0.966613 1.990642 3.805566 0
M  V30 16 C 2.007216 2.483502 4.742312 0
M  V30 17 C -0.379995 2.211893 4.006440 0
M  V30 18 C -1.277546 1.720329 3.088502 0
M  V30 19 C -0.928911 1.001145 1.947140 0
M  V30 20 C -1.859274 0.525037 1.050746 0
M  V30 21 O -3.034193 0.806277 1.369845 0
M  V30 22 N -1.493254 -0.170643 -0.049344 0
M  V30 23 C -2.505042 -0.633651 -0.942319 0
M  V30 24 C -3.092715 -1.937633 -0.658194 0
M  V30 25 C -4.242923 -1.936771 0.120618 0
M  V30 26 C -4.907294 -3.102781 0.468078 0
M  V30 27 C -4.432304 -4.344207 0.037425 0
M  V30 28 C -3.295586 -4.381408 -0.735663 0
M  V30 29 C -2.678534 -3.190960 -1.048884 0
M  V30 30 H 3.304130 -1.967709 -2.621611 0
M  V30 31 H 1.948237 -1.531509 -3.704379 0
M  V30 32 H 1.887165 -3.033347 -2.715413 0
M  V30 33 H 2.407002 1.691394 -0.658066 0
M  V30 34 H 4.868225 1.327683 -1.063536 0
M  V30 35 H 5.953426 -0.637349 -0.177923 0
M  V30 36 H 4.685585 -2.312546 1.129895 0
M  V30 37 H 2.260635 -2.005370 1.559986 0
M  V30 38 H 2.379629 1.075848 2.471067 0
M  V30 39 H 1.504206 2.941803 5.603133 0
M  V30 40 H 2.534708 1.568373 5.133845 0
M  V30 41 H 2.726010 3.157233 4.263241 0
M  V30 42 H -0.690674 2.764347 4.878150 0
M  V30 43 H -2.327064 1.915025 3.281745 0
M  V30 44 H -3.302916 0.158939 -0.986043 0
M  V30 45 H -2.044823 -0.582536 -1.974037 0
M  V30 46 H -4.779652 -1.104234 0.552604 0
M  V30 47 H -5.801113 -3.205068 1.064109 0
M  V30 48 H -4.896726 -5.289376 0.268874 0
M  V30 49 H -2.889965 -5.301154 -1.091074 0
M  V30 50 H -1.797214 -3.238895 -1.652878 0
M  V30 END ATOM
M  V30 BEGIN BOND
M  V30 1 1 1 2
M  V30 2 1 2 3
M  V30 3 2 3 4
M  V30 4 1 3 5
M  V30 5 2 5 6
M  V30 6 1 6 7
M  V30 7 2 7 8
M  V30 8 1 8 9
M  V30 9 2 9 10
M  V30 10 1 10 11
M  V30 11 2 11 12
M  V30 12 1 6 13
M  V30 13 2 13 14
M  V30 14 1 14 15
M  V30 15 1 15 16
M  V30 16 2 15 17
M  V30 17 1 17 18
M  V30 18 2 18 19
M  V30 19 1 19 20
M  V30 20 2 20 21
M  V30 21 1 20 22
M  V30 22 1 22 23
M  V30 23 1 23 24
M  V30 24 2 24 25
M  V30 25 1 25 26
M  V30 26 2 26 27
M  V30 27 1 27 28
M  V30 28 2 28 29
M  V30 29 1 22 5
M  V30 30 1 29 24
M  V30 31 1 12 7
M  V30 32 1 19 13
M  V30 33 1 1 30
M  V30 34 1 1 31
M  V30 35 1 1 32
M  V30 36 1 8 33
M  V30 37 1 9 34
M  V30 38 1 10 35
M  V30 39 1 11 36
M  V30 40 1 12 37
M  V30 41 1 14 38
M  V30 42 1 16 39
M  V30 43 1 16 40
M  V30 44 1 16 41
M  V30 45 1 17 42
M  V30 46 1 18 43
M  V30 47 1 23 44
M  V30 48 1 23 45
M  V30 49 1 25 46
M  V30 50 1 26 47
M  V30 51 1 27 48
M  V30 52 1 28 49
M  V30 53 1 29 50
M  V30 END BOND
M  V30 END CTAB
M  END
>  <Dataset>  (331) 
ChEMBL_Kinases

>  <Ligand_Instance>  (331) 
nan

>  <PDB_ID>  (331) 
nan

>  <Standardized_SMILES>  (331) 
COC(=O)c1c(-c2ccccc2)c2cc(C)ccc2c(=O)n1Cc1ccccc1

>  <Name>  (331) 
nan

>  <Pocket>  (331) 
nan

>  <ATP_Site>  (331) 
nan

>  <Peripheral>  (331) 
nan

>  <Num_H_Atoms_ProtBoundConf>  (331) 
nan

>  <Num_Resolved_Atoms>  (331) 
nan

>  <Num_Not_Resolved_Atoms>  (331) 
nan

$$$$
CHEMBL411515
     RDKit          3D

  0  0  0  0  0  0  0  0  0  0999 V3000
M  V30 BEGIN CTAB
M  V30 COUNTS 42 46 0 0 0
M  V30 BEGIN ATOM
M  V30 1 Cl 0.562189 -1.765174 3.611329 0
M  V30 2 C 1.660604 -2.930011 2.949744 0
M  V30 3 C 2.260313 -3.924013 3.696104 0
M  V30 4 N 3.034529 -4.649231 2.836920 0
M  V30 5 C 2.958734 -4.168367 1.582817 0
M  V30 6 N 3.486088 -4.493366 0.390559 0
M  V30 7 C 3.157589 -3.753566 -0.707567 0
M  V30 8 N 2.316500 -2.711596 -0.595670 0
M  V30 9 C 1.759127 -2.348109 0.600539 0
M  V30 10 N 0.927157 -1.172895 0.472194 0
M  V30 11 C 1.188215 0.203263 0.831140 0
M  V30 12 C -0.082606 0.923678 0.467053 0
M  V30 13 C 0.123456 1.959032 -0.602908 0
M  V30 14 C 0.531771 3.301700 -0.081783 0
M  V30 15 N -0.063168 3.704043 1.148162 0
M  V30 16 C 0.202098 2.672593 2.139139 0
M  V30 17 C -0.668812 1.503658 1.730278 0
M  V30 18 C -0.927914 -0.156769 -0.078625 0
M  V30 19 C -2.225856 0.064982 -0.556971 0
M  V30 20 C -2.978448 -0.981162 -1.063021 0
M  V30 21 C -2.397718 -2.234207 -1.073614 0
M  V30 22 C -1.118179 -2.432708 -0.598070 0
M  V30 23 C -0.355403 -1.405401 -0.091513 0
M  V30 24 C 2.108711 -3.113117 1.684645 0
M  V30 25 H 2.133408 -4.087734 4.759760 0
M  V30 26 H 3.623206 -5.487787 3.121142 0
M  V30 27 H 3.605165 -4.056650 -1.629749 0
M  V30 28 H 1.986206 0.571444 0.112963 0
M  V30 29 H 1.494595 0.370343 1.867697 0
M  V30 30 H 0.949059 1.611554 -1.260561 0
M  V30 31 H -0.838803 2.085177 -1.140843 0
M  V30 32 H 0.218158 4.064864 -0.852609 0
M  V30 33 H 1.634335 3.425496 -0.010430 0
M  V30 34 H -1.086361 3.856893 1.094482 0
M  V30 35 H 0.031565 3.013640 3.171939 0
M  V30 36 H 1.287884 2.416202 2.063571 0
M  V30 37 H -0.610648 0.758635 2.530876 0
M  V30 38 H -1.696995 1.887732 1.591696 0
M  V30 39 H -2.739294 1.017349 -0.577886 0
M  V30 40 H -3.983585 -0.845993 -1.440593 0
M  V30 41 H -2.946460 -3.076874 -1.458166 0
M  V30 42 H -0.655520 -3.410093 -0.602457 0
M  V30 END ATOM
M  V30 BEGIN BOND
M  V30 1 1 1 2
M  V30 2 2 2 3
M  V30 3 1 3 4
M  V30 4 1 4 5
M  V30 5 2 5 6
M  V30 6 1 6 7
M  V30 7 2 7 8
M  V30 8 1 8 9
M  V30 9 1 9 10
M  V30 10 1 10 11
M  V30 11 1 11 12
M  V30 12 1 12 13
M  V30 13 1 13 14
M  V30 14 1 14 15
M  V30 15 1 15 16
M  V30 16 1 16 17
M  V30 17 1 12 18
M  V30 18 2 18 19
M  V30 19 1 19 20
M  V30 20 2 20 21
M  V30 21 1 21 22
M  V30 22 2 22 23
M  V30 23 2 9 24
M  V30 24 1 24 2
M  V30 25 1 24 5
M  V30 26 1 23 10
M  V30 27 1 17 12
M  V30 28 1 23 18
M  V30 29 1 3 25
M  V30 30 1 4 26
M  V30 31 1 7 27
M  V30 32 1 11 28
M  V30 33 1 11 29
M  V30 34 1 13 30
M  V30 35 1 13 31
M  V30 36 1 14 32
M  V30 37 1 14 33
M  V30 38 1 15 34
M  V30 39 1 16 35
M  V30 40 1 16 36
M  V30 41 1 17 37
M  V30 42 1 17 38
M  V30 43 1 19 39
M  V30 44 1 20 40
M  V30 45 1 21 41
M  V30 46 1 22 42
M  V30 END BOND
M  V30 END CTAB
M  END
>  <Dataset>  (332) 
ChEMBL_Kinases

>  <Ligand_Instance>  (332) 
nan

>  <PDB_ID>  (332) 
nan

>  <Standardized_SMILES>  (332) 
Clc1c[nH]c2ncnc(N3CC4(CCNCC4)c4ccccc43)c12

>  <Name>  (332) 
nan

>  <Pocket>  (332) 
nan

>  <ATP_Site>  (332) 
nan

>  <Peripheral>  (332) 
nan

>  <Num_H_Atoms_ProtBoundConf>  (332) 
nan

>  <Num_Resolved_Atoms>  (332) 
nan

>  <Num_Not_Resolved_Atoms>  (332) 
nan

$$$$
CHEMBL4793638
     RDKit          3D

  0  0  0  0  0  0  0  0  0  0999 V3000
M  V30 BEGIN CTAB
M  V30 COUNTS 52 55 0 0 0
M  V30 BEGIN ATOM
M  V30 1 N -2.844685 -3.820914 4.017012 0
M  V30 2 C -1.959081 -2.838148 3.485143 0
M  V30 3 N -0.980680 -2.629640 4.411813 0
M  V30 4 C 0.004592 -1.721497 4.139729 0
M  V30 5 C 0.008395 -1.034613 2.959125 0
M  V30 6 C 0.998439 -0.043302 2.551802 0
M  V30 7 C 1.664213 0.796605 3.441973 0
M  V30 8 N 2.479686 1.545781 2.659206 0
M  V30 9 N 2.335961 1.203885 1.391260 0
M  V30 10 C 3.048185 1.793565 0.272250 0
M  V30 11 C 2.061349 2.517420 -0.654245 0
M  V30 12 C 1.468416 3.616179 0.220535 0
M  V30 13 N 2.502904 4.578151 0.464769 0
M  V30 14 C 3.564540 4.041834 1.254302 0
M  V30 15 C 4.125484 2.742613 0.733912 0
M  V30 16 C 1.430979 0.223269 1.260030 0
M  V30 17 C -0.996457 -1.272388 2.048275 0
M  V30 18 C -2.018961 -2.167877 2.249187 0
M  V30 19 O -3.102551 -2.619736 1.605018 0
M  V30 20 C -3.662346 -2.333160 0.366215 0
M  V30 21 C -2.786876 -2.624093 -0.791141 0
M  V30 22 C -1.931776 -1.802435 -1.488961 0
M  V30 23 C -1.173677 -2.236252 -2.542840 0
M  V30 24 C -1.217608 -3.532008 -2.976908 0
M  V30 25 C -2.051962 -4.415779 -2.327406 0
M  V30 26 C -2.141257 -5.833844 -2.754584 0
M  V30 27 F -1.321279 -6.017244 -3.855319 0
M  V30 28 F -3.475595 -6.111438 -3.072872 0
M  V30 29 F -1.694223 -6.656474 -1.749976 0
M  V30 30 C -2.795574 -3.933079 -1.271959 0
M  V30 31 H -3.141805 -4.759617 3.615464 0
M  V30 32 H -3.332548 -3.708345 4.932601 0
M  V30 33 H 0.824861 -1.485216 4.810726 0
M  V30 34 H 1.553382 0.841495 4.530894 0
M  V30 35 H 3.501243 0.990587 -0.343127 0
M  V30 36 H 2.619576 2.907163 -1.516375 0
M  V30 37 H 1.262580 1.799008 -0.906363 0
M  V30 38 H 0.540494 4.034462 -0.162820 0
M  V30 39 H 1.218440 3.128627 1.200984 0
M  V30 40 H 2.774402 5.081996 -0.392505 0
M  V30 41 H 3.232395 3.958334 2.314894 0
M  V30 42 H 4.398252 4.777442 1.259227 0
M  V30 43 H 4.712581 2.259653 1.514697 0
M  V30 44 H 4.780093 2.963853 -0.134885 0
M  V30 45 H 1.075754 -0.286409 0.374129 0
M  V30 46 H -1.116255 -0.800482 1.085666 0
M  V30 47 H -3.971504 -1.241346 0.286912 0
M  V30 48 H -4.595399 -2.960187 0.217029 0
M  V30 49 H -1.920185 -0.771516 -1.129045 0
M  V30 50 H -0.525254 -1.488748 -3.024686 0
M  V30 51 H -0.628934 -3.881421 -3.799935 0
M  V30 52 H -3.436383 -4.671259 -0.795142 0
M  V30 END ATOM
M  V30 BEGIN BOND
M  V30 1 1 1 2
M  V30 2 2 2 3
M  V30 3 1 3 4
M  V30 4 2 4 5
M  V30 5 1 5 6
M  V30 6 1 6 7
M  V30 7 2 7 8
M  V30 8 1 8 9
M  V30 9 1 9 10
M  V30 10 1 10 11
M  V30 11 1 11 12
M  V30 12 1 12 13
M  V30 13 1 13 14
M  V30 14 1 14 15
M  V30 15 1 9 16
M  V30 16 1 5 17
M  V30 17 2 17 18
M  V30 18 1 18 19
M  V30 19 1 19 20
M  V30 20 1 20 21
M  V30 21 2 21 22
M  V30 22 1 22 23
M  V30 23 2 23 24
M  V30 24 1 24 25
M  V30 25 1 25 26
M  V30 26 1 26 27
M  V30 27 1 26 28
M  V30 28 1 26 29
M  V30 29 2 25 30
M  V30 30 1 18 2
M  V30 31 1 30 21
M  V30 32 2 16 6
M  V30 33 1 15 10
M  V30 34 1 1 31
M  V30 35 1 1 32
M  V30 36 1 4 33
M  V30 37 1 7 34
M  V30 38 1 10 35
M  V30 39 1 11 36
M  V30 40 1 11 37
M  V30 41 1 12 38
M  V30 42 1 12 39
M  V30 43 1 13 40
M  V30 44 1 14 41
M  V30 45 1 14 42
M  V30 46 1 15 43
M  V30 47 1 15 44
M  V30 48 1 16 45
M  V30 49 1 17 46
M  V30 50 1 20 47
M  V30 51 1 20 48
M  V30 52 1 22 49
M  V30 53 1 23 50
M  V30 54 1 24 51
M  V30 55 1 30 52
M  V30 END BOND
M  V30 END CTAB
M  END
>  <Dataset>  (333) 
ChEMBL_Kinases

>  <Ligand_Instance>  (333) 
nan

>  <PDB_ID>  (333) 
nan

>  <Standardized_SMILES>  (333) 
Nc1ncc(-c2cnn(C3CCNCC3)c2)cc1OCc1cccc(C(F)(F)F)c1

>  <Name>  (333) 
nan

>  <Pocket>  (333) 
nan

>  <ATP_Site>  (333) 
nan

>  <Peripheral>  (333) 
nan

>  <Num_H_Atoms_ProtBoundConf>  (333) 
nan

>  <Num_Resolved_Atoms>  (333) 
nan

>  <Num_Not_Resolved_Atoms>  (333) 
nan

$$$$
CHEMBL4129709
     RDKit          3D

  0  0  0  0  0  0  0  0  0  0999 V3000
M  V30 BEGIN CTAB
M  V30 COUNTS 40 44 0 0 0
M  V30 BEGIN ATOM
M  V30 1 C 0.735911 -5.722477 2.051422 0
M  V30 2 C 2.012084 -5.383059 2.503927 0
M  V30 3 C 2.659105 -4.219881 2.186524 0
M  V30 4 C 2.031217 -3.324683 1.377688 0
M  V30 5 C 2.573153 -2.041485 0.940137 0
M  V30 6 C 3.945445 -1.864548 0.741432 0
M  V30 7 N 4.391390 -0.656563 0.335652 0
M  V30 8 C 3.582790 0.395429 0.109886 0
M  V30 9 N 3.776989 1.669277 -0.289872 0
M  V30 10 C 2.600637 2.318523 -0.357587 0
M  V30 11 C 1.564801 1.486103 0.000556 0
M  V30 12 C 0.133541 1.756117 0.075759 0
M  V30 13 C -0.529880 2.421421 -0.936015 0
M  V30 14 C -1.883809 2.656951 -0.824541 0
M  V30 15 C -2.600593 2.243337 0.278816 0
M  V30 16 N -3.992365 2.425896 0.510269 0
M  V30 17 C -4.748402 1.301712 0.345511 0
M  V30 18 N -6.055045 1.585391 0.589650 0
M  V30 19 N -6.073867 2.871786 0.897735 0
M  V30 20 N -4.860706 3.363573 0.850497 0
M  V30 21 C -1.941915 1.567194 1.313448 0
M  V30 22 C -0.575587 1.329108 1.201698 0
M  V30 23 C 2.198834 0.294883 0.287298 0
M  V30 24 C 1.767041 -0.949069 0.702145 0
M  V30 25 C 0.767674 -3.602652 0.897592 0
M  V30 26 C 0.119720 -4.795647 1.231115 0
M  V30 27 H 0.257752 -6.647571 2.322471 0
M  V30 28 H 2.480668 -6.119209 3.145359 0
M  V30 29 H 3.637951 -3.973097 2.541150 0
M  V30 30 H 4.627241 -2.685399 0.911892 0
M  V30 31 H 4.727075 2.048341 -0.504452 0
M  V30 32 H 2.478103 3.362288 -0.655070 0
M  V30 33 H -0.010442 2.765938 -1.822465 0
M  V30 34 H -2.471084 3.168225 -1.570450 0
M  V30 35 H -4.529226 0.261976 0.068648 0
M  V30 36 H -2.468132 1.217502 2.213558 0
M  V30 37 H -0.111604 0.796736 2.041380 0
M  V30 38 H 0.711390 -1.121882 0.864829 0
M  V30 39 H 0.152258 -2.986277 0.248992 0
M  V30 40 H -0.876630 -5.062653 0.879244 0
M  V30 END ATOM
M  V30 BEGIN BOND
M  V30 1 2 1 2
M  V30 2 1 2 3
M  V30 3 2 3 4
M  V30 4 1 4 5
M  V30 5 2 5 6
M  V30 6 1 6 7
M  V30 7 2 7 8
M  V30 8 1 8 9
M  V30 9 1 9 10
M  V30 10 2 10 11
M  V30 11 1 11 12
M  V30 12 2 12 13
M  V30 13 1 13 14
M  V30 14 2 14 15
M  V30 15 1 15 16
M  V30 16 1 16 17
M  V30 17 2 17 18
M  V30 18 1 18 19
M  V30 19 2 19 20
M  V30 20 1 15 21
M  V30 21 2 21 22
M  V30 22 1 11 23
M  V30 23 2 23 24
M  V30 24 1 4 25
M  V30 25 2 25 26
M  V30 26 1 26 1
M  V30 27 1 24 5
M  V30 28 1 23 8
M  V30 29 1 22 12
M  V30 30 1 20 16
M  V30 31 1 1 27
M  V30 32 1 2 28
M  V30 33 1 3 29
M  V30 34 1 6 30
M  V30 35 1 9 31
M  V30 36 1 10 32
M  V30 37 1 13 33
M  V30 38 1 14 34
M  V30 39 1 17 35
M  V30 40 1 21 36
M  V30 41 1 22 37
M  V30 42 1 24 38
M  V30 43 1 25 39
M  V30 44 1 26 40
M  V30 END BOND
M  V30 END CTAB
M  END
>  <Dataset>  (334) 
ChEMBL_Kinases

>  <Ligand_Instance>  (334) 
nan

>  <PDB_ID>  (334) 
nan

>  <Standardized_SMILES>  (334) 
c1ccc(-c2cnc3[nH]cc(-c4ccc(-n5cnnn5)cc4)c3c2)cc1

>  <Name>  (334) 
nan

>  <Pocket>  (334) 
nan

>  <ATP_Site>  (334) 
nan

>  <Peripheral>  (334) 
nan

>  <Num_H_Atoms_ProtBoundConf>  (334) 
nan

>  <Num_Resolved_Atoms>  (334) 
nan

>  <Num_Not_Resolved_Atoms>  (334) 
nan

$$$$
CHEMBL4793652
     RDKit          3D

  0  0  0  0  0  0  0  0  0  0999 V3000
M  V30 BEGIN CTAB
M  V30 COUNTS 68 72 0 0 0
M  V30 BEGIN ATOM
M  V30 1 C 3.640171 -1.346671 3.681748 0
M  V30 2 O 2.943162 -0.661493 2.684342 0
M  V30 3 C 2.884877 -1.096268 1.367613 0
M  V30 4 C 3.485344 -2.230898 0.866487 0
M  V30 5 C 3.371406 -2.587824 -0.476373 0
M  V30 6 C 2.609783 -1.715048 -1.261180 0
M  V30 7 C 1.999440 -0.575118 -0.783540 0
M  V30 8 C 1.275745 0.147206 -1.823979 0
M  V30 9 N 1.880001 0.783518 -2.865953 0
M  V30 10 C 0.955095 1.361319 -3.656067 0
M  V30 11 C 1.185414 2.137839 -4.872125 0
M  V30 12 C 0.102632 2.663532 -5.544295 0
M  V30 13 C 0.305591 3.399761 -6.704099 0
M  V30 14 C 1.593950 3.588516 -7.158459 0
M  V30 15 C 2.688461 3.058676 -6.479983 0
M  V30 16 C 2.478059 2.322006 -5.318513 0
M  V30 17 N -0.258576 1.090036 -3.112275 0
M  V30 18 C -0.077169 0.347747 -1.990984 0
M  V30 19 C -1.127852 -0.177760 -1.085892 0
M  V30 20 C -2.051538 0.611269 -0.432481 0
M  V30 21 C -2.951985 -0.056936 0.362611 0
M  V30 22 N -3.014225 -1.379002 0.557444 0
M  V30 23 C -2.126964 -2.166281 -0.066538 0
M  V30 24 N -2.092522 -3.578582 0.054283 0
M  V30 25 C -2.872050 -4.463705 0.835035 0
M  V30 26 C -2.664361 -4.500300 2.299475 0
M  V30 27 C -2.877303 -3.253054 3.071665 0
M  V30 28 N -2.644968 -3.567255 4.497829 0
M  V30 29 S -2.883576 -2.150965 5.456681 0
M  V30 30 O -4.334244 -1.721112 5.273014 0
M  V30 31 O -2.737357 -2.469109 6.923758 0
M  V30 32 C -1.795925 -0.861282 5.068831 0
M  V30 33 C -2.239997 0.008346 4.085317 0
M  V30 34 C -1.426159 1.069187 3.720069 0
M  V30 35 C -0.211660 1.220960 4.343158 0
M  V30 36 F 0.623277 2.253193 4.016608 0
M  V30 37 C 0.269779 0.364616 5.339532 0
M  V30 38 C -0.566579 -0.675061 5.673333 0
M  V30 39 C -1.193578 -1.531510 -0.884202 0
M  V30 40 C 2.142740 -0.261600 0.563827 0
M  V30 41 H 4.554295 -1.817823 3.246601 0
M  V30 42 H 2.984610 -2.123138 4.113031 0
M  V30 43 H 4.046706 -0.658933 4.471606 0
M  V30 44 H 4.049804 -2.839702 1.557234 0
M  V30 45 H 3.844565 -3.470995 -0.844189 0
M  V30 46 H 2.563650 -2.060848 -2.304481 0
M  V30 47 H -0.906732 2.508224 -5.178693 0
M  V30 48 H -0.536955 3.818785 -7.243406 0
M  V30 49 H 1.759843 4.166534 -8.074409 0
M  V30 50 H 3.673883 3.265195 -6.921188 0
M  V30 51 H 3.347700 1.932629 -4.824916 0
M  V30 52 H -1.192383 1.387664 -3.470200 0
M  V30 53 H -2.003668 1.664857 -0.586717 0
M  V30 54 H -3.689354 0.568056 0.884916 0
M  V30 55 H -1.358474 -4.083775 -0.535842 0
M  V30 56 H -2.785288 -5.527436 0.463609 0
M  V30 57 H -3.960230 -4.227611 0.584438 0
M  V30 58 H -3.372986 -5.269178 2.712476 0
M  V30 59 H -1.652307 -4.912388 2.573153 0
M  V30 60 H -3.908919 -2.890408 2.999946 0
M  V30 61 H -2.109612 -2.463784 2.856208 0
M  V30 62 H -1.640828 -3.871931 4.627199 0
M  V30 63 H -3.184886 -0.065461 3.562411 0
M  V30 64 H -1.715642 1.789569 2.952157 0
M  V30 65 H 1.218196 0.486791 5.827470 0
M  V30 66 H -0.297111 -1.406421 6.438260 0
M  V30 67 H -0.455744 -2.133031 -1.407968 0
M  V30 68 H 1.624303 0.652802 0.830339 0
M  V30 END ATOM
M  V30 BEGIN BOND
M  V30 1 1 1 2
M  V30 2 1 2 3
M  V30 3 2 3 4
M  V30 4 1 4 5
M  V30 5 2 5 6
M  V30 6 1 6 7
M  V30 7 1 7 8
M  V30 8 1 8 9
M  V30 9 2 9 10
M  V30 10 1 10 11
M  V30 11 2 11 12
M  V30 12 1 12 13
M  V30 13 2 13 14
M  V30 14 1 14 15
M  V30 15 2 15 16
M  V30 16 1 10 17
M  V30 17 1 17 18
M  V30 18 1 18 19
M  V30 19 2 19 20
M  V30 20 1 20 21
M  V30 21 2 21 22
M  V30 22 1 22 23
M  V30 23 1 23 24
M  V30 24 1 24 25
M  V30 25 1 25 26
M  V30 26 1 26 27
M  V30 27 1 27 28
M  V30 28 1 28 29
M  V30 29 2 29 30
M  V30 30 2 29 31
M  V30 31 1 29 32
M  V30 32 2 32 33
M  V30 33 1 33 34
M  V30 34 2 34 35
M  V30 35 1 35 36
M  V30 36 1 35 37
M  V30 37 2 37 38
M  V30 38 2 23 39
M  V30 39 2 7 40
M  V30 40 1 40 3
M  V30 41 2 18 8
M  V30 42 1 39 19
M  V30 43 1 16 11
M  V30 44 1 38 32
M  V30 45 1 1 41
M  V30 46 1 1 42
M  V30 47 1 1 43
M  V30 48 1 4 44
M  V30 49 1 5 45
M  V30 50 1 6 46
M  V30 51 1 12 47
M  V30 52 1 13 48
M  V30 53 1 14 49
M  V30 54 1 15 50
M  V30 55 1 16 51
M  V30 56 1 17 52
M  V30 57 1 20 53
M  V30 58 1 21 54
M  V30 59 1 24 55
M  V30 60 1 25 56
M  V30 61 1 25 57
M  V30 62 1 26 58
M  V30 63 1 26 59
M  V30 64 1 27 60
M  V30 65 1 27 61
M  V30 66 1 28 62
M  V30 67 1 33 63
M  V30 68 1 34 64
M  V30 69 1 37 65
M  V30 70 1 38 66
M  V30 71 1 39 67
M  V30 72 1 40 68
M  V30 END BOND
M  V30 END CTAB
M  END
>  <Dataset>  (335) 
ChEMBL_Kinases

>  <Ligand_Instance>  (335) 
nan

>  <PDB_ID>  (335) 
nan

>  <Standardized_SMILES>  (335) 
COc1cccc(-c2nc(-c3ccccc3)[nH]c2-c2ccnc(NCCCNS(=O)(=O)c3ccc(F)cc3)c2)c1

>  <Name>  (335) 
nan

>  <Pocket>  (335) 
nan

>  <ATP_Site>  (335) 
nan

>  <Peripheral>  (335) 
nan

>  <Num_H_Atoms_ProtBoundConf>  (335) 
nan

>  <Num_Resolved_Atoms>  (335) 
nan

>  <Num_Not_Resolved_Atoms>  (335) 
nan

$$$$
CHEMBL4793675
     RDKit          3D

  0  0  0  0  0  0  0  0  0  0999 V3000
M  V30 BEGIN CTAB
M  V30 COUNTS 46 49 0 0 0
M  V30 BEGIN ATOM
M  V30 1 C 3.629311 -3.560521 2.596491 0
M  V30 2 S 5.243726 -2.834138 2.879267 0
M  V30 3 O 5.657109 -3.204821 4.266976 0
M  V30 4 O 6.245460 -3.363707 1.902205 0
M  V30 5 N 5.148443 -1.110997 2.768916 0
M  V30 6 C 4.747275 -0.468637 1.559623 0
M  V30 7 C 5.170420 -0.759031 0.279547 0
M  V30 8 C 4.676912 -0.033122 -0.783673 0
M  V30 9 C 3.759993 0.993498 -0.632895 0
M  V30 10 C 3.332448 1.287889 0.654042 0
M  V30 11 C 2.355611 2.385570 0.788311 0
M  V30 12 C 0.951809 1.895396 0.701716 0
M  V30 13 O 0.638646 0.687866 0.533903 0
M  V30 14 N -0.031067 2.902365 0.823652 0
M  V30 15 C -1.393792 2.322262 0.725483 0
M  V30 16 N -1.821039 1.257253 0.575262 0
M  V30 17 C -3.047668 0.809197 0.493353 0
M  V30 18 C -3.322800 -0.602960 0.336702 0
M  V30 19 C -2.429180 -1.659241 0.572977 0
M  V30 20 N -2.950064 -2.866188 0.310389 0
M  V30 21 C -4.196731 -2.687045 -0.109015 0
M  V30 22 N -5.155605 -3.536183 -0.512711 0
M  V30 23 C -6.367857 -3.121734 -0.920614 0
M  V30 24 C -6.630167 -1.746724 -0.920816 0
M  V30 25 Cl -8.227030 -1.206813 -1.459825 0
M  V30 26 C -5.634391 -0.895909 -0.503144 0
M  V30 27 C -4.407085 -1.329803 -0.089419 0
M  V30 28 C -3.980791 1.840389 0.616451 0
M  V30 29 S -2.880333 3.369714 0.839984 0
M  V30 30 C 3.827256 0.560334 1.718294 0
M  V30 31 H 3.431155 -4.396441 3.307871 0
M  V30 32 H 3.572939 -3.908920 1.560962 0
M  V30 33 H 2.891878 -2.771707 2.845878 0
M  V30 34 H 5.385802 -0.492463 3.596871 0
M  V30 35 H 5.884643 -1.564929 0.203205 0
M  V30 36 H 5.034155 -0.288943 -1.794096 0
M  V30 37 H 3.431829 1.504866 -1.529148 0
M  V30 38 H 2.500880 3.215049 0.080394 0
M  V30 39 H 2.465731 2.814057 1.807548 0
M  V30 40 H 0.042622 3.913754 0.961475 0
M  V30 41 H -1.392497 -1.547383 0.938687 0
M  V30 42 H -2.469984 -3.774002 0.414733 0
M  V30 43 H -7.083161 -3.867180 -1.229129 0
M  V30 44 H -5.936227 0.124275 -0.561154 0
M  V30 45 H -5.212633 1.799740 0.611867 0
M  V30 46 H 3.432346 0.869599 2.660509 0
M  V30 END ATOM
M  V30 BEGIN BOND
M  V30 1 1 1 2
M  V30 2 2 2 3
M  V30 3 2 2 4
M  V30 4 1 2 5
M  V30 5 1 5 6
M  V30 6 2 6 7
M  V30 7 1 7 8
M  V30 8 2 8 9
M  V30 9 1 9 10
M  V30 10 1 10 11
M  V30 11 1 11 12
M  V30 12 2 12 13
M  V30 13 1 12 14
M  V30 14 1 14 15
M  V30 15 2 15 16
M  V30 16 1 16 17
M  V30 17 1 17 18
M  V30 18 2 18 19
M  V30 19 1 19 20
M  V30 20 1 20 21
M  V30 21 2 21 22
M  V30 22 1 22 23
M  V30 23 2 23 24
M  V30 24 1 24 25
M  V30 25 1 24 26
M  V30 26 2 26 27
M  V30 27 2 17 28
M  V30 28 1 28 29
M  V30 29 2 10 30
M  V30 30 1 30 6
M  V30 31 1 29 15
M  V30 32 1 27 18
M  V30 33 1 27 21
M  V30 34 1 1 31
M  V30 35 1 1 32
M  V30 36 1 1 33
M  V30 37 1 5 34
M  V30 38 1 7 35
M  V30 39 1 8 36
M  V30 40 1 9 37
M  V30 41 1 11 38
M  V30 42 1 11 39
M  V30 43 1 14 40
M  V30 44 1 19 41
M  V30 45 1 20 42
M  V30 46 1 23 43
M  V30 47 1 26 44
M  V30 48 1 28 45
M  V30 49 1 30 46
M  V30 END BOND
M  V30 END CTAB
M  END
>  <Dataset>  (336) 
ChEMBL_Kinases

>  <Ligand_Instance>  (336) 
nan

>  <PDB_ID>  (336) 
nan

>  <Standardized_SMILES>  (336) 
CS(=O)(=O)Nc1cccc(CC(=O)Nc2nc(-c3c[nH]c4ncc(Cl)cc34)cs2)c1

>  <Name>  (336) 
nan

>  <Pocket>  (336) 
nan

>  <ATP_Site>  (336) 
nan

>  <Peripheral>  (336) 
nan

>  <Num_H_Atoms_ProtBoundConf>  (336) 
nan

>  <Num_Resolved_Atoms>  (336) 
nan

>  <Num_Not_Resolved_Atoms>  (336) 
nan

$$$$
CHEMBL4114785
     RDKit          3D

  0  0  0  0  0  0  0  0  0  0999 V3000
M  V30 BEGIN CTAB
M  V30 COUNTS 39 42 0 0 0
M  V30 BEGIN ATOM
M  V30 1 C -0.866876 -3.559468 -0.463377 0
M  V30 2 C 0.549182 -3.157688 -0.288630 0
M  V30 3 C 1.488309 -3.702816 0.548771 0
M  V30 4 C 2.776566 -3.246921 0.628887 0
M  V30 5 F 3.651428 -3.845654 1.487747 0
M  V30 6 C 3.155121 -2.187474 -0.169786 0
M  V30 7 C 2.218825 -1.621880 -1.024079 0
M  V30 8 C 0.906827 -2.109475 -1.084557 0
M  V30 9 N 0.187048 -1.318666 -2.050304 0
M  V30 10 C -0.273456 -0.122642 -1.748146 0
M  V30 11 C -1.030001 1.041548 -2.322784 0
M  V30 12 C -0.108217 2.163986 -1.886752 0
M  V30 13 O 0.526709 3.215215 -2.228012 0
M  V30 14 C 0.047131 1.780555 -0.483835 0
M  V30 15 C 0.260097 2.404822 0.700436 0
M  V30 16 C 0.384286 1.801766 2.052344 0
M  V30 17 C 1.445391 2.135059 2.861436 0
M  V30 18 N 1.263721 1.422608 4.012412 0
M  V30 19 C 0.131504 0.668302 3.936072 0
M  V30 20 N -0.498625 -0.201426 4.777434 0
M  V30 21 C -1.644712 -0.763396 4.308085 0
M  V30 22 C -2.270687 -0.582185 3.095315 0
M  V30 23 C -1.595126 0.303803 2.282528 0
M  V30 24 C -0.430138 0.901183 2.704481 0
M  V30 25 O -0.061968 0.391358 -0.457931 0
M  V30 26 H -1.522873 -2.699137 -0.688998 0
M  V30 27 H -0.962217 -4.409665 -1.168160 0
M  V30 28 H -1.195086 -3.926222 0.554160 0
M  V30 29 H 1.127373 -4.539863 1.155713 0
M  V30 30 H 4.179345 -1.880168 -0.058110 0
M  V30 31 H 2.674580 -0.795621 -1.585706 0
M  V30 32 H -1.979014 1.211107 -1.772118 0
M  V30 33 H -1.134259 1.005982 -3.403282 0
M  V30 34 H 0.344616 3.497349 0.562731 0
M  V30 35 H 2.306057 2.777836 2.785604 0
M  V30 36 H 1.831624 1.364391 4.909223 0
M  V30 37 H -2.047204 -1.435717 5.080307 0
M  V30 38 H -3.184454 -1.111769 2.882838 0
M  V30 39 H -2.063864 0.490179 1.304156 0
M  V30 END ATOM
M  V30 BEGIN BOND
M  V30 1 1 1 2
M  V30 2 2 2 3
M  V30 3 1 3 4
M  V30 4 1 4 5
M  V30 5 2 4 6
M  V30 6 1 6 7
M  V30 7 2 7 8
M  V30 8 1 8 9
M  V30 9 2 9 10
M  V30 10 1 10 11
M  V30 11 1 11 12
M  V30 12 2 12 13
M  V30 13 1 12 14
M  V30 14 2 14 15
M  V30 15 1 15 16
M  V30 16 2 16 17
M  V30 17 1 17 18
M  V30 18 1 18 19
M  V30 19 2 19 20
M  V30 20 1 20 21
M  V30 21 2 21 22
M  V30 22 1 22 23
M  V30 23 2 23 24
M  V30 24 1 14 25
M  V30 25 1 8 2
M  V30 26 1 25 10
M  V30 27 1 24 16
M  V30 28 1 24 19
M  V30 29 1 1 26
M  V30 30 1 1 27
M  V30 31 1 1 28
M  V30 32 1 3 29
M  V30 33 1 6 30
M  V30 34 1 7 31
M  V30 35 1 11 32
M  V30 36 1 11 33
M  V30 37 1 15 34
M  V30 38 1 17 35
M  V30 39 1 18 36
M  V30 40 1 21 37
M  V30 41 1 22 38
M  V30 42 1 23 39
M  V30 END BOND
M  V30 END CTAB
M  END
>  <Dataset>  (337) 
ChEMBL_Kinases

>  <Ligand_Instance>  (337) 
nan

>  <PDB_ID>  (337) 
nan

>  <Standardized_SMILES>  (337) 
Cc1cc(F)ccc1/N=C1/CC(=O)/C(=C/c2c[nH]c3ncccc23)O1

>  <Name>  (337) 
nan

>  <Pocket>  (337) 
nan

>  <ATP_Site>  (337) 
nan

>  <Peripheral>  (337) 
nan

>  <Num_H_Atoms_ProtBoundConf>  (337) 
nan

>  <Num_Resolved_Atoms>  (337) 
nan

>  <Num_Not_Resolved_Atoms>  (337) 
nan

$$$$
CHEMBL4114693
     RDKit          3D

  0  0  0  0  0  0  0  0  0  0999 V3000
M  V30 BEGIN CTAB
M  V30 COUNTS 57 60 0 0 0
M  V30 BEGIN ATOM
M  V30 1 C 4.336089 -2.826531 4.861820 0
M  V30 2 C 2.934967 -3.047401 4.357371 0
M  V30 3 O 2.487145 -1.800074 3.814964 0
M  V30 4 C 3.248300 -1.297547 2.754789 0
M  V30 5 O 4.276742 -1.849607 2.251887 0
M  V30 6 C 2.706154 -0.004944 2.262725 0
M  V30 7 C 3.549771 0.471255 1.136321 0
M  V30 8 O 4.826113 0.565984 1.146371 0
M  V30 9 C 2.670390 0.812854 0.015152 0
M  V30 10 C 2.995101 1.407509 -1.135331 0
M  V30 11 C 2.082362 1.720813 -2.218098 0
M  V30 12 C 2.044813 2.982093 -2.825059 0
M  V30 13 N 1.136489 3.012032 -3.830099 0
M  V30 14 C 0.559845 1.805748 -3.919209 0
M  V30 15 N -0.374758 1.221377 -4.685276 0
M  V30 16 C -0.736816 -0.061872 -4.513561 0
M  V30 17 C -0.180428 -0.887419 -3.537646 0
M  V30 18 C 0.778748 -0.291547 -2.749396 0
M  V30 19 C 1.135731 1.024798 -2.940638 0
M  V30 20 O 1.379520 0.417384 0.327056 0
M  V30 21 C 1.391257 -0.157162 1.589870 0
M  V30 22 N 0.479316 -0.780983 2.254100 0
M  V30 23 C -0.791216 -0.939559 1.631711 0
M  V30 24 C -1.157416 -2.226754 1.218399 0
M  V30 25 C -2.405363 -2.353920 0.612414 0
M  V30 26 C -3.300680 -1.332708 0.387547 0
M  V30 27 N -4.568528 -1.505581 -0.220365 0
M  V30 28 C -5.244119 -2.683109 -0.672525 0
M  V30 29 C -5.836590 -3.549371 0.384415 0
M  V30 30 O -4.961996 -4.061881 1.319434 0
M  V30 31 C -2.885943 -0.086694 0.815434 0
M  V30 32 C -1.658011 0.079207 1.419030 0
M  V30 33 C -1.299982 1.463446 1.847930 0
M  V30 34 H 4.737893 -1.828213 4.543441 0
M  V30 35 H 4.293687 -2.889435 5.971336 0
M  V30 36 H 4.965032 -3.665252 4.520276 0
M  V30 37 H 2.964926 -3.784489 3.543165 0
M  V30 38 H 2.249927 -3.403436 5.150708 0
M  V30 39 H 2.649718 0.713313 3.109633 0
M  V30 40 H 4.054062 1.653211 -1.207583 0
M  V30 41 H 2.630114 3.857116 -2.578639 0
M  V30 42 H 0.911413 3.826170 -4.439894 0
M  V30 43 H -1.499846 -0.431415 -5.186726 0
M  V30 44 H -0.532716 -1.911036 -3.471163 0
M  V30 45 H 1.210177 -0.941203 -1.999060 0
M  V30 46 H -0.494031 -3.065443 1.370305 0
M  V30 47 H -2.617126 -3.350845 0.307611 0
M  V30 48 H -5.115194 -0.603006 -0.364377 0
M  V30 49 H -4.555961 -3.348124 -1.275771 0
M  V30 50 H -6.054932 -2.397087 -1.380373 0
M  V30 51 H -6.255277 -4.453692 -0.156668 0
M  V30 52 H -6.657682 -3.049971 0.951764 0
M  V30 53 H -5.194774 -4.933856 1.677160 0
M  V30 54 H -3.543700 0.783295 0.672075 0
M  V30 55 H -0.476511 1.430596 2.559482 0
M  V30 56 H -1.033419 2.038883 0.940851 0
M  V30 57 H -2.190772 2.000327 2.272001 0
M  V30 END ATOM
M  V30 BEGIN BOND
M  V30 1 1 1 2
M  V30 2 1 2 3
M  V30 3 1 3 4
M  V30 4 2 4 5
M  V30 5 1 4 6
M  V30 6 1 6 7
M  V30 7 2 7 8
M  V30 8 1 7 9
M  V30 9 2 9 10
M  V30 10 1 10 11
M  V30 11 2 11 12
M  V30 12 1 12 13
M  V30 13 1 13 14
M  V30 14 2 14 15
M  V30 15 1 15 16
M  V30 16 2 16 17
M  V30 17 1 17 18
M  V30 18 2 18 19
M  V30 19 1 9 20
M  V30 20 1 20 21
M  V30 21 2 21 22
M  V30 22 1 22 23
M  V30 23 2 23 24
M  V30 24 1 24 25
M  V30 25 2 25 26
M  V30 26 1 26 27
M  V30 27 1 27 28
M  V30 28 1 28 29
M  V30 29 1 29 30
M  V30 30 1 26 31
M  V30 31 2 31 32
M  V30 32 1 32 33
M  V30 33 1 21 6
M  V30 34 1 32 23
M  V30 35 1 19 11
M  V30 36 1 19 14
M  V30 37 1 1 34
M  V30 38 1 1 35
M  V30 39 1 1 36
M  V30 40 1 2 37
M  V30 41 1 2 38
M  V30 42 1 6 39
M  V30 43 1 10 40
M  V30 44 1 12 41
M  V30 45 1 13 42
M  V30 46 1 16 43
M  V30 47 1 17 44
M  V30 48 1 18 45
M  V30 49 1 24 46
M  V30 50 1 25 47
M  V30 51 1 27 48
M  V30 52 1 28 49
M  V30 53 1 28 50
M  V30 54 1 29 51
M  V30 55 1 29 52
M  V30 56 1 30 53
M  V30 57 1 31 54
M  V30 58 1 33 55
M  V30 59 1 33 56
M  V30 60 1 33 57
M  V30 END BOND
M  V30 END CTAB
M  END
>  <Dataset>  (338) 
ChEMBL_Kinases

>  <Ligand_Instance>  (338) 
nan

>  <PDB_ID>  (338) 
nan

>  <Standardized_SMILES>  (338) 
CCOC(=O)C1C(=O)/C(=C/c2c[nH]c3ncccc23)O/C1=N\c1ccc(NCCO)cc1C

>  <Name>  (338) 
nan

>  <Pocket>  (338) 
nan

>  <ATP_Site>  (338) 
nan

>  <Peripheral>  (338) 
nan

>  <Num_H_Atoms_ProtBoundConf>  (338) 
nan

>  <Num_Resolved_Atoms>  (338) 
nan

>  <Num_Not_Resolved_Atoms>  (338) 
nan

$$$$
CHEMBL4793697
     RDKit          3D

  0  0  0  0  0  0  0  0  0  0999 V3000
M  V30 BEGIN CTAB
M  V30 COUNTS 30 32 0 0 0
M  V30 BEGIN ATOM
M  V30 1 C -1.099009 -2.005382 3.501797 0
M  V30 2 C -0.742406 -3.130499 2.583152 0
M  V30 3 C -1.117607 -2.867965 1.143937 0
M  V30 4 N -0.425667 -1.688702 0.684765 0
M  V30 5 C 0.785465 -1.844106 0.124113 0
M  V30 6 O 1.285385 -2.991584 0.011326 0
M  V30 7 C 1.480928 -0.752944 -0.327093 0
M  V30 8 C 2.722766 -0.926404 -0.900410 0
M  V30 9 C 3.403347 0.193520 -1.347664 0
M  V30 10 F 4.628240 0.008832 -1.911667 0
M  V30 11 C 2.910235 1.468389 -1.252075 0
M  V30 12 C 1.663920 1.641654 -0.676602 0
M  V30 13 C 0.987880 0.531683 -0.232604 0
M  V30 14 N -0.218279 0.646645 0.330107 0
M  V30 15 C -0.982933 1.715560 0.577770 0
M  V30 16 S -0.783926 3.306741 0.308594 0
M  V30 17 N -2.118152 1.301515 1.164576 0
M  V30 18 N -2.070487 -0.017407 1.286271 0
M  V30 19 C -0.885610 -0.434521 0.766800 0
M  V30 20 H -0.468537 -1.127715 3.296473 0
M  V30 21 H -0.835287 -2.335384 4.529604 0
M  V30 22 H -2.173776 -1.781899 3.457938 0
M  V30 23 H 0.369899 -3.240545 2.621371 0
M  V30 24 H -1.160925 -4.067294 2.970800 0
M  V30 25 H -2.221801 -2.746650 1.075862 0
M  V30 26 H -0.780061 -3.740591 0.549933 0
M  V30 27 H 3.189329 -1.894076 -1.016980 0
M  V30 28 H 3.511134 2.289513 -1.628604 0
M  V30 29 H 1.325068 2.651541 -0.625572 0
M  V30 30 H -2.976255 1.820932 1.516987 0
M  V30 END ATOM
M  V30 BEGIN BOND
M  V30 1 1 1 2
M  V30 2 1 2 3
M  V30 3 1 3 4
M  V30 4 1 4 5
M  V30 5 2 5 6
M  V30 6 1 5 7
M  V30 7 2 7 8
M  V30 8 1 8 9
M  V30 9 1 9 10
M  V30 10 2 9 11
M  V30 11 1 11 12
M  V30 12 2 12 13
M  V30 13 1 13 14
M  V30 14 1 14 15
M  V30 15 2 15 16
M  V30 16 1 15 17
M  V30 17 1 17 18
M  V30 18 2 18 19
M  V30 19 1 19 4
M  V30 20 1 13 7
M  V30 21 1 19 14
M  V30 22 1 1 20
M  V30 23 1 1 21
M  V30 24 1 1 22
M  V30 25 1 2 23
M  V30 26 1 2 24
M  V30 27 1 3 25
M  V30 28 1 3 26
M  V30 29 1 8 27
M  V30 30 1 11 28
M  V30 31 1 12 29
M  V30 32 1 17 30
M  V30 END BOND
M  V30 END CTAB
M  END
>  <Dataset>  (339) 
ChEMBL_Kinases

>  <Ligand_Instance>  (339) 
nan

>  <PDB_ID>  (339) 
nan

>  <Standardized_SMILES>  (339) 
CCCn1c(=O)c2cc(F)ccc2n2c(=S)[nH]nc12

>  <Name>  (339) 
nan

>  <Pocket>  (339) 
nan

>  <ATP_Site>  (339) 
nan

>  <Peripheral>  (339) 
nan

>  <Num_H_Atoms_ProtBoundConf>  (339) 
nan

>  <Num_Resolved_Atoms>  (339) 
nan

>  <Num_Not_Resolved_Atoms>  (339) 
nan

$$$$
CHEMBL4793723
     RDKit          3D

  0  0  0  0  0  0  0  0  0  0999 V3000
M  V30 BEGIN CTAB
M  V30 COUNTS 68 72 0 0 0
M  V30 BEGIN ATOM
M  V30 1 C 5.369076 -2.896362 -5.608682 0
M  V30 2 O 5.821737 -1.574158 -5.357769 0
M  V30 3 C 5.396933 -0.892932 -4.210200 0
M  V30 4 C 5.815770 0.403970 -3.924154 0
M  V30 5 C 5.366851 1.043781 -2.768181 0
M  V30 6 C 4.505997 0.423486 -1.882216 0
M  V30 7 S 3.883670 1.087711 -0.415423 0
M  V30 8 O 3.624885 0.060612 0.622746 0
M  V30 9 O 4.868163 2.141874 0.075275 0
M  V30 10 N 2.395545 1.958684 -0.684734 0
M  V30 11 C 2.624291 3.061964 -1.570493 0
M  V30 12 C 1.423837 3.892630 -1.887872 0
M  V30 13 C 0.735440 4.549820 -0.754469 0
M  V30 14 N 0.178040 3.635954 0.207792 0
M  V30 15 C -0.884549 2.760095 -0.209999 0
M  V30 16 N -1.356737 2.905041 -1.444548 0
M  V30 17 C -2.348102 2.147966 -1.940865 0
M  V30 18 C -2.919343 1.157472 -1.134399 0
M  V30 19 C -2.428550 1.006162 0.146277 0
M  V30 20 C -3.063991 -0.042948 0.927923 0
M  V30 21 N -3.741389 -0.147686 2.081179 0
M  V30 22 C -4.102054 -1.422793 2.316993 0
M  V30 23 C -4.845009 -1.939086 3.456946 0
M  V30 24 C -5.137763 -3.307525 3.532102 0
M  V30 25 C -5.841169 -3.853923 4.592784 0
M  V30 26 C -6.263048 -3.017052 5.601611 0
M  V30 27 C -6.007639 -1.647235 5.591364 0
M  V30 28 C -5.290956 -1.148981 4.493436 0
M  V30 29 N -3.645085 -2.158305 1.289819 0
M  V30 30 C -2.995305 -1.337331 0.407978 0
M  V30 31 C -2.377875 -1.845213 -0.838379 0
M  V30 32 C -3.304061 -2.427737 -1.706980 0
M  V30 33 C -2.894273 -2.949791 -2.918302 0
M  V30 34 C -1.556137 -2.899621 -3.284730 0
M  V30 35 F -1.051233 -3.387595 -4.465677 0
M  V30 36 C -0.671469 -2.310558 -2.389420 0
M  V30 37 O 0.695006 -2.208581 -2.661049 0
M  V30 38 C -1.049510 -1.781189 -1.173369 0
M  V30 39 N -1.435655 1.817520 0.539731 0
M  V30 40 C 4.092901 -0.873132 -2.177631 0
M  V30 41 C 4.525824 -1.535349 -3.323972 0
M  V30 42 H 4.265042 -2.975087 -5.610436 0
M  V30 43 H 5.840014 -3.624208 -4.892838 0
M  V30 44 H 5.742847 -3.176903 -6.619057 0
M  V30 45 H 6.489797 0.915626 -4.599138 0
M  V30 46 H 5.663686 2.050865 -2.501158 0
M  V30 47 H 2.172980 2.356595 0.275646 0
M  V30 48 H 3.053688 2.669780 -2.538590 0
M  V30 49 H 3.455792 3.724173 -1.186539 0
M  V30 50 H 1.684062 4.677032 -2.643858 0
M  V30 51 H 0.723653 3.217547 -2.457907 0
M  V30 52 H 1.510368 5.144007 -0.171926 0
M  V30 53 H -0.069721 5.250971 -1.101920 0
M  V30 54 H 0.424148 3.505449 1.237099 0
M  V30 55 H -2.648531 2.370612 -2.978097 0
M  V30 56 H -3.709754 0.603524 -1.620750 0
M  V30 57 H -3.912587 0.689198 2.642058 0
M  V30 58 H -4.804713 -3.964862 2.735230 0
M  V30 59 H -6.054777 -4.931708 4.620703 0
M  V30 60 H -6.820365 -3.468181 6.435590 0
M  V30 61 H -6.347787 -0.997932 6.395378 0
M  V30 62 H -5.081132 -0.086935 4.465039 0
M  V30 63 H -4.359417 -2.517505 -1.524953 0
M  V30 64 H -3.599926 -3.415454 -3.619619 0
M  V30 65 H 1.077673 -1.479710 -3.253069 0
M  V30 66 H -0.420061 -1.321196 -0.454423 0
M  V30 67 H 3.412182 -1.439515 -1.531149 0
M  V30 68 H 4.178845 -2.550984 -3.516917 0
M  V30 END ATOM
M  V30 BEGIN BOND
M  V30 1 1 1 2
M  V30 2 1 2 3
M  V30 3 2 3 4
M  V30 4 1 4 5
M  V30 5 2 5 6
M  V30 6 1 6 7
M  V30 7 2 7 8
M  V30 8 2 7 9
M  V30 9 1 7 10
M  V30 10 1 10 11
M  V30 11 1 11 12
M  V30 12 1 12 13
M  V30 13 1 13 14
M  V30 14 1 14 15
M  V30 15 2 15 16
M  V30 16 1 16 17
M  V30 17 2 17 18
M  V30 18 1 18 19
M  V30 19 1 19 20
M  V30 20 1 20 21
M  V30 21 1 21 22
M  V30 22 1 22 23
M  V30 23 2 23 24
M  V30 24 1 24 25
M  V30 25 2 25 26
M  V30 26 1 26 27
M  V30 27 2 27 28
M  V30 28 2 22 29
M  V30 29 1 29 30
M  V30 30 1 30 31
M  V30 31 2 31 32
M  V30 32 1 32 33
M  V30 33 2 33 34
M  V30 34 1 34 35
M  V30 35 1 34 36
M  V30 36 1 36 37
M  V30 37 2 36 38
M  V30 38 2 19 39
M  V30 39 1 6 40
M  V30 40 2 40 41
M  V30 41 1 41 3
M  V30 42 1 39 15
M  V30 43 2 30 20
M  V30 44 1 38 31
M  V30 45 1 28 23
M  V30 46 1 1 42
M  V30 47 1 1 43
M  V30 48 1 1 44
M  V30 49 1 4 45
M  V30 50 1 5 46
M  V30 51 1 10 47
M  V30 52 1 11 48
M  V30 53 1 11 49
M  V30 54 1 12 50
M  V30 55 1 12 51
M  V30 56 1 13 52
M  V30 57 1 13 53
M  V30 58 1 14 54
M  V30 59 1 17 55
M  V30 60 1 18 56
M  V30 61 1 21 57
M  V30 62 1 24 58
M  V30 63 1 25 59
M  V30 64 1 26 60
M  V30 65 1 27 61
M  V30 66 1 28 62
M  V30 67 1 32 63
M  V30 68 1 33 64
M  V30 69 1 37 65
M  V30 70 1 38 66
M  V30 71 1 40 67
M  V30 72 1 41 68
M  V30 END BOND
M  V30 END CTAB
M  END
>  <Dataset>  (340) 
ChEMBL_Kinases

>  <Ligand_Instance>  (340) 
nan

>  <PDB_ID>  (340) 
nan

>  <Standardized_SMILES>  (340) 
COc1ccc(S(=O)(=O)NCCCNc2nccc(-c3[nH]c(-c4ccccc4)nc3-c3ccc(F)c(O)c3)n2)cc1

>  <Name>  (340) 
nan

>  <Pocket>  (340) 
nan

>  <ATP_Site>  (340) 
nan

>  <Peripheral>  (340) 
nan

>  <Num_H_Atoms_ProtBoundConf>  (340) 
nan

>  <Num_Resolved_Atoms>  (340) 
nan

>  <Num_Not_Resolved_Atoms>  (340) 
nan

$$$$
CHEMBL4793727
     RDKit          3D

  0  0  0  0  0  0  0  0  0  0999 V3000
M  V30 BEGIN CTAB
M  V30 COUNTS 39 41 0 0 0
M  V30 BEGIN ATOM
M  V30 1 N 0.185224 -4.559957 1.563540 0
M  V30 2 C 1.542915 -4.983851 1.383217 0
M  V30 3 C 2.533487 -3.853386 1.535137 0
M  V30 4 N 2.307785 -2.798802 0.575780 0
M  V30 5 C 3.136094 -1.619543 0.536265 0
M  V30 6 O 4.030361 -1.687051 1.439502 0
M  V30 7 C 2.734037 -0.668463 -0.518909 0
M  V30 8 C 3.441309 -0.505355 -1.693109 0
M  V30 9 N 2.924017 0.394374 -2.528797 0
M  V30 10 C 1.807830 1.099163 -2.273972 0
M  V30 11 N 1.290992 2.052139 -3.196237 0
M  V30 12 N 1.132771 0.924802 -1.119644 0
M  V30 13 N 0.023208 1.484430 -0.629750 0
M  V30 14 C -0.256918 0.970328 0.583835 0
M  V30 15 C -1.395110 1.334852 1.435647 0
M  V30 16 C -2.330070 0.371456 1.753211 0
M  V30 17 C -3.418444 0.698190 2.558823 0
M  V30 18 O -4.403831 -0.239356 2.915328 0
M  V30 19 C -3.595671 1.975075 3.058720 0
M  V30 20 C -2.656728 2.939225 2.739706 0
M  V30 21 O -2.742633 4.248448 3.191218 0
M  V30 22 C -1.569078 2.629807 1.939213 0
M  V30 23 N 0.724692 0.068348 0.826652 0
M  V30 24 C 1.579761 0.035550 -0.212843 0
M  V30 25 H -0.479945 -5.331454 1.465219 0
M  V30 26 H 0.030412 -3.887301 2.320098 0
M  V30 27 H 1.650555 -5.357700 0.329210 0
M  V30 28 H 1.777412 -5.813578 2.065896 0
M  V30 29 H 3.547678 -4.284804 1.292666 0
M  V30 30 H 2.551736 -3.450782 2.570417 0
M  V30 31 H 1.497090 -2.944077 -0.096358 0
M  V30 32 H 4.334129 -1.092170 -1.858728 0
M  V30 33 H 1.805823 2.589621 -3.931488 0
M  V30 34 H 0.266482 2.292783 -3.192891 0
M  V30 35 H -2.290455 -0.655432 1.419040 0
M  V30 36 H -4.281635 -1.235460 2.727780 0
M  V30 37 H -4.442393 2.224688 3.684499 0
M  V30 38 H -3.627479 4.688918 3.460590 0
M  V30 39 H -0.778446 3.305522 1.627630 0
M  V30 END ATOM
M  V30 BEGIN BOND
M  V30 1 1 1 2
M  V30 2 1 2 3
M  V30 3 1 3 4
M  V30 4 1 4 5
M  V30 5 2 5 6
M  V30 6 1 5 7
M  V30 7 2 7 8
M  V30 8 1 8 9
M  V30 9 2 9 10
M  V30 10 1 10 11
M  V30 11 1 10 12
M  V30 12 1 12 13
M  V30 13 2 13 14
M  V30 14 1 14 15
M  V30 15 2 15 16
M  V30 16 1 16 17
M  V30 17 1 17 18
M  V30 18 2 17 19
M  V30 19 1 19 20
M  V30 20 1 20 21
M  V30 21 2 20 22
M  V30 22 1 14 23
M  V30 23 2 23 24
M  V30 24 1 24 7
M  V30 25 1 24 12
M  V30 26 1 22 15
M  V30 27 1 1 25
M  V30 28 1 1 26
M  V30 29 1 2 27
M  V30 30 1 2 28
M  V30 31 1 3 29
M  V30 32 1 3 30
M  V30 33 1 4 31
M  V30 34 1 8 32
M  V30 35 1 11 33
M  V30 36 1 11 34
M  V30 37 1 16 35
M  V30 38 1 18 36
M  V30 39 1 19 37
M  V30 40 1 21 38
M  V30 41 1 22 39
M  V30 END BOND
M  V30 END CTAB
M  END
>  <Dataset>  (341) 
ChEMBL_Kinases

>  <Ligand_Instance>  (341) 
nan

>  <PDB_ID>  (341) 
nan

>  <Standardized_SMILES>  (341) 
NCCNC(=O)c1cnc(N)n2nc(-c3cc(O)cc(O)c3)nc12

>  <Name>  (341) 
nan

>  <Pocket>  (341) 
nan

>  <ATP_Site>  (341) 
nan

>  <Peripheral>  (341) 
nan

>  <Num_H_Atoms_ProtBoundConf>  (341) 
nan

>  <Num_Resolved_Atoms>  (341) 
nan

>  <Num_Not_Resolved_Atoms>  (341) 
nan

$$$$
CHEMBL4793755
     RDKit          3D

  0  0  0  0  0  0  0  0  0  0999 V3000
M  V30 BEGIN CTAB
M  V30 COUNTS 37 40 0 0 0
M  V30 BEGIN ATOM
M  V30 1 O -0.359661 -2.256073 1.059136 0
M  V30 2 C -0.297108 -1.038766 1.301221 0
M  V30 3 C 0.869985 -0.312845 1.516168 0
M  V30 4 C 2.044760 -1.069175 1.441759 0
M  V30 5 C 3.209163 -0.345532 1.656216 0
M  V30 6 C 4.503836 -1.055744 1.597886 0
M  V30 7 C 4.632726 -2.145594 0.730282 0
M  V30 8 N 5.899017 -2.638733 0.843512 0
M  V30 9 N 6.526484 -1.892101 1.737637 0
M  V30 10 C 5.712659 -0.928411 2.211744 0
M  V30 11 C 3.255007 1.008967 1.924193 0
M  V30 12 C 2.068428 1.709609 1.987042 0
M  V30 13 F 2.027228 3.033560 2.243095 0
M  V30 14 C 0.882522 1.040321 1.781786 0
M  V30 15 N -0.328612 1.624889 1.820563 0
M  V30 16 C -1.471825 0.937495 1.614689 0
M  V30 17 N -1.476750 -0.390709 1.354408 0
M  V30 18 C -2.800592 -0.961149 1.160208 0
M  V30 19 C -3.224968 -0.915068 -0.272733 0
M  V30 20 C -3.913214 0.200312 -0.737032 0
M  V30 21 C -4.257238 0.141967 -2.067970 0
M  V30 22 C -3.978915 -0.896294 -2.928170 0
M  V30 23 C -3.291882 -1.987209 -2.424683 0
M  V30 24 C -2.923778 -1.979509 -1.098069 0
M  V30 25 H 2.099881 -2.114308 1.240628 0
M  V30 26 H 3.896940 -2.575968 0.058934 0
M  V30 27 H 7.498755 -1.946333 2.099137 0
M  V30 28 H 5.834963 -0.134818 2.934266 0
M  V30 29 H 4.201347 1.517038 2.082584 0
M  V30 30 H -2.378578 1.525325 1.673235 0
M  V30 31 H -3.528255 -0.463939 1.819533 0
M  V30 32 H -2.696672 -2.039875 1.467270 0
M  V30 33 H -4.163500 1.038539 -0.133506 0
M  V30 34 H -4.803657 0.952615 -2.570220 0
M  V30 35 H -4.252317 -0.928737 -3.959473 0
M  V30 36 H -3.029071 -2.843885 -3.017805 0
M  V30 37 H -2.389461 -2.826287 -0.704502 0
M  V30 END ATOM
M  V30 BEGIN BOND
M  V30 1 2 1 2
M  V30 2 1 2 3
M  V30 3 2 3 4
M  V30 4 1 4 5
M  V30 5 1 5 6
M  V30 6 1 6 7
M  V30 7 2 7 8
M  V30 8 1 8 9
M  V30 9 1 9 10
M  V30 10 2 5 11
M  V30 11 1 11 12
M  V30 12 1 12 13
M  V30 13 2 12 14
M  V30 14 1 14 15
M  V30 15 2 15 16
M  V30 16 1 16 17
M  V30 17 1 17 18
M  V30 18 1 18 19
M  V30 19 2 19 20
M  V30 20 1 20 21
M  V30 21 2 21 22
M  V30 22 1 22 23
M  V30 23 2 23 24
M  V30 24 1 17 2
M  V30 25 1 24 19
M  V30 26 1 14 3
M  V30 27 2 10 6
M  V30 28 1 4 25
M  V30 29 1 7 26
M  V30 30 1 9 27
M  V30 31 1 10 28
M  V30 32 1 11 29
M  V30 33 1 16 30
M  V30 34 1 18 31
M  V30 35 1 18 32
M  V30 36 1 20 33
M  V30 37 1 21 34
M  V30 38 1 22 35
M  V30 39 1 23 36
M  V30 40 1 24 37
M  V30 END BOND
M  V30 END CTAB
M  END
>  <Dataset>  (342) 
ChEMBL_Kinases

>  <Ligand_Instance>  (342) 
nan

>  <PDB_ID>  (342) 
nan

>  <Standardized_SMILES>  (342) 
O=c1c2cc(-c3cn[nH]c3)cc(F)c2ncn1Cc1ccccc1

>  <Name>  (342) 
nan

>  <Pocket>  (342) 
nan

>  <ATP_Site>  (342) 
nan

>  <Peripheral>  (342) 
nan

>  <Num_H_Atoms_ProtBoundConf>  (342) 
nan

>  <Num_Resolved_Atoms>  (342) 
nan

>  <Num_Not_Resolved_Atoms>  (342) 
nan

$$$$
CHEMBL4114009
     RDKit          3D

  0  0  0  0  0  0  0  0  0  0999 V3000
M  V30 BEGIN CTAB
M  V30 COUNTS 66 69 0 0 0
M  V30 BEGIN ATOM
M  V30 1 C 3.984595 0.090719 3.517476 0
M  V30 2 C 2.529842 -0.197640 3.690595 0 CFG=1
M  V30 3 C 2.064536 0.579674 4.908305 0
M  V30 4 O 2.249076 1.934822 4.758293 0
M  V30 5 C 1.655816 0.033587 2.502343 0
M  V30 6 N 1.588843 1.326537 1.964530 0
M  V30 7 C 2.740538 1.780063 1.314992 0
M  V30 8 C 2.483157 2.152981 -0.163671 0
M  V30 9 N 1.192968 1.570695 -0.466291 0
M  V30 10 C 1.125093 0.493345 -1.362531 0
M  V30 11 O 2.366976 0.507771 -1.551906 0
M  V30 12 N 0.297117 -0.453788 -2.025736 0
M  V30 13 C -1.103018 -0.896226 -2.157001 0
M  V30 14 C -0.940257 -2.363159 -1.910333 0
M  V30 15 C -1.494618 -3.538514 -1.389691 0
M  V30 16 N -2.804127 -3.489688 -0.787796 0
M  V30 17 C -2.848600 -3.202639 0.625075 0
M  V30 18 O -1.796520 -3.004639 1.295596 0
M  V30 19 C -4.177341 -3.158316 1.212364 0
M  V30 20 C -4.342562 -2.881020 2.567056 0
M  V30 21 C -5.552790 -2.812246 3.226546 0
M  V30 22 C -6.687199 -3.042436 2.453928 0
M  V30 23 C -6.530236 -3.316772 1.115541 0
M  V30 24 N -5.320353 -3.371511 0.522274 0
M  V30 25 N -0.582743 -4.512953 -1.601335 0
M  V30 26 N 0.452527 -3.998688 -2.201104 0
M  V30 27 C 0.295423 -2.696139 -2.416393 0
M  V30 28 C 0.842165 -1.419202 -2.957369 0
M  V30 29 C 2.343912 -1.463410 -3.011431 0
M  V30 30 C 0.278868 -1.242524 -4.349443 0
M  V30 31 C 0.154961 2.273198 0.281297 0 CFG=1
M  V30 32 C -1.226024 2.084757 -0.259153 0
M  V30 33 C 0.335427 1.920927 1.722592 0
M  V30 34 H 4.486943 -0.548820 2.751017 0
M  V30 35 H 4.247179 1.161020 3.444000 0
M  V30 36 H 4.473278 -0.228795 4.498161 0
M  V30 37 H 2.464018 -1.307752 3.906464 0
M  V30 38 H 1.004613 0.363634 5.170979 0
M  V30 39 H 2.663434 0.238767 5.776889 0
M  V30 40 H 1.484903 2.442746 4.443413 0
M  V30 41 H 2.020234 -0.718799 1.724125 0
M  V30 42 H 0.615927 -0.352942 2.725759 0
M  V30 43 H 3.448353 0.912617 1.223703 0
M  V30 44 H 3.303422 2.590403 1.803409 0
M  V30 45 H 2.361646 3.270015 -0.189075 0
M  V30 46 H 3.312043 1.863154 -0.794792 0
M  V30 47 H -1.421129 -0.649857 -3.169853 0
M  V30 48 H -1.756760 -0.490894 -1.366850 0
M  V30 49 H -3.659210 -3.653281 -1.347396 0
M  V30 50 H -3.433487 -2.708388 3.129636 0
M  V30 51 H -5.580261 -2.588287 4.290027 0
M  V30 52 H -7.669245 -2.997164 2.938532 0
M  V30 53 H -7.426478 -3.492010 0.537862 0
M  V30 54 H 1.293031 -4.560668 -2.470650 0
M  V30 55 H 2.749242 -0.601697 -3.553686 0
M  V30 56 H 2.579377 -2.346525 -3.682045 0
M  V30 57 H 2.801865 -1.715533 -2.059756 0
M  V30 58 H 1.020440 -1.516513 -5.131056 0
M  V30 59 H -0.034181 -0.209570 -4.577761 0
M  V30 60 H -0.591986 -1.903269 -4.532205 0
M  V30 61 H 0.345960 3.388124 0.189997 0
M  V30 62 H -1.706821 1.250208 0.289256 0
M  V30 63 H -1.218616 1.876875 -1.339453 0
M  V30 64 H -1.877867 2.982629 -0.083307 0
M  V30 65 H 0.139637 2.832308 2.333642 0
M  V30 66 H -0.458176 1.156397 1.970632 0
M  V30 END ATOM
M  V30 BEGIN BOND
M  V30 1 1 1 2
M  V30 2 1 2 3
M  V30 3 1 3 4
M  V30 4 1 2 5
M  V30 5 1 5 6
M  V30 6 1 6 7
M  V30 7 1 7 8
M  V30 8 1 8 9
M  V30 9 1 9 10
M  V30 10 2 10 11
M  V30 11 1 10 12
M  V30 12 1 12 13
M  V30 13 1 13 14
M  V30 14 1 14 15
M  V30 15 1 15 16
M  V30 16 1 16 17
M  V30 17 2 17 18
M  V30 18 1 17 19
M  V30 19 2 19 20
M  V30 20 1 20 21
M  V30 21 2 21 22
M  V30 22 1 22 23
M  V30 23 2 23 24
M  V30 24 2 15 25
M  V30 25 1 25 26
M  V30 26 1 26 27
M  V30 27 1 27 28
M  V30 28 1 28 29
M  V30 29 1 28 30
M  V30 30 1 9 31
M  V30 31 1 31 32
M  V30 32 1 31 33
M  V30 33 1 33 6
M  V30 34 1 28 12
M  V30 35 2 27 14
M  V30 36 1 24 19
M  V30 37 1 1 34
M  V30 38 1 1 35
M  V30 39 1 1 36
M  V30 40 1 2 37 CFG=1
M  V30 41 1 3 38
M  V30 42 1 3 39
M  V30 43 1 4 40
M  V30 44 1 5 41
M  V30 45 1 5 42
M  V30 46 1 7 43
M  V30 47 1 7 44
M  V30 48 1 8 45
M  V30 49 1 8 46
M  V30 50 1 13 47
M  V30 51 1 13 48
M  V30 52 1 16 49
M  V30 53 1 20 50
M  V30 54 1 21 51
M  V30 55 1 22 52
M  V30 56 1 23 53
M  V30 57 1 26 54
M  V30 58 1 29 55
M  V30 59 1 29 56
M  V30 60 1 29 57
M  V30 61 1 30 58
M  V30 62 1 30 59
M  V30 63 1 30 60
M  V30 64 1 31 61 CFG=1
M  V30 65 1 32 62
M  V30 66 1 32 63
M  V30 67 1 32 64
M  V30 68 1 33 65
M  V30 69 1 33 66
M  V30 END BOND
M  V30 END CTAB
M  END
>  <Dataset>  (343) 
ChEMBL_Kinases

>  <Ligand_Instance>  (343) 
nan

>  <PDB_ID>  (343) 
nan

>  <Standardized_SMILES>  (343) 
C[C@@H](CO)CN1CCN(C(=O)N2Cc3c(NC(=O)c4ccccn4)n[nH]c3C2(C)C)[C@@H](C)C1

>  <Name>  (343) 
nan

>  <Pocket>  (343) 
nan

>  <ATP_Site>  (343) 
nan

>  <Peripheral>  (343) 
nan

>  <Num_H_Atoms_ProtBoundConf>  (343) 
nan

>  <Num_Resolved_Atoms>  (343) 
nan

>  <Num_Not_Resolved_Atoms>  (343) 
nan

$$$$
CHEMBL4113701
     RDKit          3D

  0  0  0  0  0  0  0  0  0  0999 V3000
M  V30 BEGIN CTAB
M  V30 COUNTS 54 57 0 0 0
M  V30 BEGIN ATOM
M  V30 1 C 6.334285 -3.394325 4.703950 0
M  V30 2 N 5.829957 -2.214326 4.038324 0
M  V30 3 C 6.582376 -1.266879 3.299348 0
M  V30 4 O 7.817418 -1.260534 3.075632 0
M  V30 5 C 5.887637 -0.135743 2.701522 0
M  V30 6 C 6.455884 0.859908 1.948648 0
M  V30 7 N 5.775899 1.888438 1.411627 0
M  V30 8 C 4.424904 1.984551 1.607234 0
M  V30 9 C 3.728604 3.038144 1.056456 0
M  V30 10 C 2.344386 3.114860 1.269795 0
M  V30 11 C 1.753448 2.129008 2.020551 0
M  V30 12 C 0.330263 2.053631 2.336818 0
M  V30 13 C -0.847393 1.985147 2.588483 0
M  V30 14 C -2.270708 1.877513 2.890831 0
M  V30 15 N -3.105868 1.920036 1.679276 0
M  V30 16 C -2.780034 0.911896 0.807564 0
M  V30 17 O -1.884204 0.035978 0.959326 0
M  V30 18 C -2.904265 0.185391 -0.354563 0
M  V30 19 C -4.077673 1.031571 -0.759683 0
M  V30 20 N -4.892710 0.988912 -1.904809 0
M  V30 21 C -4.612776 0.029903 -2.845288 0
M  V30 22 N -3.577917 -0.788446 -2.587716 0
M  V30 23 C -3.055123 -1.866557 -3.380855 0
M  V30 24 C -3.722125 -3.159549 -2.982079 0
M  V30 25 C -4.971847 -3.452293 -3.507758 0
M  V30 26 C -5.497333 -4.658401 -3.095517 0
M  V30 27 C -4.945476 -5.584312 -2.246315 0
M  V30 28 F -5.574400 -6.728304 -1.928981 0
M  V30 29 C -3.691493 -5.242165 -1.747182 0
M  V30 30 F -3.067647 -6.106452 -0.894040 0
M  V30 31 C -3.078916 -4.039914 -2.108934 0
M  V30 32 C -3.023406 -0.507411 -1.463757 0
M  V30 33 O -1.980130 -1.219756 -1.055207 0
M  V30 34 C 2.460751 1.062670 2.577335 0
M  V30 35 C 3.820327 1.003198 2.358046 0
M  V30 36 N 4.549783 0.000320 2.868305 0
M  V30 37 H 5.755812 -4.287995 4.324934 0
M  V30 38 H 7.410301 -3.542081 4.524400 0
M  V30 39 H 6.065685 -3.324170 5.791987 0
M  V30 40 H 4.803033 -2.144755 4.175768 0
M  V30 41 H 7.523083 0.808937 1.780993 0
M  V30 42 H 4.178288 3.817707 0.466384 0
M  V30 43 H 1.686366 3.880915 0.899126 0
M  V30 44 H -2.525397 2.711221 3.533198 0
M  V30 45 H -2.508143 0.931453 3.439841 0
M  V30 46 H -3.873244 2.440920 1.215371 0
M  V30 47 H -4.730125 1.916166 -0.416631 0
M  V30 48 H -5.064264 -0.223523 -3.792787 0
M  V30 49 H -3.322309 -1.671324 -4.448013 0
M  V30 50 H -1.979403 -1.979486 -3.236882 0
M  V30 51 H -5.511790 -2.809260 -4.185451 0
M  V30 52 H -6.484905 -4.934870 -3.485256 0
M  V30 53 H -2.115656 -3.850949 -1.688925 0
M  V30 54 H 2.049150 0.261933 3.174255 0
M  V30 END ATOM
M  V30 BEGIN BOND
M  V30 1 1 1 2
M  V30 2 1 2 3
M  V30 3 2 3 4
M  V30 4 1 3 5
M  V30 5 2 5 6
M  V30 6 1 6 7
M  V30 7 2 7 8
M  V30 8 1 8 9
M  V30 9 2 9 10
M  V30 10 1 10 11
M  V30 11 1 11 12
M  V30 12 3 12 13
M  V30 13 1 13 14
M  V30 14 1 14 15
M  V30 15 1 15 16
M  V30 16 2 16 17
M  V30 17 1 16 18
M  V30 18 2 18 19
M  V30 19 1 19 20
M  V30 20 2 20 21
M  V30 21 1 21 22
M  V30 22 1 22 23
M  V30 23 1 23 24
M  V30 24 2 24 25
M  V30 25 1 25 26
M  V30 26 2 26 27
M  V30 27 1 27 28
M  V30 28 1 27 29
M  V30 29 1 29 30
M  V30 30 2 29 31
M  V30 31 1 22 32
M  V30 32 2 32 33
M  V30 33 2 11 34
M  V30 34 1 34 35
M  V30 35 2 35 36
M  V30 36 1 36 5
M  V30 37 1 35 8
M  V30 38 1 32 18
M  V30 39 1 31 24
M  V30 40 1 1 37
M  V30 41 1 1 38
M  V30 42 1 1 39
M  V30 43 1 2 40
M  V30 44 1 6 41
M  V30 45 1 9 42
M  V30 46 1 10 43
M  V30 47 1 14 44
M  V30 48 1 14 45
M  V30 49 1 15 46
M  V30 50 1 19 47
M  V30 51 1 21 48
M  V30 52 1 23 49
M  V30 53 1 23 50
M  V30 54 1 25 51
M  V30 55 1 26 52
M  V30 56 1 31 53
M  V30 57 1 34 54
M  V30 END BOND
M  V30 END CTAB
M  END
>  <Dataset>  (344) 
ChEMBL_Kinases

>  <Ligand_Instance>  (344) 
nan

>  <PDB_ID>  (344) 
nan

>  <Standardized_SMILES>  (344) 
CNC(=O)c1cnc2ccc(C#CCNC(=O)c3cncn(Cc4ccc(F)c(F)c4)c3=O)cc2n1

>  <Name>  (344) 
nan

>  <Pocket>  (344) 
nan

>  <ATP_Site>  (344) 
nan

>  <Peripheral>  (344) 
nan

>  <Num_H_Atoms_ProtBoundConf>  (344) 
nan

>  <Num_Resolved_Atoms>  (344) 
nan

>  <Num_Not_Resolved_Atoms>  (344) 
nan

$$$$
CHEMBL4793766
     RDKit          3D

  0  0  0  0  0  0  0  0  0  0999 V3000
M  V30 BEGIN CTAB
M  V30 COUNTS 55 62 0 0 0
M  V30 BEGIN ATOM
M  V30 1 C 4.830791 0.205778 1.625885 0
M  V30 2 O 3.637460 0.044288 2.310343 0
M  V30 3 C 2.564192 -0.221547 1.486281 0 CFG=1
M  V30 4 C 2.248303 -1.682015 1.697318 0
M  V30 5 O 2.683935 -2.589527 0.979037 0
M  V30 6 C 1.366790 -2.076057 2.824686 0
M  V30 7 C 0.234134 -1.111545 2.854787 0 CFG=1
M  V30 8 O 0.478443 0.175399 2.648087 0
M  V30 9 C 1.353924 0.644406 1.698282 0 CFG=1
M  V30 10 C 1.872733 2.005069 2.068841 0
M  V30 11 N 0.608265 0.591998 0.453775 0
M  V30 12 C 0.771733 1.334599 -0.653935 0
M  V30 13 C 1.673639 2.317398 -1.001834 0
M  V30 14 C 1.736476 2.997397 -2.189424 0
M  V30 15 C 0.802236 2.676117 -3.157248 0
M  V30 16 C -0.131402 1.701343 -2.881687 0
M  V30 17 C -0.125080 1.066385 -1.662660 0
M  V30 18 C -0.938033 0.066111 -1.179526 0
M  V30 19 C -2.003957 -0.647443 -1.682422 0
M  V30 20 C -2.611727 -1.625906 -0.931955 0
M  V30 21 C -2.157885 -1.891211 0.312992 0
M  V30 22 C -2.566826 -2.794539 1.220028 0
M  V30 23 C -3.498565 -3.765915 1.388770 0
M  V30 24 C -3.664015 -4.558583 2.500936 0
M  V30 25 C -2.791253 -4.355682 3.576617 0
M  V30 26 C -1.821872 -3.388308 3.476687 0
M  V30 27 C -1.747681 -2.651106 2.311754 0
M  V30 28 N -0.862596 -1.673046 2.056001 0
M  V30 29 C -1.109558 -1.183971 0.800229 0
M  V30 30 C -0.461198 -0.183090 0.082877 0
M  V30 31 C -3.667224 -2.149255 -1.759280 0
M  V30 32 O -4.528192 -3.026604 -1.617887 0
M  V30 33 N -3.692135 -1.483103 -3.008118 0
M  V30 34 C -2.626319 -0.488070 -3.021665 0
M  V30 35 H 5.096987 -0.733627 1.052540 0
M  V30 36 H 4.738125 0.964307 0.822051 0
M  V30 37 H 5.651598 0.558996 2.274555 0
M  V30 38 H 2.984132 -0.184717 0.455692 0
M  V30 39 H 1.920352 -2.143369 3.786273 0
M  V30 40 H 0.940341 -3.102358 2.673092 0
M  V30 41 H -0.175450 -1.185076 3.916904 0
M  V30 42 H 2.943933 2.090722 1.858330 0
M  V30 43 H 1.369490 2.873510 1.691214 0
M  V30 44 H 1.711811 2.060043 3.199072 0
M  V30 45 H 2.435148 2.589534 -0.293634 0
M  V30 46 H 2.471697 3.756546 -2.390500 0
M  V30 47 H 0.815667 3.185576 -4.102925 0
M  V30 48 H -0.883379 1.417656 -3.614115 0
M  V30 49 H -4.200034 -3.984008 0.621114 0
M  V30 50 H -4.421942 -5.328284 2.602663 0
M  V30 51 H -2.887910 -4.957985 4.468988 0
M  V30 52 H -1.138770 -3.211308 4.286330 0
M  V30 53 H -4.277573 -1.553589 -3.863625 0
M  V30 54 H -1.908804 -0.813823 -3.782630 0
M  V30 55 H -3.097873 0.480551 -3.180712 0
M  V30 END ATOM
M  V30 BEGIN BOND
M  V30 1 1 1 2
M  V30 2 1 2 3
M  V30 3 1 3 4
M  V30 4 2 4 5
M  V30 5 1 4 6
M  V30 6 1 6 7
M  V30 7 1 7 8
M  V30 8 1 8 9
M  V30 9 1 9 10 CFG=1
M  V30 10 1 9 11
M  V30 11 1 11 12
M  V30 12 2 12 13
M  V30 13 1 13 14
M  V30 14 2 14 15
M  V30 15 1 15 16
M  V30 16 2 16 17
M  V30 17 1 17 18
M  V30 18 2 18 19
M  V30 19 1 19 20
M  V30 20 2 20 21
M  V30 21 1 21 22
M  V30 22 2 22 23
M  V30 23 1 23 24
M  V30 24 2 24 25
M  V30 25 1 25 26
M  V30 26 2 26 27
M  V30 27 1 27 28
M  V30 28 1 28 29
M  V30 29 2 29 30
M  V30 30 1 20 31
M  V30 31 2 31 32
M  V30 32 1 31 33
M  V30 33 1 33 34
M  V30 34 1 9 3
M  V30 35 1 30 11
M  V30 36 1 28 7
M  V30 37 1 17 12
M  V30 38 1 30 18
M  V30 39 1 34 19
M  V30 40 1 29 21
M  V30 41 1 27 22
M  V30 42 1 1 35
M  V30 43 1 1 36
M  V30 44 1 1 37
M  V30 45 1 3 38 CFG=3
M  V30 46 1 6 39
M  V30 47 1 6 40
M  V30 48 1 7 41 CFG=1
M  V30 49 1 10 42
M  V30 50 1 10 43
M  V30 51 1 10 44
M  V30 52 1 13 45
M  V30 53 1 14 46
M  V30 54 1 15 47
M  V30 55 1 16 48
M  V30 56 1 23 49
M  V30 57 1 24 50
M  V30 58 1 25 51
M  V30 59 1 26 52
M  V30 60 1 33 53
M  V30 61 1 34 54
M  V30 62 1 34 55
M  V30 END BOND
M  V30 END CTAB
M  END
>  <Dataset>  (345) 
ChEMBL_Kinases

>  <Ligand_Instance>  (345) 
nan

>  <PDB_ID>  (345) 
nan

>  <Standardized_SMILES>  (345) 
CO[C@H]1C(=O)C[C@H]2O[C@]1(C)n1c3ccccc3c3c4c(c5c6ccccc6n2c5c31)C(=O)NC4

>  <Name>  (345) 
nan

>  <Pocket>  (345) 
nan

>  <ATP_Site>  (345) 
nan

>  <Peripheral>  (345) 
nan

>  <Num_H_Atoms_ProtBoundConf>  (345) 
nan

>  <Num_Resolved_Atoms>  (345) 
nan

>  <Num_Not_Resolved_Atoms>  (345) 
nan

$$$$
CHEMBL411491
     RDKit          3D

  0  0  0  0  0  0  0  0  0  0999 V3000
M  V30 BEGIN CTAB
M  V30 COUNTS 34 36 0 0 0
M  V30 BEGIN ATOM
M  V30 1 N 0.672199 -4.798348 2.934659 0
M  V30 2 S 2.183518 -4.526673 2.111030 0
M  V30 3 O 2.506697 -5.717088 1.290493 0
M  V30 4 O 3.232222 -4.316023 3.174188 0
M  V30 5 C 2.091287 -3.050304 1.172063 0
M  V30 6 C 1.643557 -3.189029 -0.114056 0
M  V30 7 C 1.580463 -2.002645 -0.830022 0
M  V30 8 C 1.914101 -0.744634 -0.383228 0
M  V30 9 N 1.859511 0.475963 -1.144348 0
M  V30 10 N 0.477417 0.551381 -0.988092 0
M  V30 11 C -0.166026 1.439362 -0.324802 0
M  V30 12 C 0.356237 2.554378 0.408577 0
M  V30 13 O 1.584191 2.791429 0.459852 0
M  V30 14 N -0.812912 3.162463 0.943908 0
M  V30 15 C -1.982611 2.452178 0.555294 0
M  V30 16 C -3.332342 2.661234 0.838205 0
M  V30 17 C -4.221909 1.756279 0.295678 0
M  V30 18 C -3.921928 0.670774 -0.494080 0
M  V30 19 Br -5.238043 -0.519335 -1.188902 0
M  V30 20 C -2.563474 0.474263 -0.769662 0
M  V30 21 C -1.643692 1.372830 -0.233759 0
M  V30 22 C 2.353704 -0.716187 0.926807 0
M  V30 23 C 2.466773 -1.835465 1.761938 0
M  V30 24 H 0.452892 -4.002699 3.582415 0
M  V30 25 H -0.140153 -4.838684 2.269998 0
M  V30 26 H 1.346084 -4.110408 -0.584915 0
M  V30 27 H 1.224944 -2.061673 -1.867703 0
M  V30 28 H 2.531233 1.082067 -1.622593 0
M  V30 29 H -0.736837 4.034927 1.546480 0
M  V30 30 H -3.643897 3.492812 1.449951 0
M  V30 31 H -5.306386 1.860390 0.478626 0
M  V30 32 H -2.241252 -0.362981 -1.390329 0
M  V30 33 H 2.657210 0.211185 1.412179 0
M  V30 34 H 2.815618 -1.795224 2.782393 0
M  V30 END ATOM
M  V30 BEGIN BOND
M  V30 1 1 1 2
M  V30 2 2 2 3
M  V30 3 2 2 4
M  V30 4 1 2 5
M  V30 5 2 5 6
M  V30 6 1 6 7
M  V30 7 2 7 8
M  V30 8 1 8 9
M  V30 9 1 9 10
M  V30 10 2 10 11
M  V30 11 1 11 12
M  V30 12 2 12 13
M  V30 13 1 12 14
M  V30 14 1 14 15
M  V30 15 2 15 16
M  V30 16 1 16 17
M  V30 17 2 17 18
M  V30 18 1 18 19
M  V30 19 1 18 20
M  V30 20 2 20 21
M  V30 21 1 8 22
M  V30 22 2 22 23
M  V30 23 1 23 5
M  V30 24 1 21 11
M  V30 25 1 21 15
M  V30 26 1 1 24
M  V30 27 1 1 25
M  V30 28 1 6 26
M  V30 29 1 7 27
M  V30 30 1 9 28
M  V30 31 1 14 29
M  V30 32 1 16 30
M  V30 33 1 17 31
M  V30 34 1 20 32
M  V30 35 1 22 33
M  V30 36 1 23 34
M  V30 END BOND
M  V30 END CTAB
M  END
>  <Dataset>  (346) 
ChEMBL_Kinases

>  <Ligand_Instance>  (346) 
nan

>  <PDB_ID>  (346) 
nan

>  <Standardized_SMILES>  (346) 
NS(=O)(=O)c1ccc(N/N=C2\C(=O)Nc3ccc(Br)cc32)cc1

>  <Name>  (346) 
nan

>  <Pocket>  (346) 
nan

>  <ATP_Site>  (346) 
nan

>  <Peripheral>  (346) 
nan

>  <Num_H_Atoms_ProtBoundConf>  (346) 
nan

>  <Num_Resolved_Atoms>  (346) 
nan

>  <Num_Not_Resolved_Atoms>  (346) 
nan

$$$$
CHEMBL4126756
     RDKit          3D

  0  0  0  0  0  0  0  0  0  0999 V3000
M  V30 BEGIN CTAB
M  V30 COUNTS 60 64 0 0 0
M  V30 BEGIN ATOM
M  V30 1 C 3.937509 1.443792 4.085994 0
M  V30 2 N 3.779130 0.550625 2.928038 0
M  V30 3 C 3.661825 -0.802277 3.493635 0
M  V30 4 C 3.701819 0.573492 1.510767 0
M  V30 5 C 4.810456 -0.093875 0.976889 0
M  V30 6 C 4.973633 -0.218997 -0.406879 0
M  V30 7 C 3.985259 0.350489 -1.165446 0
M  V30 8 C 2.882567 1.013291 -0.684733 0
M  V30 9 C 2.756838 1.115987 0.677119 0
M  V30 10 C 1.617573 1.812977 1.241562 0
M  V30 11 C 1.449421 2.838986 2.142544 0
M  V30 12 N 0.237398 3.277792 2.504859 0
M  V30 13 C -0.916103 2.772309 2.035276 0
M  V30 14 N -2.211755 3.050825 2.252451 0
M  V30 15 C -2.992303 2.233585 1.514280 0
M  V30 16 C -2.123999 1.429936 0.824524 0
M  V30 17 C -2.575809 0.391879 -0.093252 0
M  V30 18 C -3.551398 0.759800 -0.995949 0
M  V30 19 C -4.025335 -0.177856 -1.889683 0
M  V30 20 C -3.489704 -1.444419 -1.828175 0
M  V30 21 C -4.073847 -2.337838 -2.819125 0
M  V30 22 N -4.019417 -3.669935 -3.296368 0
M  V30 23 O -4.961464 -1.989875 -3.638260 0
M  V30 24 C -2.519206 -1.881112 -0.959098 0
M  V30 25 C -2.044291 -3.250232 -1.007331 0
M  V30 26 C -2.750973 -4.261302 -0.182635 0
M  V30 27 C -1.795174 -5.449292 -0.289233 0
M  V30 28 C -0.404638 -4.845927 -0.390293 0
M  V30 29 C -0.604889 -3.333827 -0.488999 0
M  V30 30 C -2.091821 -0.895924 -0.095944 0
M  V30 31 C -0.815379 1.741058 1.127581 0
M  V30 32 C 0.434081 1.258671 0.727783 0
M  V30 33 H 4.267669 2.462526 3.751079 0
M  V30 34 H 4.805744 1.085547 4.708303 0
M  V30 35 H 2.988403 1.478797 4.643124 0
M  V30 36 H 3.617152 -1.577371 2.721799 0
M  V30 37 H 4.598737 -0.998829 4.091297 0
M  V30 38 H 2.780049 -0.811978 4.159841 0
M  V30 39 H 5.631940 -0.568721 1.535465 0
M  V30 40 H 5.807035 -0.721760 -0.861984 0
M  V30 41 H 4.062495 0.282437 -2.245781 0
M  V30 42 H 2.118617 1.452567 -1.310448 0
M  V30 43 H 2.407649 3.206284 2.469089 0
M  V30 44 H -2.541342 3.802857 2.908613 0
M  V30 45 H -4.077794 2.226160 1.483781 0
M  V30 46 H -3.939669 1.770710 -1.002738 0
M  V30 47 H -4.787792 0.149584 -2.578888 0
M  V30 48 H -4.262862 -4.610709 -2.917785 0
M  V30 49 H -4.264163 -4.617381 -2.916181 0
M  V30 50 H -2.011175 -3.663479 -2.055207 0
M  V30 51 H -2.783893 -4.025128 0.897965 0
M  V30 52 H -3.721191 -4.615128 -0.579815 0
M  V30 53 H -1.848744 -6.116578 0.582962 0
M  V30 54 H -1.990940 -6.055707 -1.208070 0
M  V30 55 H 0.118539 -5.256688 -1.274019 0
M  V30 56 H 0.170280 -5.106913 0.524114 0
M  V30 57 H 0.047209 -2.867702 -1.244185 0
M  V30 58 H -0.505500 -2.936986 0.528717 0
M  V30 59 H -1.334494 -1.120491 0.636123 0
M  V30 60 H 0.344714 0.446312 0.005799 0
M  V30 END ATOM
M  V30 BEGIN BOND
M  V30 1 1 1 2
M  V30 2 1 2 3
M  V30 3 1 2 4
M  V30 4 2 4 5
M  V30 5 1 5 6
M  V30 6 2 6 7
M  V30 7 1 7 8
M  V30 8 2 8 9
M  V30 9 1 9 10
M  V30 10 2 10 11
M  V30 11 1 11 12
M  V30 12 2 12 13
M  V30 13 1 13 14
M  V30 14 1 14 15
M  V30 15 2 15 16
M  V30 16 1 16 17
M  V30 17 2 17 18
M  V30 18 1 18 19
M  V30 19 2 19 20
M  V30 20 1 20 21
M  V30 21 1 21 22
M  V30 22 2 21 23
M  V30 23 1 20 24
M  V30 24 1 24 25
M  V30 25 1 25 26
M  V30 26 1 26 27
M  V30 27 1 27 28
M  V30 28 1 28 29
M  V30 29 2 24 30
M  V30 30 1 16 31
M  V30 31 2 31 32
M  V30 32 1 9 4
M  V30 33 1 32 10
M  V30 34 1 31 13
M  V30 35 1 30 17
M  V30 36 1 29 25
M  V30 37 1 1 33
M  V30 38 1 1 34
M  V30 39 1 1 35
M  V30 40 1 3 36
M  V30 41 1 3 37
M  V30 42 1 3 38
M  V30 43 1 5 39
M  V30 44 1 6 40
M  V30 45 1 7 41
M  V30 46 1 8 42
M  V30 47 1 11 43
M  V30 48 1 14 44
M  V30 49 1 15 45
M  V30 50 1 18 46
M  V30 51 1 19 47
M  V30 52 1 22 48
M  V30 53 1 22 49
M  V30 54 1 25 50
M  V30 55 1 26 51
M  V30 56 1 26 52
M  V30 57 1 27 53
M  V30 58 1 27 54
M  V30 59 1 28 55
M  V30 60 1 28 56
M  V30 61 1 29 57
M  V30 62 1 29 58
M  V30 63 1 30 59
M  V30 64 1 32 60
M  V30 END BOND
M  V30 END CTAB
M  END
>  <Dataset>  (347) 
ChEMBL_Kinases

>  <Ligand_Instance>  (347) 
nan

>  <PDB_ID>  (347) 
nan

>  <Standardized_SMILES>  (347) 
CN(C)c1ccccc1-c1cnc2[nH]cc(-c3ccc(C(N)=O)c(C4CCCC4)c3)c2c1

>  <Name>  (347) 
nan

>  <Pocket>  (347) 
nan

>  <ATP_Site>  (347) 
nan

>  <Peripheral>  (347) 
nan

>  <Num_H_Atoms_ProtBoundConf>  (347) 
nan

>  <Num_Resolved_Atoms>  (347) 
nan

>  <Num_Not_Resolved_Atoms>  (347) 
nan

$$$$
CHEMBL4793212
     RDKit          3D

  0  0  0  0  0  0  0  0  0  0999 V3000
M  V30 BEGIN CTAB
M  V30 COUNTS 58 61 0 0 0
M  V30 BEGIN ATOM
M  V30 1 C 2.956377 -1.151558 3.278129 0
M  V30 2 O 3.168108 0.031999 2.551985 0
M  V30 3 C 4.374856 0.657126 2.395968 0
M  V30 4 C 5.497468 0.113564 2.982915 0
M  V30 5 C 6.721279 0.719538 2.842911 0
M  V30 6 F 7.880151 0.236527 3.397990 0
M  V30 7 C 6.852176 1.884370 2.112171 0
M  V30 8 C 5.711086 2.385530 1.548967 0
M  V30 9 C 4.462037 1.813737 1.661498 0
M  V30 10 C 3.243724 2.340281 1.065752 0
M  V30 11 C 3.196823 3.490715 0.307467 0
M  V30 12 C 2.052240 4.004740 -0.264836 0
M  V30 13 N 0.902318 3.350189 -0.077902 0
M  V30 14 C 0.925001 2.214857 0.665523 0
M  V30 15 N -0.234144 1.434975 0.932224 0
M  V30 16 C -0.621499 0.378412 0.061964 0
M  V30 17 C 0.116836 0.081766 -1.064611 0
M  V30 18 C -0.293214 -0.950508 -1.882301 0
M  V30 19 C -1.425987 -1.678095 -1.579890 0
M  V30 20 C -2.191744 -1.402760 -0.449966 0
M  V30 21 C -1.752964 -0.350720 0.361253 0
M  V30 22 N -3.369964 -2.168762 -0.138036 0
M  V30 23 C -3.767880 -2.249648 1.214796 0
M  V30 24 C -5.177519 -1.665940 1.391362 0
M  V30 25 C -3.795720 -3.736702 1.608166 0
M  V30 26 C -3.997102 -2.763090 -1.271665 0 CFG=2
M  V30 27 C -5.096201 -3.722746 -1.019190 0
M  V30 28 C -2.986411 -3.472396 -2.140740 0
M  V30 29 O -3.045619 -4.654101 -2.625140 0
M  V30 30 N -1.798177 -2.731260 -2.473251 0
M  V30 31 C -0.976580 -2.989498 -3.638190 0
M  V30 32 N 2.047770 1.725514 1.217226 0
M  V30 33 H 1.841384 -1.316062 3.326410 0
M  V30 34 H 3.350306 -2.035416 2.722366 0
M  V30 35 H 3.372231 -1.115301 4.309542 0
M  V30 36 H 5.487172 -0.788550 3.567793 0
M  V30 37 H 7.797332 2.383970 1.983555 0
M  V30 38 H 5.800717 3.297092 0.974442 0
M  V30 39 H 4.105023 4.049278 0.132696 0
M  V30 40 H 2.083771 4.925064 -0.857074 0
M  V30 41 H -0.771985 1.666450 1.771105 0
M  V30 42 H 1.009207 0.642225 -1.318057 0
M  V30 43 H 0.283726 -1.175059 -2.753890 0
M  V30 44 H -2.327329 -0.118540 1.235070 0
M  V30 45 H -3.164201 -1.785777 1.960185 0
M  V30 46 H -5.844454 -2.359014 1.944703 0
M  V30 47 H -5.153101 -0.745967 2.047241 0
M  V30 48 H -5.601050 -1.296544 0.441231 0
M  V30 49 H -3.523922 -4.399482 0.775082 0
M  V30 50 H -3.011980 -3.963867 2.390738 0
M  V30 51 H -4.748806 -4.001829 2.120545 0
M  V30 52 H -4.362792 -1.923588 -1.935619 0
M  V30 53 H -5.888578 -3.558559 -1.811000 0
M  V30 54 H -5.633996 -3.636247 -0.072618 0
M  V30 55 H -4.766419 -4.776809 -1.230638 0
M  V30 56 H -0.975157 -2.127980 -4.324863 0
M  V30 57 H -1.273706 -3.909743 -4.152514 0
M  V30 58 H 0.083688 -3.143653 -3.331713 0
M  V30 END ATOM
M  V30 BEGIN BOND
M  V30 1 1 1 2
M  V30 2 1 2 3
M  V30 3 2 3 4
M  V30 4 1 4 5
M  V30 5 1 5 6
M  V30 6 2 5 7
M  V30 7 1 7 8
M  V30 8 2 8 9
M  V30 9 1 9 10
M  V30 10 2 10 11
M  V30 11 1 11 12
M  V30 12 2 12 13
M  V30 13 1 13 14
M  V30 14 1 14 15
M  V30 15 1 15 16
M  V30 16 2 16 17
M  V30 17 1 17 18
M  V30 18 2 18 19
M  V30 19 1 19 20
M  V30 20 2 20 21
M  V30 21 1 20 22
M  V30 22 1 22 23
M  V30 23 1 23 24
M  V30 24 1 23 25
M  V30 25 1 22 26
M  V30 26 1 26 27
M  V30 27 1 26 28
M  V30 28 2 28 29
M  V30 29 1 28 30
M  V30 30 1 30 31
M  V30 31 2 14 32
M  V30 32 1 9 3
M  V30 33 1 32 10
M  V30 34 1 21 16
M  V30 35 1 30 19
M  V30 36 1 1 33
M  V30 37 1 1 34
M  V30 38 1 1 35
M  V30 39 1 4 36
M  V30 40 1 7 37
M  V30 41 1 8 38
M  V30 42 1 11 39
M  V30 43 1 12 40
M  V30 44 1 15 41
M  V30 45 1 17 42
M  V30 46 1 18 43
M  V30 47 1 21 44
M  V30 48 1 23 45
M  V30 49 1 24 46
M  V30 50 1 24 47
M  V30 51 1 24 48
M  V30 52 1 25 49
M  V30 53 1 25 50
M  V30 54 1 25 51
M  V30 55 1 26 52 CFG=3
M  V30 56 1 27 53
M  V30 57 1 27 54
M  V30 58 1 27 55
M  V30 59 1 31 56
M  V30 60 1 31 57
M  V30 61 1 31 58
M  V30 END BOND
M  V30 END CTAB
M  END
>  <Dataset>  (348) 
ChEMBL_Kinases

>  <Ligand_Instance>  (348) 
nan

>  <PDB_ID>  (348) 
nan

>  <Standardized_SMILES>  (348) 
COc1cc(F)ccc1-c1ccnc(Nc2ccc3c(c2)N(C(C)C)[C@H](C)C(=O)N3C)n1

>  <Name>  (348) 
nan

>  <Pocket>  (348) 
nan

>  <ATP_Site>  (348) 
nan

>  <Peripheral>  (348) 
nan

>  <Num_H_Atoms_ProtBoundConf>  (348) 
nan

>  <Num_Resolved_Atoms>  (348) 
nan

>  <Num_Not_Resolved_Atoms>  (348) 
nan

$$$$
CHEMBL4793221
     RDKit          3D

  0  0  0  0  0  0  0  0  0  0999 V3000
M  V30 BEGIN CTAB
M  V30 COUNTS 60 64 0 0 0
M  V30 BEGIN ATOM
M  V30 1 C 3.087546 -1.455667 6.306470 0
M  V30 2 O 3.024516 -2.017830 5.011747 0
M  V30 3 C 3.333487 -1.345201 3.850560 0
M  V30 4 C 3.742962 -0.032273 3.831295 0
M  V30 5 C 4.059680 0.665080 2.667967 0
M  V30 6 C 3.959504 0.004793 1.449077 0
M  V30 7 S 4.334879 0.794336 -0.060755 0
M  V30 8 O 4.753669 -0.280189 -1.022522 0
M  V30 9 O 5.441319 1.773535 0.084117 0
M  V30 10 N 2.904517 1.539720 -0.681041 0
M  V30 11 C 2.401845 2.552856 0.226832 0
M  V30 12 C 1.160974 3.167522 -0.360953 0
M  V30 13 C 0.067026 2.146698 -0.580518 0
M  V30 14 N -0.278656 1.548317 0.694545 0
M  V30 15 C -1.280916 0.544375 0.798489 0
M  V30 16 N -1.633501 -0.030400 1.965672 0
M  V30 17 C -2.582301 -0.980381 2.056452 0
M  V30 18 C -3.223730 -1.383572 0.895811 0
M  V30 19 C -2.879855 -0.807916 -0.320057 0
M  V30 20 C -3.513337 -1.187188 -1.577338 0
M  V30 21 C -3.329760 -2.494434 -1.960558 0
M  V30 22 C -2.680536 -3.718510 -1.520223 0
M  V30 23 C -1.294635 -3.557912 -1.445187 0
M  V30 24 C -0.505894 -4.638068 -1.036703 0
M  V30 25 C -1.178766 -5.816472 -0.729543 0
M  V30 26 C -2.547323 -6.009489 -0.792872 0
M  V30 27 F -3.131461 -7.168732 -0.483565 0
M  V30 28 C -3.275182 -4.915894 -1.200073 0
M  V30 29 N -3.978119 -2.652287 -3.127722 0
M  V30 30 C -4.553065 -1.448842 -3.453430 0
M  V30 31 S -5.584960 -0.446932 -4.649533 0
M  V30 32 C -5.443214 1.119507 -3.585829 0
M  V30 33 C -4.676947 0.702959 -2.524693 0
M  V30 34 N -4.261861 -0.555197 -2.494879 0
M  V30 35 N -1.907560 0.148349 -0.324413 0
M  V30 36 C 3.544851 -1.323755 1.472437 0
M  V30 37 C 3.233199 -1.998524 2.658187 0
M  V30 38 H 2.802203 -0.375578 6.251537 0
M  V30 39 H 4.087134 -1.593055 6.773205 0
M  V30 40 H 2.277605 -1.958713 6.906091 0
M  V30 41 H 3.838954 0.529443 4.743925 0
M  V30 42 H 4.377561 1.686813 2.662439 0
M  V30 43 H 2.167745 0.856584 -0.876879 0
M  V30 44 H 2.177856 2.000375 1.178778 0
M  V30 45 H 3.175024 3.293733 0.466811 0
M  V30 46 H 0.806627 3.954377 0.314178 0
M  V30 47 H 1.421966 3.639832 -1.322796 0
M  V30 48 H -0.839391 2.754925 -0.870226 0
M  V30 49 H 0.277540 1.417929 -1.360590 0
M  V30 50 H 0.189608 1.825463 1.590670 0
M  V30 51 H -2.882816 -1.455080 2.973597 0
M  V30 52 H -3.992083 -2.138612 0.897468 0
M  V30 53 H -0.734925 -2.661523 -1.674422 0
M  V30 54 H 0.571806 -4.606416 -0.949214 0
M  V30 55 H -0.578345 -6.673422 -0.407654 0
M  V30 56 H -4.353016 -4.936615 -1.291228 0
M  V30 57 H -5.965102 1.955603 -4.016806 0
M  V30 58 H -4.564468 1.557451 -1.885753 0
M  V30 59 H 3.467309 -1.833987 0.530139 0
M  V30 60 H 2.919489 -3.026871 2.594347 0
M  V30 END ATOM
M  V30 BEGIN BOND
M  V30 1 1 1 2
M  V30 2 1 2 3
M  V30 3 2 3 4
M  V30 4 1 4 5
M  V30 5 2 5 6
M  V30 6 1 6 7
M  V30 7 2 7 8
M  V30 8 2 7 9
M  V30 9 1 7 10
M  V30 10 1 10 11
M  V30 11 1 11 12
M  V30 12 1 12 13
M  V30 13 1 13 14
M  V30 14 1 14 15
M  V30 15 2 15 16
M  V30 16 1 16 17
M  V30 17 2 17 18
M  V30 18 1 18 19
M  V30 19 1 19 20
M  V30 20 2 20 21
M  V30 21 1 21 22
M  V30 22 2 22 23
M  V30 23 1 23 24
M  V30 24 2 24 25
M  V30 25 1 25 26
M  V30 26 1 26 27
M  V30 27 2 26 28
M  V30 28 1 21 29
M  V30 29 2 29 30
M  V30 30 1 30 31
M  V30 31 1 31 32
M  V30 32 2 32 33
M  V30 33 1 33 34
M  V30 34 2 19 35
M  V30 35 1 6 36
M  V30 36 2 36 37
M  V30 37 1 37 3
M  V30 38 1 35 15
M  V30 39 1 34 20
M  V30 40 1 28 22
M  V30 41 1 34 30
M  V30 42 1 1 38
M  V30 43 1 1 39
M  V30 44 1 1 40
M  V30 45 1 4 41
M  V30 46 1 5 42
M  V30 47 1 10 43
M  V30 48 1 11 44
M  V30 49 1 11 45
M  V30 50 1 12 46
M  V30 51 1 12 47
M  V30 52 1 13 48
M  V30 53 1 13 49
M  V30 54 1 14 50
M  V30 55 1 17 51
M  V30 56 1 18 52
M  V30 57 1 23 53
M  V30 58 1 24 54
M  V30 59 1 25 55
M  V30 60 1 28 56
M  V30 61 1 32 57
M  V30 62 1 33 58
M  V30 63 1 36 59
M  V30 64 1 37 60
M  V30 END BOND
M  V30 END CTAB
M  END
>  <Dataset>  (349) 
ChEMBL_Kinases

>  <Ligand_Instance>  (349) 
nan

>  <PDB_ID>  (349) 
nan

>  <Standardized_SMILES>  (349) 
COc1ccc(S(=O)(=O)NCCCNc2nccc(-c3c(-c4cccc(F)c4)nc4sccn34)n2)cc1

>  <Name>  (349) 
nan

>  <Pocket>  (349) 
nan

>  <ATP_Site>  (349) 
nan

>  <Peripheral>  (349) 
nan

>  <Num_H_Atoms_ProtBoundConf>  (349) 
nan

>  <Num_Resolved_Atoms>  (349) 
nan

>  <Num_Not_Resolved_Atoms>  (349) 
nan

$$$$
CHEMBL4793252
     RDKit          3D

  0  0  0  0  0  0  0  0  0  0999 V3000
M  V30 BEGIN CTAB
M  V30 COUNTS 81 85 0 0 0
M  V30 BEGIN ATOM
M  V30 1 N 4.541011 -0.198213 5.165998 0
M  V30 2 C 4.906336 0.663466 4.109225 0
M  V30 3 C 5.165022 0.319283 2.794194 0
M  V30 4 C 5.102836 -1.013908 2.215948 0
M  V30 5 O 4.812759 -2.036316 2.879917 0
M  V30 6 N 5.383454 -1.142121 0.847759 0
M  V30 7 C 5.392419 -2.345733 0.000996 0
M  V30 8 C 3.965328 -2.734120 -0.289306 0
M  V30 9 C 3.225752 -3.675700 0.396865 0
M  V30 10 C 1.899276 -3.873308 0.021987 0
M  V30 11 C 1.320953 -3.150021 -1.011907 0
M  V30 12 C -0.072596 -3.467427 -1.289342 0
M  V30 13 O -0.564918 -4.494494 -0.798027 0
M  V30 14 N -0.862305 -2.617709 -2.103363 0
M  V30 15 C -2.216496 -2.590629 -2.584107 0 CFG=1
M  V30 16 C -3.070484 -1.636845 -1.723314 0
M  V30 17 C -2.996199 -2.191335 -0.328911 0
M  V30 18 C -3.743429 -1.435040 0.709143 0
M  V30 19 C -5.206559 -1.345059 0.438609 0
M  V30 20 C -5.939838 -0.441181 1.369600 0
M  V30 21 C -5.274605 0.917787 1.347146 0
M  V30 22 C -3.894987 0.734177 1.944772 0
M  V30 23 C -3.098656 -0.095734 0.957193 0
M  V30 24 C -2.243013 -2.197412 -3.992107 0
M  V30 25 O -1.196417 -1.945235 -4.647156 0
M  V30 26 N -3.539286 -2.119769 -4.550461 0
M  V30 27 C -3.762625 -1.738796 -5.923117 0
M  V30 28 C -3.835084 -2.450568 -7.095370 0
M  V30 29 C -4.068614 -1.779212 -8.274637 0
M  V30 30 F -4.126362 -2.588115 -9.359585 0
M  V30 31 C -4.226485 -0.411280 -8.279172 0
M  V30 32 C -4.158214 0.333963 -7.109535 0
M  V30 33 F -4.324186 1.659984 -7.257933 0
M  V30 34 C -3.920853 -0.357606 -5.910147 0
M  V30 35 C 2.103559 -2.226428 -1.661496 0
M  V30 36 C 3.419655 -2.001158 -1.322291 0
M  V30 37 C 5.475502 1.500727 2.159370 0
M  V30 38 N 5.401855 2.488375 3.061492 0
M  V30 39 N 5.058693 1.995418 4.245378 0
M  V30 40 C 4.916423 2.873293 5.353352 0
M  V30 41 C 4.010821 3.923741 5.141260 0
M  V30 42 C 3.714775 4.892016 6.073253 0
M  V30 43 C 4.330204 4.858805 7.303641 0
M  V30 44 C 5.218752 3.828231 7.512411 0
M  V30 45 C 5.521741 2.860453 6.597575 0
M  V30 46 H 5.055973 -0.617110 5.990346 0
M  V30 47 H 3.565081 -0.577503 5.258932 0
M  V30 48 H 5.631292 -0.269746 0.292032 0
M  V30 49 H 5.982777 -2.245170 -0.896333 0
M  V30 50 H 5.876783 -3.126657 0.649448 0
M  V30 51 H 3.730105 -4.206917 1.189618 0
M  V30 52 H 1.396950 -4.641175 0.622283 0
M  V30 53 H -0.351325 -1.757094 -2.470415 0
M  V30 54 H -2.661083 -3.580521 -2.354139 0
M  V30 55 H -4.074302 -1.644736 -2.150984 0
M  V30 56 H -2.685102 -0.619620 -1.724777 0
M  V30 57 H -3.360491 -3.260055 -0.301127 0
M  V30 58 H -1.931645 -2.250931 0.025106 0
M  V30 59 H -3.622730 -2.018974 1.667532 0
M  V30 60 H -5.456184 -1.018204 -0.592876 0
M  V30 61 H -5.618604 -2.392697 0.497961 0
M  V30 62 H -6.078790 -0.837738 2.392956 0
M  V30 63 H -6.956563 -0.272988 0.908386 0
M  V30 64 H -5.126994 1.195349 0.283047 0
M  V30 65 H -5.862266 1.688413 1.881055 0
M  V30 66 H -3.390395 1.694759 2.070541 0
M  V30 67 H -3.908818 0.200347 2.894449 0
M  V30 68 H -2.107208 -0.284672 1.414757 0
M  V30 69 H -2.910299 0.435253 -0.004260 0
M  V30 70 H -4.436605 -2.315737 -4.072317 0
M  V30 71 H -3.686254 -3.509061 -6.889473 0
M  V30 72 H -4.406999 0.051856 -9.248457 0
M  V30 73 H -3.897852 0.362401 -5.098664 0
M  V30 74 H 1.655729 -1.674158 -2.460235 0
M  V30 75 H 3.966848 -1.243811 -1.898690 0
M  V30 76 H 5.736602 1.641294 1.107735 0
M  V30 77 H 3.472638 4.035370 4.192303 0
M  V30 78 H 3.015534 5.685882 5.870291 0
M  V30 79 H 4.128776 5.595385 8.064835 0
M  V30 80 H 5.724369 3.768223 8.475389 0
M  V30 81 H 6.206616 2.034563 6.709120 0
M  V30 END ATOM
M  V30 BEGIN BOND
M  V30 1 1 1 2
M  V30 2 2 2 3
M  V30 3 1 3 4
M  V30 4 2 4 5
M  V30 5 1 4 6
M  V30 6 1 6 7
M  V30 7 1 7 8
M  V30 8 2 8 9
M  V30 9 1 9 10
M  V30 10 2 10 11
M  V30 11 1 11 12
M  V30 12 2 12 13
M  V30 13 1 12 14
M  V30 14 1 14 15
M  V30 15 1 15 16
M  V30 16 1 16 17
M  V30 17 1 17 18
M  V30 18 1 18 19
M  V30 19 1 19 20
M  V30 20 1 20 21
M  V30 21 1 21 22
M  V30 22 1 22 23
M  V30 23 1 15 24
M  V30 24 2 24 25
M  V30 25 1 24 26
M  V30 26 1 26 27
M  V30 27 2 27 28
M  V30 28 1 28 29
M  V30 29 1 29 30
M  V30 30 2 29 31
M  V30 31 1 31 32
M  V30 32 1 32 33
M  V30 33 2 32 34
M  V30 34 1 11 35
M  V30 35 2 35 36
M  V30 36 1 3 37
M  V30 37 2 37 38
M  V30 38 1 38 39
M  V30 39 1 39 40
M  V30 40 2 40 41
M  V30 41 1 41 42
M  V30 42 2 42 43
M  V30 43 1 43 44
M  V30 44 2 44 45
M  V30 45 1 39 2
M  V30 46 1 45 40
M  V30 47 1 36 8
M  V30 48 1 23 18
M  V30 49 1 34 27
M  V30 50 1 1 46
M  V30 51 1 1 47
M  V30 52 1 6 48
M  V30 53 1 7 49
M  V30 54 1 7 50
M  V30 55 1 9 51
M  V30 56 1 10 52
M  V30 57 1 14 53
M  V30 58 1 15 54 CFG=3
M  V30 59 1 16 55
M  V30 60 1 16 56
M  V30 61 1 17 57
M  V30 62 1 17 58
M  V30 63 1 18 59
M  V30 64 1 19 60
M  V30 65 1 19 61
M  V30 66 1 20 62
M  V30 67 1 20 63
M  V30 68 1 21 64
M  V30 69 1 21 65
M  V30 70 1 22 66
M  V30 71 1 22 67
M  V30 72 1 23 68
M  V30 73 1 23 69
M  V30 74 1 26 70
M  V30 75 1 28 71
M  V30 76 1 31 72
M  V30 77 1 34 73
M  V30 78 1 35 74
M  V30 79 1 36 75
M  V30 80 1 37 76
M  V30 81 1 41 77
M  V30 82 1 42 78
M  V30 83 1 43 79
M  V30 84 1 44 80
M  V30 85 1 45 81
M  V30 END BOND
M  V30 END CTAB
M  END
>  <Dataset>  (350) 
ChEMBL_Kinases

>  <Ligand_Instance>  (350) 
nan

>  <PDB_ID>  (350) 
nan

>  <Standardized_SMILES>  (350) 
Nc1c(C(=O)NCc2ccc(C(=O)N[C@@H](CCC3CCCCC3)C(=O)Nc3cc(F)cc(F)c3)cc2)cnn1-c1ccccc1

>  <Name>  (350) 
nan

>  <Pocket>  (350) 
nan

>  <ATP_Site>  (350) 
nan

>  <Peripheral>  (350) 
nan

>  <Num_H_Atoms_ProtBoundConf>  (350) 
nan

>  <Num_Resolved_Atoms>  (350) 
nan

>  <Num_Not_Resolved_Atoms>  (350) 
nan

$$$$
CHEMBL4126604
     RDKit          3D

  0  0  0  0  0  0  0  0  0  0999 V3000
M  V30 BEGIN CTAB
M  V30 COUNTS 28 30 0 0 0
M  V30 BEGIN ATOM
M  V30 1 O 0.345823 -3.498810 5.094479 0
M  V30 2 C 0.299546 -3.935032 3.915198 0
M  V30 3 O 0.118048 -5.307822 3.817443 0
M  V30 4 C 0.432769 -3.016788 2.789246 0
M  V30 5 C 0.605996 -1.688720 3.121752 0
M  V30 6 C 0.736083 -0.789138 2.059427 0
M  V30 7 C 0.694588 -1.200839 0.724085 0
M  V30 8 C 0.831767 -0.249704 -0.361721 0
M  V30 9 C 1.605145 -0.346330 -1.519975 0
M  V30 10 N 1.448675 0.759055 -2.272923 0
M  V30 11 C 0.590526 1.603514 -1.658042 0
M  V30 12 N 0.141735 2.814283 -2.035796 0
M  V30 13 C -0.727974 3.472867 -1.233273 0
M  V30 14 C -1.155553 2.934489 -0.054818 0
M  V30 15 C -0.667742 1.685667 0.294664 0
M  V30 16 C 0.217809 0.980241 -0.490792 0
M  V30 17 C 0.515828 -2.564732 0.469724 0
M  V30 18 C 0.380819 -3.503749 1.499234 0
M  V30 19 H -0.609223 -5.794381 4.361486 0
M  V30 20 H 0.643330 -1.331925 4.139655 0
M  V30 21 H 0.871279 0.247638 2.321248 0
M  V30 22 H 2.241777 -1.188757 -1.779766 0
M  V30 23 H 1.904781 0.974050 -3.203294 0
M  V30 24 H -1.121999 4.448788 -1.485742 0
M  V30 25 H -1.854238 3.438613 0.612559 0
M  V30 26 H -1.007898 1.263283 1.226804 0
M  V30 27 H 0.480314 -2.907874 -0.549946 0
M  V30 28 H 0.243594 -4.550873 1.301691 0
M  V30 END ATOM
M  V30 BEGIN BOND
M  V30 1 2 1 2
M  V30 2 1 2 3
M  V30 3 1 2 4
M  V30 4 2 4 5
M  V30 5 1 5 6
M  V30 6 2 6 7
M  V30 7 1 7 8
M  V30 8 2 8 9
M  V30 9 1 9 10
M  V30 10 1 10 11
M  V30 11 2 11 12
M  V30 12 1 12 13
M  V30 13 2 13 14
M  V30 14 1 14 15
M  V30 15 2 15 16
M  V30 16 1 7 17
M  V30 17 2 17 18
M  V30 18 1 18 4
M  V30 19 1 16 8
M  V30 20 1 16 11
M  V30 21 1 3 19
M  V30 22 1 5 20
M  V30 23 1 6 21
M  V30 24 1 9 22
M  V30 25 1 10 23
M  V30 26 1 13 24
M  V30 27 1 14 25
M  V30 28 1 15 26
M  V30 29 1 17 27
M  V30 30 1 18 28
M  V30 END BOND
M  V30 END CTAB
M  END
>  <Dataset>  (351) 
ChEMBL_Kinases

>  <Ligand_Instance>  (351) 
nan

>  <PDB_ID>  (351) 
nan

>  <Standardized_SMILES>  (351) 
O=C(O)c1ccc(-c2c[nH]c3ncccc23)cc1

>  <Name>  (351) 
nan

>  <Pocket>  (351) 
nan

>  <ATP_Site>  (351) 
nan

>  <Peripheral>  (351) 
nan

>  <Num_H_Atoms_ProtBoundConf>  (351) 
nan

>  <Num_Resolved_Atoms>  (351) 
nan

>  <Num_Not_Resolved_Atoms>  (351) 
nan

$$$$
CHEMBL4793356
     RDKit          3D

  0  0  0  0  0  0  0  0  0  0999 V3000
M  V30 BEGIN CTAB
M  V30 COUNTS 57 61 0 0 0
M  V30 BEGIN ATOM
M  V30 1 C 3.754485 -4.195294 2.652163 0
M  V30 2 C 2.420942 -3.699601 2.188697 0
M  V30 3 C 2.559160 -2.804766 0.949008 0 CFG=2
M  V30 4 C 3.409925 -1.674276 1.348024 0
M  V30 5 N 4.703667 -1.837943 1.744618 0
M  V30 6 N 5.208427 -0.655992 2.042626 0
M  V30 7 C 4.276689 0.301458 1.853511 0
M  V30 8 C 4.492595 1.743715 2.088336 0
M  V30 9 N 3.195367 -0.352570 1.431013 0
M  V30 10 C 1.892089 0.034386 1.053228 0
M  V30 11 C 1.582252 1.353278 1.108198 0
M  V30 12 N 0.329154 1.760430 0.751276 0
M  V30 13 C -0.584589 0.829507 0.346667 0
M  V30 14 N -1.892554 1.249624 -0.026476 0
M  V30 15 C -3.105521 1.418863 0.702817 0
M  V30 16 C -3.075693 1.133149 2.051908 0
M  V30 17 C -4.251974 1.298471 2.751708 0
M  V30 18 C -5.398571 1.730882 2.116836 0
M  V30 19 C -5.358874 2.002651 0.746651 0
M  V30 20 C -4.212475 1.855376 -0.002575 0
M  V30 21 O -4.157215 2.120954 -1.362376 0
M  V30 22 C -5.357637 2.568865 -2.003485 0
M  V30 23 N -0.215775 -0.460204 0.314152 0
M  V30 24 C 0.987493 -0.922706 0.648425 0
M  V30 25 N 1.249292 -2.311020 0.571201 0
M  V30 26 C 0.302262 -3.304765 0.133549 0
M  V30 27 C -0.174213 -3.162339 -1.239279 0
M  V30 28 C 0.614666 -3.721636 -2.238262 0
M  V30 29 C 0.321363 -3.698543 -3.583672 0
M  V30 30 C -0.839603 -3.077679 -3.991562 0
M  V30 31 F -1.157746 -3.036804 -5.307265 0
M  V30 32 C -1.677354 -2.495471 -3.037056 0
M  V30 33 C -1.313814 -2.561420 -1.713899 0
M  V30 34 H 3.610098 -5.203118 3.090970 0
M  V30 35 H 4.127177 -3.538120 3.455755 0
M  V30 36 H 4.514203 -4.212426 1.842225 0
M  V30 37 H 1.975943 -3.086126 2.998362 0
M  V30 38 H 1.686982 -4.522159 2.022687 0
M  V30 39 H 3.029640 -3.398427 0.138708 0
M  V30 40 H 5.573497 1.858637 2.419894 0
M  V30 41 H 4.464457 2.364166 1.163828 0
M  V30 42 H 3.903281 2.161365 2.932250 0
M  V30 43 H 2.180238 2.186035 1.399677 0
M  V30 44 H -1.812933 1.438419 -1.050299 0
M  V30 45 H -2.150464 0.793540 2.518586 0
M  V30 46 H -4.186953 1.061950 3.816857 0
M  V30 47 H -6.292189 1.842896 2.714411 0
M  V30 48 H -6.256658 2.341139 0.250122 0
M  V30 49 H -6.077232 1.724592 -2.071462 0
M  V30 50 H -5.076300 2.955344 -3.021524 0
M  V30 51 H -5.773240 3.418206 -1.433925 0
M  V30 52 H 0.753296 -4.309326 0.224706 0
M  V30 53 H -0.605527 -3.323447 0.792905 0
M  V30 54 H 1.542930 -4.226044 -1.987241 0
M  V30 55 H 0.974351 -4.151428 -4.317166 0
M  V30 56 H -2.600133 -1.997755 -3.320642 0
M  V30 57 H -1.968672 -2.120243 -0.977297 0
M  V30 END ATOM
M  V30 BEGIN BOND
M  V30 1 1 1 2
M  V30 2 1 2 3
M  V30 3 1 3 4
M  V30 4 2 4 5
M  V30 5 1 5 6
M  V30 6 2 6 7
M  V30 7 1 7 8
M  V30 8 1 7 9
M  V30 9 1 9 10
M  V30 10 2 10 11
M  V30 11 1 11 12
M  V30 12 2 12 13
M  V30 13 1 13 14
M  V30 14 1 14 15
M  V30 15 2 15 16
M  V30 16 1 16 17
M  V30 17 2 17 18
M  V30 18 1 18 19
M  V30 19 2 19 20
M  V30 20 1 20 21
M  V30 21 1 21 22
M  V30 22 1 13 23
M  V30 23 2 23 24
M  V30 24 1 24 25
M  V30 25 1 25 26
M  V30 26 1 26 27
M  V30 27 2 27 28
M  V30 28 1 28 29
M  V30 29 2 29 30
M  V30 30 1 30 31
M  V30 31 1 30 32
M  V30 32 2 32 33
M  V30 33 1 25 3
M  V30 34 1 33 27
M  V30 35 1 9 4
M  V30 36 1 24 10
M  V30 37 1 20 15
M  V30 38 1 1 34
M  V30 39 1 1 35
M  V30 40 1 1 36
M  V30 41 1 2 37
M  V30 42 1 2 38
M  V30 43 1 3 39 CFG=3
M  V30 44 1 8 40
M  V30 45 1 8 41
M  V30 46 1 8 42
M  V30 47 1 11 43
M  V30 48 1 14 44
M  V30 49 1 16 45
M  V30 50 1 17 46
M  V30 51 1 18 47
M  V30 52 1 19 48
M  V30 53 1 22 49
M  V30 54 1 22 50
M  V30 55 1 22 51
M  V30 56 1 26 52
M  V30 57 1 26 53
M  V30 58 1 28 54
M  V30 59 1 29 55
M  V30 60 1 32 56
M  V30 61 1 33 57
M  V30 END BOND
M  V30 END CTAB
M  END
>  <Dataset>  (352) 
ChEMBL_Kinases

>  <Ligand_Instance>  (352) 
nan

>  <PDB_ID>  (352) 
nan

>  <Standardized_SMILES>  (352) 
CC[C@@H]1c2nnc(C)n2-c2cnc(Nc3ccccc3OC)nc2N1Cc1ccc(F)cc1

>  <Name>  (352) 
nan

>  <Pocket>  (352) 
nan

>  <ATP_Site>  (352) 
nan

>  <Peripheral>  (352) 
nan

>  <Num_H_Atoms_ProtBoundConf>  (352) 
nan

>  <Num_Resolved_Atoms>  (352) 
nan

>  <Num_Not_Resolved_Atoms>  (352) 
nan

$$$$
CHEMBL4793358
     RDKit          3D

  0  0  0  0  0  0  0  0  0  0999 V3000
M  V30 BEGIN CTAB
M  V30 COUNTS 82 87 0 0 0
M  V30 BEGIN ATOM
M  V30 1 C 5.386209 -3.987445 1.606483 0
M  V30 2 C 5.384001 -3.837410 0.135374 0
M  V30 3 C 4.223041 -3.109634 -0.411352 0 CFG=2
M  V30 4 C 4.286026 -3.103606 -1.929761 0
M  V30 5 N 4.801255 -4.162222 -2.625595 0
M  V30 6 N 4.607787 -3.917873 -3.907139 0
M  V30 7 C 3.983524 -2.733143 -4.087288 0
M  V30 8 C 3.606817 -2.137957 -5.383944 0
M  V30 9 N 3.811174 -2.272033 -2.841848 0
M  V30 10 C 3.324056 -1.060863 -2.304127 0
M  V30 11 C 2.774684 -0.168811 -3.166894 0
M  V30 12 N 2.271199 1.004309 -2.672155 0
M  V30 13 C 2.331802 1.246099 -1.347587 0
M  V30 14 N 1.843725 2.391295 -0.662066 0
M  V30 15 C 0.461826 2.285607 -0.240219 0
M  V30 16 C -0.300064 1.145769 -0.534393 0
M  V30 17 C -1.615565 0.940959 -0.187786 0
M  V30 18 C -2.222687 1.949488 0.506611 0
M  V30 19 C -3.612593 1.830792 0.920172 0
M  V30 20 O -4.203322 2.705583 1.543258 0
M  V30 21 N -4.353119 0.697919 0.622889 0
M  V30 22 C -5.659552 0.292674 0.869343 0
M  V30 23 C -6.403190 0.507305 -0.466348 0
M  V30 24 C -5.993005 -0.527437 -1.459241 0
M  V30 25 N -6.279098 -1.832099 -0.903189 0
M  V30 26 C -5.133412 -2.682399 -0.905867 0
M  V30 27 C -6.937217 -1.752684 0.377906 0
M  V30 28 C -6.076715 -0.977804 1.394018 0
M  V30 29 C -1.526446 3.094751 0.825564 0
M  V30 30 C -0.184981 3.281056 0.461473 0
M  V30 31 O 0.519963 4.433223 0.781155 0
M  V30 32 C -0.198884 5.429184 1.512223 0
M  V30 33 N 2.882864 0.322357 -0.596356 0
M  V30 34 C 3.413406 -0.858102 -0.920912 0
M  V30 35 N 3.978501 -1.764032 0.071386 0
M  V30 36 C 4.188542 -1.112456 1.330078 0
M  V30 37 C 2.985274 -0.649520 2.050813 0
M  V30 38 C 2.501497 0.632419 2.177725 0
M  V30 39 C 1.356332 1.019240 2.833954 0
M  V30 40 C 0.603390 0.026721 3.435785 0
M  V30 41 C 1.031121 -1.281250 3.348929 0
M  V30 42 C 0.170495 -2.301610 4.026687 0
M  V30 43 F 0.672406 -2.603402 5.296129 0
M  V30 44 F -1.110393 -1.807278 4.224102 0
M  V30 45 F 0.110091 -3.469123 3.311263 0
M  V30 46 C 2.187151 -1.590589 2.673907 0
M  V30 47 H 6.200792 -3.451139 2.119316 0
M  V30 48 H 4.430859 -3.788045 2.125137 0
M  V30 49 H 5.553154 -5.107891 1.872454 0
M  V30 50 H 5.336869 -4.880435 -0.315374 0
M  V30 51 H 6.360420 -3.428394 -0.253856 0
M  V30 52 H 3.248464 -3.662288 -0.222896 0
M  V30 53 H 3.973308 -2.873165 -6.171673 0
M  V30 54 H 4.168665 -1.213674 -5.644584 0
M  V30 55 H 2.522650 -2.085609 -5.575034 0
M  V30 56 H 2.656346 -0.222319 -4.207787 0
M  V30 57 H 2.308807 3.280556 -0.416978 0
M  V30 58 H 0.176328 0.332719 -1.089968 0
M  V30 59 H -2.100289 0.017601 -0.468345 0
M  V30 60 H -4.017252 -0.142506 0.105142 0
M  V30 61 H -6.114202 1.137268 1.478992 0
M  V30 62 H -6.045701 1.502926 -0.861601 0
M  V30 63 H -7.487387 0.553366 -0.313574 0
M  V30 64 H -6.540710 -0.363478 -2.412066 0
M  V30 65 H -4.931426 -0.449351 -1.677538 0
M  V30 66 H -4.665411 -2.688982 0.109894 0
M  V30 67 H -5.345517 -3.688456 -1.296923 0
M  V30 68 H -4.367440 -2.240303 -1.573245 0
M  V30 69 H -7.957230 -1.325805 0.306385 0
M  V30 70 H -7.087470 -2.792763 0.736604 0
M  V30 71 H -6.776708 -0.869524 2.255050 0
M  V30 72 H -5.359584 -1.716285 1.749442 0
M  V30 73 H -1.992347 3.911182 1.379781 0
M  V30 74 H 0.393747 6.349831 1.654033 0
M  V30 75 H -1.114149 5.733098 0.965911 0
M  V30 76 H -0.527678 5.041468 2.500995 0
M  V30 77 H 4.902441 -1.615175 1.992937 0
M  V30 78 H 4.811058 -0.168811 1.036792 0
M  V30 79 H 3.060202 1.456818 1.759898 0
M  V30 80 H 1.036839 2.033220 2.893512 0
M  V30 81 H -0.302405 0.277595 3.962501 0
M  V30 82 H 2.397659 -2.648382 2.687223 0
M  V30 END ATOM
M  V30 BEGIN BOND
M  V30 1 1 1 2
M  V30 2 1 2 3
M  V30 3 1 3 4
M  V30 4 2 4 5
M  V30 5 1 5 6
M  V30 6 2 6 7
M  V30 7 1 7 8
M  V30 8 1 7 9
M  V30 9 1 9 10
M  V30 10 2 10 11
M  V30 11 1 11 12
M  V30 12 2 12 13
M  V30 13 1 13 14
M  V30 14 1 14 15
M  V30 15 2 15 16
M  V30 16 1 16 17
M  V30 17 2 17 18
M  V30 18 1 18 19
M  V30 19 2 19 20
M  V30 20 1 19 21
M  V30 21 1 21 22
M  V30 22 1 22 23
M  V30 23 1 23 24
M  V30 24 1 24 25
M  V30 25 1 25 26
M  V30 26 1 25 27
M  V30 27 1 27 28
M  V30 28 1 18 29
M  V30 29 2 29 30
M  V30 30 1 30 31
M  V30 31 1 31 32
M  V30 32 1 13 33
M  V30 33 2 33 34
M  V30 34 1 34 35
M  V30 35 1 35 36
M  V30 36 1 36 37
M  V30 37 2 37 38
M  V30 38 1 38 39
M  V30 39 2 39 40
M  V30 40 1 40 41
M  V30 41 1 41 42
M  V30 42 1 42 43
M  V30 43 1 42 44
M  V30 44 1 42 45
M  V30 45 2 41 46
M  V30 46 1 35 3
M  V30 47 1 46 37
M  V30 48 1 9 4
M  V30 49 1 34 10
M  V30 50 1 30 15
M  V30 51 1 28 22
M  V30 52 1 1 47
M  V30 53 1 1 48
M  V30 54 1 1 49
M  V30 55 1 2 50
M  V30 56 1 2 51
M  V30 57 1 3 52 CFG=3
M  V30 58 1 8 53
M  V30 59 1 8 54
M  V30 60 1 8 55
M  V30 61 1 11 56
M  V30 62 1 14 57
M  V30 63 1 16 58
M  V30 64 1 17 59
M  V30 65 1 21 60
M  V30 66 1 22 61
M  V30 67 1 23 62
M  V30 68 1 23 63
M  V30 69 1 24 64
M  V30 70 1 24 65
M  V30 71 1 26 66
M  V30 72 1 26 67
M  V30 73 1 26 68
M  V30 74 1 27 69
M  V30 75 1 27 70
M  V30 76 1 28 71
M  V30 77 1 28 72
M  V30 78 1 29 73
M  V30 79 1 32 74
M  V30 80 1 32 75
M  V30 81 1 32 76
M  V30 82 1 36 77
M  V30 83 1 36 78
M  V30 84 1 38 79
M  V30 85 1 39 80
M  V30 86 1 40 81
M  V30 87 1 46 82
M  V30 END BOND
M  V30 END CTAB
M  END
>  <Dataset>  (353) 
ChEMBL_Kinases

>  <Ligand_Instance>  (353) 
nan

>  <PDB_ID>  (353) 
nan

>  <Standardized_SMILES>  (353) 
CC[C@@H]1c2nnc(C)n2-c2cnc(Nc3ccc(C(=O)NC4CCN(C)CC4)cc3OC)nc2N1Cc1cccc(C(F)(F)F)c1

>  <Name>  (353) 
nan

>  <Pocket>  (353) 
nan

>  <ATP_Site>  (353) 
nan

>  <Peripheral>  (353) 
nan

>  <Num_H_Atoms_ProtBoundConf>  (353) 
nan

>  <Num_Resolved_Atoms>  (353) 
nan

>  <Num_Not_Resolved_Atoms>  (353) 
nan

$$$$
CHEMBL4793366
     RDKit          3D

  0  0  0  0  0  0  0  0  0  0999 V3000
M  V30 BEGIN CTAB
M  V30 COUNTS 40 43 0 0 0
M  V30 BEGIN ATOM
M  V30 1 F -2.343899 -4.811494 1.331556 0
M  V30 2 C -1.039405 -5.019792 0.900806 0
M  V30 3 F -0.963326 -6.178586 0.164090 0
M  V30 4 F -0.268750 -5.256356 2.043373 0
M  V30 5 C -0.513708 -3.869667 0.116715 0
M  V30 6 C -0.116945 -4.081691 -1.184241 0
M  V30 7 N 0.345482 -3.022526 -1.844387 0
M  V30 8 C 0.450367 -1.787793 -1.342693 0
M  V30 9 N 0.965387 -0.760879 -2.174158 0
M  V30 10 C 1.153572 0.613565 -1.885132 0
M  V30 11 C 1.709753 1.501486 -2.794707 0
M  V30 12 N 1.888942 2.795305 -2.533610 0
M  V30 13 C 1.548417 3.368689 -1.362444 0
M  V30 14 N 1.619619 4.617728 -0.854355 0
M  V30 15 C 1.120439 4.623515 0.403590 0
M  V30 16 C 0.725713 3.346626 0.693176 0
M  V30 17 C 0.988429 2.552855 -0.403905 0
M  V30 18 C 0.812297 1.217547 -0.695507 0
M  V30 19 N 0.047258 -1.653505 -0.073621 0
M  V30 20 C -0.433033 -2.624509 0.696715 0
M  V30 21 N -0.840535 -2.409188 2.021051 0
M  V30 22 C -0.814114 -1.181148 2.777954 0
M  V30 23 C 0.552501 -0.561870 2.983104 0
M  V30 24 C 0.040185 -0.141612 4.369185 0
M  V30 25 C -0.848709 -1.364748 4.280178 0
M  V30 26 H -0.178333 -5.053530 -1.641302 0
M  V30 27 H 1.259808 -1.025540 -3.154551 0
M  V30 28 H 2.018479 1.129430 -3.774685 0
M  V30 29 H 2.009891 5.459633 -1.372266 0
M  V30 30 H 1.064037 5.495776 1.026107 0
M  V30 31 H 0.281742 3.020303 1.629748 0
M  V30 32 H 0.369211 0.649125 0.099796 0
M  V30 33 H -1.223928 -3.237116 2.565840 0
M  V30 34 H -1.502815 -0.401635 2.393129 0
M  V30 35 H 0.787891 0.344472 2.429755 0
M  V30 36 H 1.385900 -1.286590 3.123893 0
M  V30 37 H -0.529326 0.825627 4.305519 0
M  V30 38 H 0.817794 -0.157235 5.137744 0
M  V30 39 H -1.847814 -1.247988 4.740388 0
M  V30 40 H -0.294996 -2.275132 4.563982 0
M  V30 END ATOM
M  V30 BEGIN BOND
M  V30 1 1 1 2
M  V30 2 1 2 3
M  V30 3 1 2 4
M  V30 4 1 2 5
M  V30 5 2 5 6
M  V30 6 1 6 7
M  V30 7 2 7 8
M  V30 8 1 8 9
M  V30 9 1 9 10
M  V30 10 2 10 11
M  V30 11 1 11 12
M  V30 12 2 12 13
M  V30 13 1 13 14
M  V30 14 1 14 15
M  V30 15 2 15 16
M  V30 16 1 16 17
M  V30 17 2 17 18
M  V30 18 1 8 19
M  V30 19 2 19 20
M  V30 20 1 20 21
M  V30 21 1 21 22
M  V30 22 1 22 23
M  V30 23 1 23 24
M  V30 24 1 24 25
M  V30 25 1 20 5
M  V30 26 1 25 22
M  V30 27 1 18 10
M  V30 28 1 17 13
M  V30 29 1 6 26
M  V30 30 1 9 27
M  V30 31 1 11 28
M  V30 32 1 14 29
M  V30 33 1 15 30
M  V30 34 1 16 31
M  V30 35 1 18 32
M  V30 36 1 21 33
M  V30 37 1 22 34
M  V30 38 1 23 35
M  V30 39 1 23 36
M  V30 40 1 24 37
M  V30 41 1 24 38
M  V30 42 1 25 39
M  V30 43 1 25 40
M  V30 END BOND
M  V30 END CTAB
M  END
>  <Dataset>  (354) 
ChEMBL_Kinases

>  <Ligand_Instance>  (354) 
nan

>  <PDB_ID>  (354) 
nan

>  <Standardized_SMILES>  (354) 
FC(F)(F)c1cnc(Nc2cnc3[nH]ccc3c2)nc1NC1CCC1

>  <Name>  (354) 
nan

>  <Pocket>  (354) 
nan

>  <ATP_Site>  (354) 
nan

>  <Peripheral>  (354) 
nan

>  <Num_H_Atoms_ProtBoundConf>  (354) 
nan

>  <Num_Resolved_Atoms>  (354) 
nan

>  <Num_Not_Resolved_Atoms>  (354) 
nan

$$$$
CHEMBL4793390
     RDKit          3D

  0  0  0  0  0  0  0  0  0  0999 V3000
M  V30 BEGIN CTAB
M  V30 COUNTS 57 60 0 0 0
M  V30 BEGIN ATOM
M  V30 1 C 2.724161 -2.338084 3.244152 0
M  V30 2 C 2.993470 -1.177979 2.269376 0
M  V30 3 C 4.383454 -1.228367 1.736540 0
M  V30 4 C 4.707682 -0.122940 0.765010 0
M  V30 5 S 4.565032 1.494170 1.418312 0
M  V30 6 O 5.583496 1.615267 2.535582 0
M  V30 7 O 4.980837 2.466061 0.348313 0
M  V30 8 N 2.993399 1.898650 1.974968 0
M  V30 9 C 1.859500 1.930267 1.123994 0
M  V30 10 C 1.940704 1.819054 -0.245630 0
M  V30 11 C 0.836969 1.854385 -1.066570 0
M  V30 12 C -0.362536 2.010219 -0.411948 0
M  V30 13 C -0.579970 2.132425 0.944147 0
M  V30 14 C -1.850428 2.308999 1.596312 0
M  V30 15 O -1.694802 3.280767 2.413539 0
M  V30 16 C -3.145023 1.698637 1.546847 0
M  V30 17 N -4.157641 2.246444 2.229377 0
M  V30 18 N -5.261682 1.507075 2.042327 0
M  V30 19 C -5.035189 0.452746 1.241026 0
M  V30 20 N -5.775582 -0.559064 0.761038 0
M  V30 21 C -5.208944 -1.496225 -0.053810 0
M  V30 22 C -3.850248 -1.364308 -0.364160 0
M  V30 23 C -3.241763 -2.373741 -1.240717 0
M  V30 24 C -2.004552 -2.802310 -0.754340 0
M  V30 25 C -1.244227 -3.746314 -1.406184 0
M  V30 26 C -1.746816 -4.276957 -2.588192 0
M  V30 27 O -1.023129 -5.239911 -3.298654 0
M  V30 28 C 0.230891 -5.623288 -2.734489 0
M  V30 29 C -2.968624 -3.855322 -3.070757 0
M  V30 30 C -3.717855 -2.908076 -2.404656 0
M  V30 31 Cl -5.273295 -2.287135 -2.901342 0
M  V30 32 C -3.083146 -0.327770 0.124851 0
M  V30 33 C -3.697482 0.593833 0.942236 0
M  V30 34 C 0.584542 2.085543 1.680701 0
M  V30 35 F 0.499806 2.197131 3.045331 0
M  V30 36 H 2.464305 -3.230796 2.613105 0
M  V30 37 H 3.569927 -2.521043 3.914820 0
M  V30 38 H 1.798985 -2.052355 3.788305 0
M  V30 39 H 2.818337 -0.260694 2.870723 0
M  V30 40 H 2.269588 -1.312557 1.443462 0
M  V30 41 H 5.085733 -1.105024 2.590000 0
M  V30 42 H 4.512437 -2.216827 1.244023 0
M  V30 43 H 4.045997 -0.304567 -0.119843 0
M  V30 44 H 5.750698 -0.322826 0.385653 0
M  V30 45 H 2.877586 2.130973 2.985058 0
M  V30 46 H 2.908058 1.699609 -0.728157 0
M  V30 47 H 0.896971 1.768767 -2.124287 0
M  V30 48 H -1.256466 2.040446 -1.056180 0
M  V30 49 H -6.170722 1.766355 2.492601 0
M  V30 50 H -5.838944 -2.288176 -0.414734 0
M  V30 51 H -1.532433 -2.437777 0.168889 0
M  V30 52 H -0.280331 -4.090431 -1.041469 0
M  V30 53 H 0.064737 -6.009535 -1.691434 0
M  V30 54 H 0.700477 -6.442057 -3.311008 0
M  V30 55 H 0.867390 -4.718402 -2.654517 0
M  V30 56 H -3.414635 -4.237200 -3.995402 0
M  V30 57 H -2.036691 -0.233517 -0.111047 0
M  V30 END ATOM
M  V30 BEGIN BOND
M  V30 1 1 1 2
M  V30 2 1 2 3
M  V30 3 1 3 4
M  V30 4 1 4 5
M  V30 5 2 5 6
M  V30 6 2 5 7
M  V30 7 1 5 8
M  V30 8 1 8 9
M  V30 9 2 9 10
M  V30 10 1 10 11
M  V30 11 2 11 12
M  V30 12 1 12 13
M  V30 13 1 13 14
M  V30 14 2 14 15
M  V30 15 1 14 16
M  V30 16 2 16 17
M  V30 17 1 17 18
M  V30 18 1 18 19
M  V30 19 2 19 20
M  V30 20 1 20 21
M  V30 21 2 21 22
M  V30 22 1 22 23
M  V30 23 2 23 24
M  V30 24 1 24 25
M  V30 25 2 25 26
M  V30 26 1 26 27
M  V30 27 1 27 28
M  V30 28 1 26 29
M  V30 29 2 29 30
M  V30 30 1 30 31
M  V30 31 1 22 32
M  V30 32 2 32 33
M  V30 33 2 13 34
M  V30 34 1 34 35
M  V30 35 1 34 9
M  V30 36 1 33 16
M  V30 37 1 33 19
M  V30 38 1 30 23
M  V30 39 1 1 36
M  V30 40 1 1 37
M  V30 41 1 1 38
M  V30 42 1 2 39
M  V30 43 1 2 40
M  V30 44 1 3 41
M  V30 45 1 3 42
M  V30 46 1 4 43
M  V30 47 1 4 44
M  V30 48 1 8 45
M  V30 49 1 10 46
M  V30 50 1 11 47
M  V30 51 1 12 48
M  V30 52 1 18 49
M  V30 53 1 21 50
M  V30 54 1 24 51
M  V30 55 1 25 52
M  V30 56 1 28 53
M  V30 57 1 28 54
M  V30 58 1 28 55
M  V30 59 1 29 56
M  V30 60 1 32 57
M  V30 END BOND
M  V30 END CTAB
M  END
>  <Dataset>  (355) 
ChEMBL_Kinases

>  <Ligand_Instance>  (355) 
nan

>  <PDB_ID>  (355) 
nan

>  <Standardized_SMILES>  (355) 
CCCCS(=O)(=O)Nc1cccc(C(=O)c2n[nH]c3ncc(-c4ccc(OC)cc4Cl)cc23)c1F

>  <Name>  (355) 
nan

>  <Pocket>  (355) 
nan

>  <ATP_Site>  (355) 
nan

>  <Peripheral>  (355) 
nan

>  <Num_H_Atoms_ProtBoundConf>  (355) 
nan

>  <Num_Resolved_Atoms>  (355) 
nan

>  <Num_Not_Resolved_Atoms>  (355) 
nan

$$$$
CHEMBL4126413
     RDKit          3D

  0  0  0  0  0  0  0  0  0  0999 V3000
M  V30 BEGIN CTAB
M  V30 COUNTS 49 51 0 0 0
M  V30 BEGIN ATOM
M  V30 1 C 5.810304 -4.619228 0.253417 0
M  V30 2 O 5.017131 -3.467302 0.171419 0
M  V30 3 C 5.159490 -2.363600 0.983212 0
M  V30 4 C 6.096239 -2.232405 1.987253 0
M  V30 5 C 6.196293 -1.093912 2.778493 0
M  V30 6 C 5.316326 -0.058663 2.540011 0
M  V30 7 C 4.358258 -0.131425 1.550467 0
M  V30 8 C 4.319765 -1.292174 0.806412 0
M  V30 9 N 3.329426 -1.360380 -0.212685 0
M  V30 10 C 2.334851 -0.430689 -0.627844 0
M  V30 11 N 2.620319 0.476035 -1.586157 0
M  V30 12 C 1.694200 1.362850 -1.992288 0
M  V30 13 C 0.431387 1.364630 -1.437456 0
M  V30 14 Cl -0.888056 2.436343 -1.839225 0
M  V30 15 C 0.131965 0.430140 -0.447527 0
M  V30 16 C -1.119172 0.242386 0.276245 0
M  V30 17 C -1.065031 0.064485 1.639773 0
M  V30 18 C -2.232345 -0.114486 2.344440 0
M  V30 19 C -3.405725 -0.104108 1.625636 0
M  V30 20 C -4.598809 -0.277344 2.440542 0
M  V30 21 N -4.598813 -0.476380 3.848849 0
M  V30 22 O -5.848280 -0.340502 2.457007 0
M  V30 23 C -3.556230 0.065077 0.268104 0
M  V30 24 C -4.836818 0.047076 -0.467335 0
M  V30 25 C -5.627818 1.333458 -0.338565 0
M  V30 26 C -5.648778 -1.195237 -0.305964 0
M  V30 27 C -2.326565 0.241510 -0.379943 0
M  V30 28 N 1.110264 -0.430603 -0.088312 0
M  V30 29 H 6.802748 -4.484808 0.682163 0
M  V30 30 H 5.973968 -4.997659 -0.796893 0
M  V30 31 H 5.296885 -5.467327 0.760655 0
M  V30 32 H 6.784641 -3.072590 2.155405 0
M  V30 33 H 6.967137 -1.109427 3.529598 0
M  V30 34 H 5.424114 0.826488 3.184788 0
M  V30 35 H 3.675339 0.698805 1.381709 0
M  V30 36 H 3.184976 -2.176104 -0.852392 0
M  V30 37 H 1.815862 2.121237 -2.742261 0
M  V30 38 H -0.100565 0.069903 2.125737 0
M  V30 39 H -2.176938 -0.250911 3.397707 0
M  V30 40 H -4.574687 -1.365649 4.431542 0
M  V30 41 H -4.622025 0.245796 4.629935 0
M  V30 42 H -4.526036 0.046689 -1.569378 0
M  V30 43 H -6.717112 1.128814 -0.440319 0
M  V30 44 H -5.397124 1.859968 0.633437 0
M  V30 45 H -5.375857 2.084893 -1.115228 0
M  V30 46 H -5.186975 -1.960324 0.378503 0
M  V30 47 H -5.761054 -1.783359 -1.272076 0
M  V30 48 H -6.715685 -0.981895 -0.036732 0
M  V30 49 H -2.352489 0.384457 -1.468279 0
M  V30 END ATOM
M  V30 BEGIN BOND
M  V30 1 1 1 2
M  V30 2 1 2 3
M  V30 3 2 3 4
M  V30 4 1 4 5
M  V30 5 2 5 6
M  V30 6 1 6 7
M  V30 7 2 7 8
M  V30 8 1 8 9
M  V30 9 1 9 10
M  V30 10 2 10 11
M  V30 11 1 11 12
M  V30 12 2 12 13
M  V30 13 1 13 14
M  V30 14 1 13 15
M  V30 15 1 15 16
M  V30 16 2 16 17
M  V30 17 1 17 18
M  V30 18 2 18 19
M  V30 19 1 19 20
M  V30 20 1 20 21
M  V30 21 2 20 22
M  V30 22 1 19 23
M  V30 23 1 23 24
M  V30 24 1 24 25
M  V30 25 1 24 26
M  V30 26 2 23 27
M  V30 27 2 15 28
M  V30 28 1 8 3
M  V30 29 1 28 10
M  V30 30 1 27 16
M  V30 31 1 1 29
M  V30 32 1 1 30
M  V30 33 1 1 31
M  V30 34 1 4 32
M  V30 35 1 5 33
M  V30 36 1 6 34
M  V30 37 1 7 35
M  V30 38 1 9 36
M  V30 39 1 12 37
M  V30 40 1 17 38
M  V30 41 1 18 39
M  V30 42 1 21 40
M  V30 43 1 21 41
M  V30 44 1 24 42
M  V30 45 1 25 43
M  V30 46 1 25 44
M  V30 47 1 25 45
M  V30 48 1 26 46
M  V30 49 1 26 47
M  V30 50 1 26 48
M  V30 51 1 27 49
M  V30 END BOND
M  V30 END CTAB
M  END
>  <Dataset>  (356) 
ChEMBL_Kinases

>  <Ligand_Instance>  (356) 
nan

>  <PDB_ID>  (356) 
nan

>  <Standardized_SMILES>  (356) 
COc1ccccc1Nc1ncc(Cl)c(-c2ccc(C(N)=O)c(C(C)C)c2)n1

>  <Name>  (356) 
nan

>  <Pocket>  (356) 
nan

>  <ATP_Site>  (356) 
nan

>  <Peripheral>  (356) 
nan

>  <Num_H_Atoms_ProtBoundConf>  (356) 
nan

>  <Num_Resolved_Atoms>  (356) 
nan

>  <Num_Not_Resolved_Atoms>  (356) 
nan

$$$$
CHEMBL4126401
     RDKit          3D

  0  0  0  0  0  0  0  0  0  0999 V3000
M  V30 BEGIN CTAB
M  V30 COUNTS 222 226 0 0 0
M  V30 BEGIN ATOM
M  V30 1 C 4.724460 -3.190043 -4.575454 0
M  V30 2 C 3.831990 -2.418157 -5.482812 0
M  V30 3 C 3.485173 -1.040270 -5.041678 0 CFG=2
M  V30 4 C 4.633178 -0.107811 -4.855375 0
M  V30 5 C 2.492912 -1.027586 -3.854580 0 CFG=2
M  V30 6 N 3.089450 -1.717276 -2.734425 0
M  V30 7 C 3.848218 -0.945791 -1.766739 0
M  V30 8 O 3.912543 0.317936 -1.996959 0
M  V30 9 C 4.599525 -1.206225 -0.555810 0 CFG=2
M  V30 10 C 6.118032 -1.011994 -0.849782 0
M  V30 11 N 4.545179 -2.551844 -0.026593 0
M  V30 12 C 4.944723 -2.845280 1.316425 0
M  V30 13 O 5.390905 -2.026191 2.149649 0
M  V30 14 C 4.829212 -4.232296 1.772374 0 CFG=1
M  V30 15 N 3.776768 -4.925602 1.044447 0
M  V30 16 C 3.182777 -6.213130 0.765170 0
M  V30 17 O 3.879512 -7.041490 1.377027 0
M  V30 18 C 2.014290 -6.105344 -0.114089 0 CFG=2
M  V30 19 C 2.619746 -6.040623 -1.556263 0
M  V30 20 O 3.340232 -7.217635 -1.692786 0
M  V30 21 N 1.251057 -4.922457 0.112025 0
M  V30 22 C 0.233018 -4.140693 -0.390083 0
M  V30 23 O -0.058978 -4.755799 -1.462058 0
M  V30 24 C -0.328165 -2.915070 0.195192 0 CFG=2
M  V30 25 C -1.724766 -3.342720 0.690089 0
M  V30 26 C -1.639069 -4.351523 1.722131 0
M  V30 27 C -2.953739 -4.757140 2.086493 0
M  V30 28 N -2.982314 -5.704604 3.030086 0
M  V30 29 C -1.704878 -5.977012 3.339492 0
M  V30 30 N -0.990960 -5.161866 2.549289 0
M  V30 31 N -0.513082 -1.832033 -0.760707 0
M  V30 32 C -0.741430 -0.576828 -0.119276 0
M  V30 33 O -0.768027 -0.652304 1.172861 0
M  V30 34 C -0.973593 0.863942 -0.415883 0 CFG=2
M  V30 35 C -2.418057 1.096999 -0.006612 0
M  V30 36 C -3.013366 2.421356 -0.158866 0
M  V30 37 C -3.057155 2.955297 -1.566436 0
M  V30 38 C -4.503636 2.267507 0.240672 0
M  V30 39 N -0.734062 1.256840 -1.774462 0
M  V30 40 C 0.102963 2.403581 -1.954178 0
M  V30 41 O 0.621070 3.031771 -0.965269 0
M  V30 42 C 0.798749 3.412174 -2.728638 0 CFG=2
M  V30 43 C 1.610098 3.004356 -3.907274 0
M  V30 44 C 2.199159 4.400668 -4.264189 0
M  V30 45 C 1.779233 5.294093 -3.072101 0
M  V30 46 N 1.762247 4.230267 -2.038202 0
M  V30 47 C 2.592353 4.376886 -0.892747 0
M  V30 48 O 2.820304 3.619016 0.077802 0
M  V30 49 C 3.427038 5.578460 -0.603929 0 CFG=2
M  V30 50 C 4.581411 5.676164 -1.547681 0
M  V30 51 C 5.815714 5.607914 -0.696988 0
M  V30 52 C 5.395196 6.005535 0.691132 0
M  V30 53 N 4.027313 5.515523 0.699157 0
M  V30 54 C 3.489027 5.008353 1.909842 0
M  V30 55 O 2.319770 4.668998 2.206634 0
M  V30 56 C 3.896104 4.639627 3.253987 0 CFG=2
M  V30 57 C 4.780343 3.351878 3.101928 0
M  V30 58 C 5.257049 2.865307 4.391913 0
M  V30 59 O 4.599285 2.001260 5.043172 0
M  V30 60 O 6.439834 3.359533 4.903977 0
M  V30 61 N 2.712605 4.223917 4.017816 0
M  V30 62 C 2.628829 4.303977 5.451361 0
M  V30 63 O 3.667249 4.763120 6.048385 0
M  V30 64 C 1.385456 3.859716 6.221040 0 CFG=2
M  V30 65 C 1.689766 2.471158 6.703271 0
M  V30 66 C 0.659751 1.791407 7.486495 0
M  V30 67 C -0.272433 1.080444 6.730411 0
M  V30 68 C -1.281659 0.340234 7.322333 0
M  V30 69 C -1.357632 0.312680 8.697165 0
M  V30 70 Cl -2.630921 -0.625894 9.461871 0
M  V30 71 C -0.448152 1.010060 9.505526 0
M  V30 72 Cl -0.544230 0.966968 11.255453 0
M  V30 73 C 0.552494 1.742203 8.866488 0
M  V30 74 N 0.258171 3.850605 5.289694 0
M  V30 75 C -0.890872 4.672478 5.637140 0
M  V30 76 O -0.798376 5.293454 6.751515 0
M  V30 77 C -2.076451 4.787569 4.770475 0 CFG=2
M  V30 78 C -3.247656 3.950109 5.042499 0
M  V30 79 C -3.985684 4.015925 6.309864 0
M  V30 80 C -3.297213 3.651567 7.553891 0
M  V30 81 N -4.101392 3.556533 8.720297 0
M  V30 82 O -2.312533 3.341567 8.258734 0
M  V30 83 N -1.619730 4.395995 3.403653 0
M  V30 84 C -1.424951 5.564822 2.608210 0
M  V30 85 C -0.957670 5.406440 1.188762 0
M  V30 86 O -1.597521 6.750391 2.950433 0
M  V30 87 C 6.181417 -4.963863 1.433652 0 CFG=1
M  V30 88 C 6.400641 -5.015718 -0.036309 0
M  V30 89 O 7.146010 -4.261815 2.148156 0
M  V30 90 C 1.233171 -1.527678 -4.361231 0
M  V30 91 O 0.958262 -0.673108 -5.297605 0
M  V30 92 N 0.195510 -2.534272 -4.272673 0
M  V30 93 C -0.921003 -2.486091 -5.161509 0 CFG=1
M  V30 94 C -0.703011 -3.475384 -6.336853 0
M  V30 95 C -0.570877 -4.869221 -5.866594 0
M  V30 96 C -1.735067 -5.614037 -5.769310 0
M  V30 97 C -1.764305 -6.918413 -5.356453 0
M  V30 98 C -0.562119 -7.552292 -5.007400 0
M  V30 99 O -0.568945 -8.873613 -4.585810 0
M  V30 100 C 0.600430 -6.826823 -5.096982 0
M  V30 101 C 0.601761 -5.508522 -5.518754 0
M  V30 102 C -2.239981 -2.754392 -4.563713 0
M  V30 103 O -3.120828 -2.595827 -5.488933 0
M  V30 104 N -2.787651 -3.123705 -3.310794 0
M  V30 105 C -4.217797 -3.298586 -3.149459 0 CFG=1
M  V30 106 C -4.542455 -4.797233 -3.058690 0
M  V30 107 C -4.745706 -2.649045 -1.951423 0
M  V30 108 O -3.698329 -2.049961 -1.614224 0
M  V30 109 N -6.001888 -2.672257 -1.352755 0
M  V30 110 C -6.327626 -1.933621 -0.124508 0 CFG=1
M  V30 111 C -7.723085 -1.398707 -0.228151 0
M  V30 112 C -8.162412 -0.621250 0.951453 0
M  V30 113 N -8.531006 0.110958 2.099429 0
M  V30 114 O -6.986742 -0.906989 1.341452 0
M  V30 115 C -6.305759 -2.982478 0.970508 0
M  V30 116 N -6.455408 -3.282921 2.346945 0
M  V30 117 O -6.038779 -3.650957 -0.052813 0
M  V30 118 H 4.258290 -4.146272 -4.222484 0
M  V30 119 H 5.138103 -2.630062 -3.726414 0
M  V30 120 H 5.599945 -3.549070 -5.196279 0
M  V30 121 H 4.206773 -2.437702 -6.541855 0
M  V30 122 H 2.866223 -2.990992 -5.540786 0
M  V30 123 H 2.864556 -0.589292 -5.876764 0
M  V30 124 H 5.088760 0.015852 -5.891979 0
M  V30 125 H 5.400713 -0.471017 -4.148445 0
M  V30 126 H 4.237332 0.898545 -4.631711 0
M  V30 127 H 2.446811 0.034636 -3.575454 0
M  V30 128 H 3.114903 -2.716038 -2.415363 0
M  V30 129 H 4.427992 -0.445587 0.215847 0
M  V30 130 H 6.504111 -1.832740 -1.473907 0
M  V30 131 H 6.666793 -1.010459 0.109199 0
M  V30 132 H 6.247577 -0.024344 -1.313477 0
M  V30 133 H 4.210721 -3.170396 -0.782847 0
M  V30 134 H 4.734193 -4.430796 2.822246 0
M  V30 135 H 3.295080 -4.109987 0.548488 0
M  V30 136 H 1.409678 -6.986065 -0.166261 0
M  V30 137 H 1.769738 -6.086939 -2.245940 0
M  V30 138 H 3.301681 -5.204981 -1.664605 0
M  V30 139 H 4.308442 -7.036647 -1.739041 0
M  V30 140 H 1.552960 -4.433106 1.026426 0
M  V30 141 H 0.157529 -2.530190 1.081754 0
M  V30 142 H -2.222605 -3.816746 -0.218460 0
M  V30 143 H -2.275233 -2.457012 1.061857 0
M  V30 144 H -4.003754 -4.530403 1.824604 0
M  V30 145 H -1.224962 -6.659449 4.032807 0
M  V30 146 H 0.029616 -5.102367 2.542476 0
M  V30 147 H -0.551592 -1.555616 -1.781179 0
M  V30 148 H -0.375591 1.452832 0.308054 0
M  V30 149 H -2.543760 0.671726 1.032333 0
M  V30 150 H -3.025574 0.379485 -0.634441 0
M  V30 151 H -2.658431 3.187902 0.563734 0
M  V30 152 H -2.357857 3.798920 -1.760377 0
M  V30 153 H -2.916789 2.128216 -2.270839 0
M  V30 154 H -4.059121 3.390052 -1.829830 0
M  V30 155 H -5.030841 3.226396 0.053821 0
M  V30 156 H -4.500401 2.105131 1.332206 0
M  V30 157 H -4.895947 1.418099 -0.338120 0
M  V30 158 H -0.880580 1.096118 -2.789185 0
M  V30 159 H 0.016391 4.143473 -3.162409 0
M  V30 160 H 2.450269 2.374045 -3.563966 0
M  V30 161 H 1.060098 2.653036 -4.767793 0
M  V30 162 H 1.788694 4.753256 -5.205338 0
M  V30 163 H 3.298617 4.322449 -4.281012 0
M  V30 164 H 0.758919 5.623467 -3.314750 0
M  V30 165 H 2.484490 6.078794 -2.883355 0
M  V30 166 H 2.843645 6.517437 -0.671995 0
M  V30 167 H 4.588445 6.687753 -2.021775 0
M  V30 168 H 4.562029 4.864252 -2.320741 0
M  V30 169 H 6.604534 6.358333 -0.994554 0
M  V30 170 H 6.305567 4.613464 -0.660126 0
M  V30 171 H 5.334774 7.145161 0.752640 0
M  V30 172 H 6.029241 5.674944 1.498832 0
M  V30 173 H 4.497777 5.387562 3.762200 0
M  V30 174 H 4.207561 2.606118 2.553203 0
M  V30 175 H 5.649155 3.640098 2.495253 0
M  V30 176 H 6.741023 3.081099 5.811240 0
M  V30 177 H 1.824559 3.824712 3.657762 0
M  V30 178 H 1.236004 4.527485 7.059089 0
M  V30 179 H 1.978242 1.866648 5.794604 0
M  V30 180 H 2.643590 2.491870 7.303808 0
M  V30 181 H -0.268085 1.061605 5.631035 0
M  V30 182 H -2.008727 -0.210017 6.731481 0
M  V30 183 H 1.294853 2.301883 9.424297 0
M  V30 184 H 0.090517 3.356720 4.407372 0
M  V30 185 H -2.367177 5.862703 4.785472 0
M  V30 186 H -4.017020 4.180415 4.218225 0
M  V30 187 H -2.949113 2.883645 4.784951 0
M  V30 188 H -4.913133 3.363823 6.170813 0
M  V30 189 H -4.435290 5.057528 6.404778 0
M  V30 190 H -4.532898 2.862087 9.382905 0
M  V30 191 H -4.672384 3.434164 9.551302 0
M  V30 192 H -1.484906 3.425780 3.122557 0
M  V30 193 H -0.091791 6.078572 0.964732 0
M  V30 194 H -1.766911 5.673495 0.476419 0
M  V30 195 H -0.647270 4.361118 1.000660 0
M  V30 196 H 6.100355 -5.994155 1.824665 0
M  V30 197 H 6.926713 -4.095652 -0.353133 0
M  V30 198 H 7.058091 -5.870263 -0.335756 0
M  V30 199 H 5.459269 -5.193039 -0.600657 0
M  V30 200 H 7.916544 -3.969294 1.582663 0
M  V30 201 H 0.603514 -3.098658 -3.471220 0
M  V30 202 H -0.946465 -1.511910 -5.671150 0
M  V30 203 H 0.171822 -3.124302 -6.922867 0
M  V30 204 H -1.586332 -3.334055 -6.988665 0
M  V30 205 H -2.749222 -5.262218 -6.003181 0
M  V30 206 H -2.645910 -7.545710 -5.264917 0
M  V30 207 H -0.060410 -9.067913 -3.730490 0
M  V30 208 H 1.508678 -7.330813 -4.824798 0
M  V30 209 H 1.511897 -4.928271 -5.589594 0
M  V30 210 H -2.006509 -3.224958 -2.647638 0
M  V30 211 H -4.749555 -2.970287 -4.079618 0
M  V30 212 H -4.835984 -5.199706 -4.071260 0
M  V30 213 H -3.607828 -5.326131 -2.804157 0
M  V30 214 H -5.373480 -4.950742 -2.374987 0
M  V30 215 H -6.687246 -3.266122 -1.864221 0
M  V30 216 H -5.549065 -1.224925 0.116212 0
M  V30 217 H -8.465069 -2.243977 -0.365039 0
M  V30 218 H -7.861903 -0.799517 -1.170600 0
M  V30 219 H -8.295399 1.130873 2.099539 0
M  V30 220 H -9.017045 -0.449145 2.857594 0
M  V30 221 H -7.203330 -3.971052 2.566224 0
M  V30 222 H -5.803502 -2.787111 3.016448 0
M  V30 END ATOM
M  V30 BEGIN BOND
M  V30 1 1 1 2
M  V30 2 1 2 3
M  V30 3 1 3 4
M  V30 4 1 3 5
M  V30 5 1 5 6
M  V30 6 1 6 7
M  V30 7 2 7 8
M  V30 8 1 7 9
M  V30 9 1 9 10
M  V30 10 1 9 11
M  V30 11 1 11 12
M  V30 12 2 12 13
M  V30 13 1 12 14
M  V30 14 1 14 15
M  V30 15 1 15 16
M  V30 16 2 16 17
M  V30 17 1 16 18
M  V30 18 1 18 19
M  V30 19 1 19 20
M  V30 20 1 18 21
M  V30 21 1 21 22
M  V30 22 2 22 23
M  V30 23 1 22 24
M  V30 24 1 24 25
M  V30 25 1 25 26
M  V30 26 2 26 27
M  V30 27 1 27 28
M  V30 28 2 28 29
M  V30 29 1 29 30
M  V30 30 1 24 31
M  V30 31 1 31 32
M  V30 32 2 32 33
M  V30 33 1 32 34
M  V30 34 1 34 35
M  V30 35 1 35 36
M  V30 36 1 36 37
M  V30 37 1 36 38
M  V30 38 1 34 39
M  V30 39 1 39 40
M  V30 40 2 40 41
M  V30 41 1 40 42
M  V30 42 1 42 43
M  V30 43 1 43 44
M  V30 44 1 44 45
M  V30 45 1 45 46
M  V30 46 1 46 47
M  V30 47 2 47 48
M  V30 48 1 47 49
M  V30 49 1 49 50
M  V30 50 1 50 51
M  V30 51 1 51 52
M  V30 52 1 52 53
M  V30 53 1 53 54
M  V30 54 2 54 55
M  V30 55 1 54 56
M  V30 56 1 56 57
M  V30 57 1 57 58
M  V30 58 2 58 59
M  V30 59 1 58 60
M  V30 60 1 56 61
M  V30 61 1 61 62
M  V30 62 2 62 63
M  V30 63 1 62 64
M  V30 64 1 64 65
M  V30 65 1 65 66
M  V30 66 2 66 67
M  V30 67 1 67 68
M  V30 68 2 68 69
M  V30 69 1 69 70
M  V30 70 1 69 71
M  V30 71 1 71 72
M  V30 72 2 71 73
M  V30 73 1 64 74
M  V30 74 1 74 75
M  V30 75 2 75 76
M  V30 76 1 75 77
M  V30 77 1 77 78
M  V30 78 1 78 79
M  V30 79 1 79 80
M  V30 80 1 80 81
M  V30 81 2 80 82
M  V30 82 1 77 83
M  V30 83 1 83 84
M  V30 84 1 84 85
M  V30 85 2 84 86
M  V30 86 1 14 87
M  V30 87 1 87 88
M  V30 88 1 87 89
M  V30 89 1 5 90
M  V30 90 2 90 91
M  V30 91 1 90 92
M  V30 92 1 92 93
M  V30 93 1 93 94
M  V30 94 1 94 95
M  V30 95 2 95 96
M  V30 96 1 96 97
M  V30 97 2 97 98
M  V30 98 1 98 99
M  V30 99 1 98 100
M  V30 100 2 100 101
M  V30 101 1 93 102
M  V30 102 2 102 103
M  V30 103 1 102 104
M  V30 104 1 104 105
M  V30 105 1 105 106
M  V30 106 1 105 107
M  V30 107 2 107 108
M  V30 108 1 107 109
M  V30 109 1 109 110
M  V30 110 1 110 111
M  V30 111 1 111 112
M  V30 112 1 112 113
M  V30 113 2 112 114
M  V30 114 1 110 115
M  V30 115 1 115 116
M  V30 116 2 115 117
M  V30 117 1 30 26
M  V30 118 1 46 42
M  V30 119 1 53 49
M  V30 120 1 73 66
M  V30 121 1 101 95
M  V30 122 1 1 118
M  V30 123 1 1 119
M  V30 124 1 1 120
M  V30 125 1 2 121
M  V30 126 1 2 122
M  V30 127 1 3 123 CFG=3
M  V30 128 1 4 124
M  V30 129 1 4 125
M  V30 130 1 4 126
M  V30 131 1 5 127 CFG=1
M  V30 132 1 6 128
M  V30 133 1 9 129 CFG=1
M  V30 134 1 10 130
M  V30 135 1 10 131
M  V30 136 1 10 132
M  V30 137 1 11 133
M  V30 138 1 14 134 CFG=1
M  V30 139 1 15 135
M  V30 140 1 18 136 CFG=3
M  V30 141 1 19 137
M  V30 142 1 19 138
M  V30 143 1 20 139
M  V30 144 1 21 140
M  V30 145 1 24 141 CFG=1
M  V30 146 1 25 142
M  V30 147 1 25 143
M  V30 148 1 27 144
M  V30 149 1 29 145
M  V30 150 1 30 146
M  V30 151 1 31 147
M  V30 152 1 34 148 CFG=1
M  V30 153 1 35 149
M  V30 154 1 35 150
M  V30 155 1 36 151
M  V30 156 1 37 152
M  V30 157 1 37 153
M  V30 158 1 37 154
M  V30 159 1 38 155
M  V30 160 1 38 156
M  V30 161 1 38 157
M  V30 162 1 39 158
M  V30 163 1 42 159 CFG=3
M  V30 164 1 43 160
M  V30 165 1 43 161
M  V30 166 1 44 162
M  V30 167 1 44 163
M  V30 168 1 45 164
M  V30 169 1 45 165
M  V30 170 1 49 166 CFG=1
M  V30 171 1 50 167
M  V30 172 1 50 168
M  V30 173 1 51 169
M  V30 174 1 51 170
M  V30 175 1 52 171
M  V30 176 1 52 172
M  V30 177 1 56 173 CFG=1
M  V30 178 1 57 174
M  V30 179 1 57 175
M  V30 180 1 60 176
M  V30 181 1 61 177
M  V30 182 1 64 178 CFG=1
M  V30 183 1 65 179
M  V30 184 1 65 180
M  V30 185 1 67 181
M  V30 186 1 68 182
M  V30 187 1 73 183
M  V30 188 1 74 184
M  V30 189 1 77 185 CFG=3
M  V30 190 1 78 186
M  V30 191 1 78 187
M  V30 192 1 79 188
M  V30 193 1 79 189
M  V30 194 1 81 190
M  V30 195 1 81 191
M  V30 196 1 83 192
M  V30 197 1 85 193
M  V30 198 1 85 194
M  V30 199 1 85 195
M  V30 200 1 87 196 CFG=1
M  V30 201 1 88 197
M  V30 202 1 88 198
M  V30 203 1 88 199
M  V30 204 1 89 200
M  V30 205 1 92 201
M  V30 206 1 93 202 CFG=3
M  V30 207 1 94 203
M  V30 208 1 94 204
M  V30 209 1 96 205
M  V30 210 1 97 206
M  V30 211 1 99 207
M  V30 212 1 100 208
M  V30 213 1 101 209
M  V30 214 1 104 210
M  V30 215 1 105 211 CFG=3
M  V30 216 1 106 212
M  V30 217 1 106 213
M  V30 218 1 106 214
M  V30 219 1 109 215
M  V30 220 1 110 216 CFG=1
M  V30 221 1 111 217
M  V30 222 1 111 218
M  V30 223 1 113 219
M  V30 224 1 113 220
M  V30 225 1 116 221
M  V30 226 1 116 222
M  V30 END BOND
M  V30 END CTAB
M  END
>  <Dataset>  (357) 
ChEMBL_Kinases

>  <Ligand_Instance>  (357) 
nan

>  <PDB_ID>  (357) 
nan

>  <Standardized_SMILES>  (357) 
CC[C@H](C)[C@H](NC(=O)[C@H](C)NC(=O)[C@@H](NC(=O)[C@H](CO)NC(=O)[C@H](Cc1cnc[nH]1)NC(=O)[C@H](CC(C)C)NC(=O)[C@@H]1CCCN1C(=O)[C@@H]1CCCN1C(=O)[C@H](CC(=O)O)NC(=O)[C@H](Cc1ccc(Cl)c(Cl)c1)NC(=O)[C@H](CCC(N)=O)NC(C)=O)[C@@H](C)O)C(=O)N[C@@H](Cc1ccc(O)cc1)C(=O)N[C@@H](C)C(=O)N[C@@H](CC(N)=O)C(N)=O

>  <Name>  (357) 
nan

>  <Pocket>  (357) 
nan

>  <ATP_Site>  (357) 
nan

>  <Peripheral>  (357) 
nan

>  <Num_H_Atoms_ProtBoundConf>  (357) 
nan

>  <Num_Resolved_Atoms>  (357) 
nan

>  <Num_Not_Resolved_Atoms>  (357) 
nan

$$$$
CHEMBL412281
     RDKit          3D

  0  0  0  0  0  0  0  0  0  0999 V3000
M  V30 BEGIN CTAB
M  V30 COUNTS 50 53 0 0 0
M  V30 BEGIN ATOM
M  V30 1 C 2.087986 -1.680985 -5.929753 0
M  V30 2 N 2.024803 -1.070438 -4.643088 0
M  V30 3 C 3.107717 -0.975555 -3.741855 0
M  V30 4 O 4.202092 -1.491048 -4.160180 0
M  V30 5 C 3.135213 -0.373483 -2.416606 0
M  V30 6 C 4.327473 -0.399949 -1.727829 0
M  V30 7 C 4.349852 0.178661 -0.453112 0
M  V30 8 C 3.238531 0.760431 0.119039 0
M  V30 9 C 3.278608 1.365019 1.455217 0
M  V30 10 C 2.038372 0.786565 -0.575561 0
M  V30 11 N 0.826043 1.365930 -0.078025 0
M  V30 12 C 0.104829 0.992316 1.091613 0
M  V30 13 N 0.263418 1.427643 2.353803 0
M  V30 14 C -0.517399 0.964935 3.344114 0
M  V30 15 N -0.191219 1.548174 4.598195 0
M  V30 16 C 0.818668 0.839368 5.370254 0
M  V30 17 N -1.490056 0.045003 3.105109 0
M  V30 18 C -1.696838 -0.428256 1.863915 0
M  V30 19 C -0.885029 0.052048 0.831303 0
M  V30 20 C -1.354159 -0.622718 -0.282613 0
M  V30 21 N -2.368091 -1.433904 0.094221 0
M  V30 22 N -2.583860 -1.324331 1.390948 0
M  V30 23 C -3.587283 -2.047866 2.100180 0
M  V30 24 C -4.681222 -1.488728 2.745856 0
M  V30 25 C -5.558945 -2.329527 3.386707 0
M  V30 26 C -5.389697 -3.697112 3.408859 0
M  V30 27 C -4.314358 -4.287102 2.777986 0
M  V30 28 C -3.426305 -3.427482 2.128791 0
M  V30 29 C 2.038657 0.213349 -1.824564 0
M  V30 30 H 1.319527 -2.481229 -5.966685 0
M  V30 31 H 1.890093 -1.018976 -6.784521 0
M  V30 32 H 3.061382 -2.169685 -6.140982 0
M  V30 33 H 1.132147 -0.652328 -4.305821 0
M  V30 34 H 5.257524 -0.829372 -2.082022 0
M  V30 35 H 5.251813 0.195701 0.148588 0
M  V30 36 H 2.938567 0.613659 2.195419 0
M  V30 37 H 4.365515 1.551080 1.699181 0
M  V30 38 H 2.773173 2.345152 1.527970 0
M  V30 39 H 0.303766 2.161347 -0.528523 0
M  V30 40 H -0.588058 2.424551 5.033754 0
M  V30 41 H 1.386836 1.519785 6.046443 0
M  V30 42 H 0.294302 0.121494 6.024878 0
M  V30 43 H 1.529089 0.271959 4.745056 0
M  V30 44 H -0.956570 -0.501009 -1.280720 0
M  V30 45 H -4.720215 -0.430575 2.669785 0
M  V30 46 H -6.397113 -1.855876 3.877561 0
M  V30 47 H -6.120766 -4.323386 3.935796 0
M  V30 48 H -4.157228 -5.361420 2.779342 0
M  V30 49 H -2.583873 -3.897827 1.636011 0
M  V30 50 H 1.123805 0.214558 -2.394167 0
M  V30 END ATOM
M  V30 BEGIN BOND
M  V30 1 1 1 2
M  V30 2 1 2 3
M  V30 3 2 3 4
M  V30 4 1 3 5
M  V30 5 2 5 6
M  V30 6 1 6 7
M  V30 7 2 7 8
M  V30 8 1 8 9
M  V30 9 1 8 10
M  V30 10 1 10 11
M  V30 11 1 11 12
M  V30 12 2 12 13
M  V30 13 1 13 14
M  V30 14 1 14 15
M  V30 15 1 15 16
M  V30 16 2 14 17
M  V30 17 1 17 18
M  V30 18 2 18 19
M  V30 19 1 19 20
M  V30 20 2 20 21
M  V30 21 1 21 22
M  V30 22 1 22 23
M  V30 23 2 23 24
M  V30 24 1 24 25
M  V30 25 2 25 26
M  V30 26 1 26 27
M  V30 27 2 27 28
M  V30 28 2 10 29
M  V30 29 1 29 5
M  V30 30 1 19 12
M  V30 31 1 28 23
M  V30 32 1 22 18
M  V30 33 1 1 30
M  V30 34 1 1 31
M  V30 35 1 1 32
M  V30 36 1 2 33
M  V30 37 1 6 34
M  V30 38 1 7 35
M  V30 39 1 9 36
M  V30 40 1 9 37
M  V30 41 1 9 38
M  V30 42 1 11 39
M  V30 43 1 15 40
M  V30 44 1 16 41
M  V30 45 1 16 42
M  V30 46 1 16 43
M  V30 47 1 20 44
M  V30 48 1 24 45
M  V30 49 1 25 46
M  V30 50 1 26 47
M  V30 51 1 27 48
M  V30 52 1 28 49
M  V30 53 1 29 50
M  V30 END BOND
M  V30 END CTAB
M  END
>  <Dataset>  (358) 
ChEMBL_Kinases

>  <Ligand_Instance>  (358) 
nan

>  <PDB_ID>  (358) 
nan

>  <Standardized_SMILES>  (358) 
CNC(=O)c1ccc(C)c(Nc2nc(NC)nc3c2cnn3-c2ccccc2)c1

>  <Name>  (358) 
nan

>  <Pocket>  (358) 
nan

>  <ATP_Site>  (358) 
nan

>  <Peripheral>  (358) 
nan

>  <Num_H_Atoms_ProtBoundConf>  (358) 
nan

>  <Num_Resolved_Atoms>  (358) 
nan

>  <Num_Not_Resolved_Atoms>  (358) 
nan

$$$$
CHEMBL4126332
     RDKit          3D

  0  0  0  0  0  0  0  0  0  0999 V3000
M  V30 BEGIN CTAB
M  V30 COUNTS 56 60 0 0 0
M  V30 BEGIN ATOM
M  V30 1 C 2.102536 0.788388 2.812499 0
M  V30 2 O 2.475146 -0.461666 2.762811 0
M  V30 3 C 2.836838 -1.681794 2.734384 0
M  V30 4 C 2.909479 -2.334564 3.954450 0
M  V30 5 C 3.284562 -3.660336 4.115060 0
M  V30 6 C 3.597623 -4.328442 2.932501 0
M  V30 7 C 3.543728 -3.732327 1.690934 0
M  V30 8 C 3.162434 -2.407173 1.594041 0
M  V30 9 C 3.104770 -1.793740 0.294123 0
M  V30 10 C 4.116653 -1.908858 -0.668632 0
M  V30 11 N 4.047726 -1.323994 -1.900611 0
M  V30 12 C 2.952054 -0.587353 -2.234613 0
M  V30 13 N 2.619005 0.080448 -3.332239 0
M  V30 14 C 1.399750 0.676681 -3.201418 0
M  V30 15 C 0.992349 0.326744 -1.924666 0
M  V30 16 C -0.287100 0.755022 -1.364385 0
M  V30 17 C -0.656533 2.073044 -1.495297 0
M  V30 18 C -1.852042 2.551352 -0.995466 0
M  V30 19 C -2.626542 1.602815 -0.364550 0
M  V30 20 C -3.889494 2.080949 0.168698 0
M  V30 21 N -4.431266 3.391455 0.137962 0
M  V30 22 O -4.941479 1.831883 0.765569 0
M  V30 23 C -2.339817 0.266988 -0.186304 0
M  V30 24 C -3.205832 -0.697393 0.492104 0
M  V30 25 C -4.137408 -1.408810 -0.459121 0
M  V30 26 C -3.924028 -2.887277 -0.231502 0
M  V30 27 C -3.568700 -2.891300 1.261047 0
M  V30 28 C -2.513061 -1.774963 1.254681 0
M  V30 29 C -1.117608 -0.118470 -0.722828 0
M  V30 30 C 1.962386 -0.468067 -1.308690 0
M  V30 31 C 1.984368 -1.047035 -0.032650 0
M  V30 32 H 1.598901 1.122523 1.843046 0
M  V30 33 H 1.280831 1.044911 3.568115 0
M  V30 34 H 2.910313 1.578117 2.917294 0
M  V30 35 H 2.673219 -1.853101 4.904262 0
M  V30 36 H 3.345957 -4.178735 5.047660 0
M  V30 37 H 3.895625 -5.345418 2.944509 0
M  V30 38 H 3.798904 -4.295802 0.783003 0
M  V30 39 H 4.957808 -2.513818 -0.324743 0
M  V30 40 H 3.234902 0.127999 -4.180387 0
M  V30 41 H 0.881635 1.280929 -3.932455 0
M  V30 42 H -0.004877 2.796069 -2.008753 0
M  V30 43 H -2.158092 3.582218 -1.089409 0
M  V30 44 H -3.665745 4.120297 0.170979 0
M  V30 45 H -3.988936 4.329803 0.153874 0
M  V30 46 H -3.884867 -0.183468 1.237416 0
M  V30 47 H -5.197552 -1.164589 -0.307429 0
M  V30 48 H -3.799775 -1.172040 -1.502239 0
M  V30 49 H -2.995303 -3.218468 -0.753896 0
M  V30 50 H -4.783110 -3.515487 -0.470600 0
M  V30 51 H -4.405172 -2.568921 1.893809 0
M  V30 52 H -3.116716 -3.863098 1.551449 0
M  V30 53 H -2.364283 -1.539846 2.329108 0
M  V30 54 H -1.634716 -2.219798 0.789224 0
M  V30 55 H -0.758741 -1.124964 -0.666265 0
M  V30 56 H 1.202798 -0.943381 0.677381 0
M  V30 END ATOM
M  V30 BEGIN BOND
M  V30 1 1 1 2
M  V30 2 1 2 3
M  V30 3 2 3 4
M  V30 4 1 4 5
M  V30 5 2 5 6
M  V30 6 1 6 7
M  V30 7 2 7 8
M  V30 8 1 8 9
M  V30 9 2 9 10
M  V30 10 1 10 11
M  V30 11 2 11 12
M  V30 12 1 12 13
M  V30 13 1 13 14
M  V30 14 2 14 15
M  V30 15 1 15 16
M  V30 16 2 16 17
M  V30 17 1 17 18
M  V30 18 2 18 19
M  V30 19 1 19 20
M  V30 20 1 20 21
M  V30 21 2 20 22
M  V30 22 1 19 23
M  V30 23 1 23 24
M  V30 24 1 24 25
M  V30 25 1 25 26
M  V30 26 1 26 27
M  V30 27 1 27 28
M  V30 28 2 23 29
M  V30 29 1 15 30
M  V30 30 2 30 31
M  V30 31 1 8 3
M  V30 32 1 31 9
M  V30 33 1 30 12
M  V30 34 1 29 16
M  V30 35 1 28 24
M  V30 36 1 1 32
M  V30 37 1 1 33
M  V30 38 1 1 34
M  V30 39 1 4 35
M  V30 40 1 5 36
M  V30 41 1 6 37
M  V30 42 1 7 38
M  V30 43 1 10 39
M  V30 44 1 13 40
M  V30 45 1 14 41
M  V30 46 1 17 42
M  V30 47 1 18 43
M  V30 48 1 21 44
M  V30 49 1 21 45
M  V30 50 1 24 46
M  V30 51 1 25 47
M  V30 52 1 25 48
M  V30 53 1 26 49
M  V30 54 1 26 50
M  V30 55 1 27 51
M  V30 56 1 27 52
M  V30 57 1 28 53
M  V30 58 1 28 54
M  V30 59 1 29 55
M  V30 60 1 31 56
M  V30 END BOND
M  V30 END CTAB
M  END
>  <Dataset>  (359) 
ChEMBL_Kinases

>  <Ligand_Instance>  (359) 
nan

>  <PDB_ID>  (359) 
nan

>  <Standardized_SMILES>  (359) 
COc1ccccc1-c1cnc2[nH]cc(-c3ccc(C(N)=O)c(C4CCCC4)c3)c2c1

>  <Name>  (359) 
nan

>  <Pocket>  (359) 
nan

>  <ATP_Site>  (359) 
nan

>  <Peripheral>  (359) 
nan

>  <Num_H_Atoms_ProtBoundConf>  (359) 
nan

>  <Num_Resolved_Atoms>  (359) 
nan

>  <Num_Not_Resolved_Atoms>  (359) 
nan

$$$$
CHEMBL4793426
     RDKit          3D

  0  0  0  0  0  0  0  0  0  0999 V3000
M  V30 BEGIN CTAB
M  V30 COUNTS 33 35 0 0 0
M  V30 BEGIN ATOM
M  V30 1 N 3.434770 -6.455747 -1.193858 0
M  V30 2 C 2.945719 -5.719407 -0.419125 0
M  V30 3 C 2.355167 -4.798209 0.530099 0
M  V30 4 C 2.434972 -5.132089 1.868196 0
M  V30 5 C 1.875975 -4.263293 2.788979 0
M  V30 6 C 1.272918 -3.116292 2.313624 0
M  V30 7 C 1.200500 -2.792725 0.955187 0
M  V30 8 C 1.758678 -3.660702 0.038950 0
M  V30 9 N 0.552812 -1.581789 0.591293 0
M  V30 10 C -0.031771 -0.666014 1.503594 0
M  V30 11 C -0.600707 0.420111 1.026855 0
M  V30 12 C -0.700645 0.798236 -0.368837 0
M  V30 13 O -0.332837 0.294672 -1.451529 0
M  V30 14 C -1.370449 2.044636 -0.703841 0
M  V30 15 C -1.902568 2.858971 0.261785 0
M  V30 16 C -2.541030 4.040692 -0.012910 0
M  V30 17 C -2.684438 4.481877 -1.305563 0
M  V30 18 C -2.172850 3.711870 -2.324317 0
M  V30 19 C -1.531599 2.515504 -1.982010 0
M  V30 20 Br -0.858579 1.521794 -3.457501 0
M  V30 21 C 0.058161 -1.027868 2.910688 0
M  V30 22 O -0.461883 -0.214495 3.731368 0
M  V30 23 N 0.703982 -2.240010 3.306423 0
M  V30 24 H 2.927107 -6.056872 2.177385 0
M  V30 25 H 1.909827 -4.475605 3.851623 0
M  V30 26 H 1.708111 -3.420065 -1.012625 0
M  V30 27 H 0.545606 -1.422716 -0.432340 0
M  V30 28 H -0.992102 1.008472 1.811231 0
M  V30 29 H -1.882655 2.674372 1.305021 0
M  V30 30 H -2.977051 4.715909 0.722647 0
M  V30 31 H -3.180442 5.406892 -1.567720 0
M  V30 32 H -2.277124 4.043696 -3.341475 0
M  V30 33 H 0.755405 -2.475879 4.313810 0
M  V30 END ATOM
M  V30 BEGIN BOND
M  V30 1 3 1 2
M  V30 2 1 2 3
M  V30 3 2 3 4
M  V30 4 1 4 5
M  V30 5 2 5 6
M  V30 6 1 6 7
M  V30 7 2 7 8
M  V30 8 1 7 9
M  V30 9 1 9 10
M  V30 10 2 10 11
M  V30 11 1 11 12
M  V30 12 2 12 13
M  V30 13 1 12 14
M  V30 14 2 14 15
M  V30 15 1 15 16
M  V30 16 2 16 17
M  V30 17 1 17 18
M  V30 18 2 18 19
M  V30 19 1 19 20
M  V30 20 1 10 21
M  V30 21 2 21 22
M  V30 22 1 21 23
M  V30 23 1 8 3
M  V30 24 1 19 14
M  V30 25 1 23 6
M  V30 26 1 4 24
M  V30 27 1 5 25
M  V30 28 1 8 26
M  V30 29 1 9 27
M  V30 30 1 11 28
M  V30 31 1 15 29
M  V30 32 1 16 30
M  V30 33 1 17 31
M  V30 34 1 18 32
M  V30 35 1 23 33
M  V30 END BOND
M  V30 END CTAB
M  END
>  <Dataset>  (360) 
ChEMBL_Kinases

>  <Ligand_Instance>  (360) 
nan

>  <PDB_ID>  (360) 
nan

>  <Standardized_SMILES>  (360) 
N#Cc1ccc2c(c1)N/C(=C\C(=O)c1ccccc1Br)C(=O)N2

>  <Name>  (360) 
nan

>  <Pocket>  (360) 
nan

>  <ATP_Site>  (360) 
nan

>  <Peripheral>  (360) 
nan

>  <Num_H_Atoms_ProtBoundConf>  (360) 
nan

>  <Num_Resolved_Atoms>  (360) 
nan

>  <Num_Not_Resolved_Atoms>  (360) 
nan

$$$$
CHEMBL4126272
     RDKit          3D

  0  0  0  0  0  0  0  0  0  0999 V3000
M  V30 BEGIN CTAB
M  V30 COUNTS 49 53 0 0 0
M  V30 BEGIN ATOM
M  V30 1 O 2.510262 -5.962091 1.697900 0
M  V30 2 C 2.278847 -5.759813 0.487299 0
M  V30 3 O 2.040348 -6.872376 -0.324362 0
M  V30 4 C 2.262975 -4.401458 -0.039459 0
M  V30 5 C 2.511321 -3.377064 0.850149 0
M  V30 6 C 2.506357 -2.074241 0.395675 0
M  V30 7 C 2.262236 -1.736436 -0.922585 0
M  V30 8 C 2.262476 -0.348170 -1.379321 0
M  V30 9 C 2.881010 0.120276 -2.536161 0
M  V30 10 N 2.680836 1.445516 -2.647168 0
M  V30 11 C 1.947997 1.889088 -1.604754 0
M  V30 12 N 1.460304 3.075010 -1.203838 0
M  V30 13 C 0.734063 3.244403 -0.082048 0
M  V30 14 C 0.447556 2.158687 0.739328 0
M  V30 15 C -0.339920 2.256678 1.983809 0
M  V30 16 C -0.027198 3.309062 2.826286 0
M  V30 17 C -0.730220 3.467363 4.024004 0
M  V30 18 C -1.730013 2.573959 4.357302 0
M  V30 19 C -2.018080 1.539285 3.501315 0
M  V30 20 C -1.350119 1.345429 2.310109 0
M  V30 21 O -1.533831 0.367933 1.375153 0
M  V30 22 C -2.430739 -0.662451 1.393845 0
M  V30 23 C -2.314047 -1.953350 1.903336 0
M  V30 24 C -3.370791 -2.834542 1.805805 0
M  V30 25 C -4.573186 -2.472389 1.204516 0
M  V30 26 C -4.700523 -1.199375 0.697277 0
M  V30 27 C -3.639406 -0.301408 0.790497 0
M  V30 28 C 0.952916 0.930927 0.323523 0
M  V30 29 C 1.693275 0.784333 -0.828653 0
M  V30 30 C 2.017278 -2.808127 -1.779850 0
M  V30 31 C 2.016730 -4.119683 -1.349735 0
M  V30 32 H 1.480814 -7.658651 0.031919 0
M  V30 33 H 2.711490 -3.585729 1.908506 0
M  V30 34 H 2.707750 -1.303566 1.136918 0
M  V30 35 H 3.441327 -0.466331 -3.251854 0
M  V30 36 H 3.008761 2.088198 -3.390075 0
M  V30 37 H 0.348266 4.222292 0.222032 0
M  V30 38 H 0.755301 4.029648 2.591587 0
M  V30 39 H -0.450707 4.310054 4.657044 0
M  V30 40 H -2.277010 2.690080 5.280562 0
M  V30 41 H -2.783453 0.818472 3.711286 0
M  V30 42 H -1.357537 -2.130562 2.341829 0
M  V30 43 H -3.191380 -3.803644 2.224262 0
M  V30 44 H -5.381773 -3.193894 1.146866 0
M  V30 45 H -5.645301 -0.952949 0.238519 0
M  V30 46 H -3.870951 0.675048 0.348967 0
M  V30 47 H 0.746272 0.068694 0.941962 0
M  V30 48 H 1.815993 -2.604679 -2.841995 0
M  V30 49 H 1.826326 -4.934907 -2.021927 0
M  V30 END ATOM
M  V30 BEGIN BOND
M  V30 1 2 1 2
M  V30 2 1 2 3
M  V30 3 1 2 4
M  V30 4 2 4 5
M  V30 5 1 5 6
M  V30 6 2 6 7
M  V30 7 1 7 8
M  V30 8 2 8 9
M  V30 9 1 9 10
M  V30 10 1 10 11
M  V30 11 2 11 12
M  V30 12 1 12 13
M  V30 13 2 13 14
M  V30 14 1 14 15
M  V30 15 2 15 16
M  V30 16 1 16 17
M  V30 17 2 17 18
M  V30 18 1 18 19
M  V30 19 2 19 20
M  V30 20 1 20 21
M  V30 21 1 21 22
M  V30 22 2 22 23
M  V30 23 1 23 24
M  V30 24 2 24 25
M  V30 25 1 25 26
M  V30 26 2 26 27
M  V30 27 1 14 28
M  V30 28 2 28 29
M  V30 29 1 7 30
M  V30 30 2 30 31
M  V30 31 1 31 4
M  V30 32 1 29 8
M  V30 33 1 29 11
M  V30 34 1 20 15
M  V30 35 1 27 22
M  V30 36 1 3 32
M  V30 37 1 5 33
M  V30 38 1 6 34
M  V30 39 1 9 35
M  V30 40 1 10 36
M  V30 41 1 13 37
M  V30 42 1 16 38
M  V30 43 1 17 39
M  V30 44 1 18 40
M  V30 45 1 19 41
M  V30 46 1 23 42
M  V30 47 1 24 43
M  V30 48 1 25 44
M  V30 49 1 26 45
M  V30 50 1 27 46
M  V30 51 1 28 47
M  V30 52 1 30 48
M  V30 53 1 31 49
M  V30 END BOND
M  V30 END CTAB
M  END
>  <Dataset>  (361) 
ChEMBL_Kinases

>  <Ligand_Instance>  (361) 
nan

>  <PDB_ID>  (361) 
nan

>  <Standardized_SMILES>  (361) 
O=C(O)c1ccc(-c2c[nH]c3ncc(-c4ccccc4Oc4ccccc4)cc23)cc1

>  <Name>  (361) 
nan

>  <Pocket>  (361) 
nan

>  <ATP_Site>  (361) 
nan

>  <Peripheral>  (361) 
nan

>  <Num_H_Atoms_ProtBoundConf>  (361) 
nan

>  <Num_Resolved_Atoms>  (361) 
nan

>  <Num_Not_Resolved_Atoms>  (361) 
nan

$$$$
CHEMBL4793479
     RDKit          3D

  0  0  0  0  0  0  0  0  0  0999 V3000
M  V30 BEGIN CTAB
M  V30 COUNTS 51 54 0 0 0
M  V30 BEGIN ATOM
M  V30 1 C 0.590269 -1.891997 6.583921 0
M  V30 2 N 1.084774 -1.372600 5.316425 0
M  V30 3 C 0.231003 -1.532853 4.195257 0
M  V30 4 O -0.771723 -2.106493 4.636160 0
M  V30 5 C 0.631948 -1.054820 2.883469 0
M  V30 6 C 1.868289 -0.470477 2.750014 0
M  V30 7 N 2.308026 -0.018973 1.569685 0
M  V30 8 C 1.598758 -0.092520 0.432821 0
M  V30 9 N 1.935798 0.320583 -0.882544 0
M  V30 10 C 1.920240 1.642485 -1.386832 0
M  V30 11 C 2.001225 2.101169 -2.688791 0
M  V30 12 C 2.006490 3.400957 -3.060998 0
M  V30 13 C 1.925927 4.415346 -2.101603 0
M  V30 14 N 1.922631 5.724826 -2.235461 0
M  V30 15 C 1.860446 6.546763 -1.407949 0
M  V30 16 S 1.765607 5.471029 0.182575 0
M  V30 17 C 1.842378 3.955069 -0.774541 0
M  V30 18 C 1.837946 2.602796 -0.407226 0
M  V30 19 C 0.337141 -0.688634 0.570639 0
M  V30 20 C -0.172923 -1.177612 1.775275 0
M  V30 21 N -1.454338 -1.742627 1.809106 0
M  V30 22 C -2.328947 -1.916385 0.673452 0 CFG=2
M  V30 23 C -3.700196 -2.418562 1.068858 0
M  V30 24 O -4.491093 -2.564180 -0.078453 0
M  V30 25 C -1.713591 -2.878211 -0.320423 0
M  V30 26 C -1.688175 -2.858757 -1.690731 0
M  V30 27 C -1.042286 -3.857665 -2.383780 0
M  V30 28 C -0.401554 -4.907770 -1.746522 0
M  V30 29 C -0.437001 -4.912989 -0.361763 0
M  V30 30 C -1.078035 -3.922673 0.361533 0
M  V30 31 H 0.463464 -2.994866 6.515920 0
M  V30 32 H -0.427906 -1.474747 6.724570 0
M  V30 33 H 1.182951 -1.583077 7.453781 0
M  V30 34 H 2.031100 -0.915335 5.304775 0
M  V30 35 H 2.609728 -0.298046 3.500324 0
M  V30 36 H 2.185963 -0.545860 -1.358452 0
M  V30 37 H 2.061943 1.266384 -3.404723 0
M  V30 38 H 2.074572 3.610689 -4.134572 0
M  V30 39 H 1.859824 7.678873 -1.539147 0
M  V30 40 H 1.766156 2.481880 0.686260 0
M  V30 41 H -0.300763 -0.784281 -0.294558 0
M  V30 42 H -1.886890 -2.091581 2.689241 0
M  V30 43 H -2.456111 -0.938689 0.182892 0
M  V30 44 H -4.159902 -1.622432 1.693937 0
M  V30 45 H -3.671235 -3.347733 1.644270 0
M  V30 46 H -5.336757 -2.104462 0.040116 0
M  V30 47 H -2.215350 -2.001844 -2.082286 0
M  V30 48 H -1.066191 -3.774981 -3.456530 0
M  V30 49 H 0.099905 -5.683140 -2.304189 0
M  V30 50 H 0.069329 -5.741685 0.137624 0
M  V30 51 H -1.025161 -4.055997 1.443832 0
M  V30 END ATOM
M  V30 BEGIN BOND
M  V30 1 1 1 2
M  V30 2 1 2 3
M  V30 3 2 3 4
M  V30 4 1 3 5
M  V30 5 2 5 6
M  V30 6 1 6 7
M  V30 7 2 7 8
M  V30 8 1 8 9
M  V30 9 1 9 10
M  V30 10 2 10 11
M  V30 11 1 11 12
M  V30 12 2 12 13
M  V30 13 1 13 14
M  V30 14 2 14 15
M  V30 15 1 15 16
M  V30 16 1 16 17
M  V30 17 2 17 18
M  V30 18 1 8 19
M  V30 19 2 19 20
M  V30 20 1 20 21
M  V30 21 1 21 22
M  V30 22 1 22 23
M  V30 23 1 23 24
M  V30 24 1 22 25
M  V30 25 2 25 26
M  V30 26 1 26 27
M  V30 27 2 27 28
M  V30 28 1 28 29
M  V30 29 2 29 30
M  V30 30 1 20 5
M  V30 31 1 30 25
M  V30 32 1 18 10
M  V30 33 1 17 13
M  V30 34 1 1 31
M  V30 35 1 1 32
M  V30 36 1 1 33
M  V30 37 1 2 34
M  V30 38 1 6 35
M  V30 39 1 9 36
M  V30 40 1 11 37
M  V30 41 1 12 38
M  V30 42 1 15 39
M  V30 43 1 18 40
M  V30 44 1 19 41
M  V30 45 1 21 42
M  V30 46 1 22 43 CFG=3
M  V30 47 1 23 44
M  V30 48 1 23 45
M  V30 49 1 24 46
M  V30 50 1 26 47
M  V30 51 1 27 48
M  V30 52 1 28 49
M  V30 53 1 29 50
M  V30 54 1 30 51
M  V30 END BOND
M  V30 END CTAB
M  END
>  <Dataset>  (362) 
ChEMBL_Kinases

>  <Ligand_Instance>  (362) 
nan

>  <PDB_ID>  (362) 
nan

>  <Standardized_SMILES>  (362) 
CNC(=O)c1cnc(Nc2ccc3ncsc3c2)cc1N[C@H](CO)c1ccccc1

>  <Name>  (362) 
nan

>  <Pocket>  (362) 
nan

>  <ATP_Site>  (362) 
nan

>  <Peripheral>  (362) 
nan

>  <Num_H_Atoms_ProtBoundConf>  (362) 
nan

>  <Num_Resolved_Atoms>  (362) 
nan

>  <Num_Not_Resolved_Atoms>  (362) 
nan

$$$$
CHEMBL4126111
     RDKit          3D

  0  0  0  0  0  0  0  0  0  0999 V3000
M  V30 BEGIN CTAB
M  V30 COUNTS 55 58 0 0 0
M  V30 BEGIN ATOM
M  V30 1 C 2.450564 -0.492193 -3.604344 0
M  V30 2 C 2.432736 -0.598670 -2.275792 0
M  V30 3 C 3.280359 -1.657020 -1.628079 0
M  V30 4 C 3.819048 -1.190827 -0.297153 0
M  V30 5 C 2.733305 -0.860047 0.700803 0
M  V30 6 C 1.445178 -0.712871 -0.085474 0 CFG=1
M  V30 7 C 0.252860 -0.428530 0.739122 0 CFG=2
M  V30 8 C 0.567568 -0.610964 2.198021 0
M  V30 9 C -0.860451 -1.427397 0.449191 0
M  V30 10 C -1.975156 -1.289011 1.406821 0
M  V30 11 C -2.374643 -0.057248 1.680924 0
M  V30 12 O -1.705691 0.928915 1.043710 0
M  V30 13 C -0.384912 0.917493 0.536490 0 CFG=1
M  V30 14 C 0.323817 2.029455 1.315925 0
M  V30 15 C -0.532097 1.309480 -0.905434 0
M  V30 16 C 0.370941 0.592498 -1.862823 0
M  V30 17 C 1.681850 0.185015 -1.244849 0 CFG=2
M  V30 18 C 2.486180 1.415893 -1.015446 0
M  V30 19 C -3.473053 0.125591 2.621876 0
M  V30 20 O -3.839764 1.300028 2.870884 0
M  V30 21 C -4.146283 -1.009051 3.271492 0
M  V30 22 C -3.706464 -2.221433 2.961311 0
M  V30 23 N -4.284746 -3.405132 3.531531 0
M  V30 24 C -4.750723 -4.419608 2.617717 0
M  V30 25 C -2.599892 -2.457505 2.016381 0
M  V30 26 O -2.211849 -3.626848 1.748533 0
M  V30 27 H 1.944578 0.169007 -4.297749 0
M  V30 28 H 1.808945 0.301828 -4.020580 0
M  V30 29 H 4.178152 -1.775490 -2.282590 0
M  V30 30 H 2.797310 -2.641764 -1.597087 0
M  V30 31 H 4.514297 -0.348198 -0.478985 0
M  V30 32 H 4.405723 -2.023975 0.114574 0
M  V30 33 H 3.032900 -0.005504 1.288270 0
M  V30 34 H 2.577526 -1.719323 1.402450 0
M  V30 35 H 1.335982 -1.753003 -0.485461 0
M  V30 36 H 0.766841 -1.713974 2.341581 0
M  V30 37 H -0.251483 -0.380732 2.887706 0
M  V30 38 H 1.449198 -0.099440 2.567907 0
M  V30 39 H -1.286086 -1.311104 -0.554749 0
M  V30 40 H -0.449833 -2.463291 0.564858 0
M  V30 41 H 1.335125 1.722084 1.657313 0
M  V30 42 H -0.208635 2.355388 2.208421 0
M  V30 43 H 0.373476 2.949139 0.661845 0
M  V30 44 H -1.559572 1.190256 -1.308703 0
M  V30 45 H -0.344847 2.417391 -0.976867 0
M  V30 46 H 0.612691 1.306564 -2.688550 0
M  V30 47 H -0.081196 -0.287029 -2.359406 0
M  V30 48 H 1.860221 2.347046 -1.121886 0
M  V30 49 H 2.994386 1.519329 -0.063907 0
M  V30 50 H 3.294247 1.592209 -1.785123 0
M  V30 51 H -4.958642 -0.887591 3.968192 0
M  V30 52 H -4.427959 -3.659318 4.554441 0
M  V30 53 H -4.057303 -5.277427 2.506333 0
M  V30 54 H -5.712331 -4.846648 2.985323 0
M  V30 55 H -4.997310 -3.957377 1.628335 0
M  V30 END ATOM
M  V30 BEGIN BOND
M  V30 1 2 1 2
M  V30 2 1 2 3
M  V30 3 1 3 4
M  V30 4 1 4 5
M  V30 5 1 5 6
M  V30 6 1 6 7
M  V30 7 1 7 8 CFG=1
M  V30 8 1 7 9
M  V30 9 1 9 10
M  V30 10 2 10 11
M  V30 11 1 11 12
M  V30 12 1 12 13
M  V30 13 1 13 14 CFG=1
M  V30 14 1 13 15
M  V30 15 1 15 16
M  V30 16 1 16 17
M  V30 17 1 17 18 CFG=1
M  V30 18 1 11 19
M  V30 19 2 19 20
M  V30 20 1 19 21
M  V30 21 2 21 22
M  V30 22 1 22 23
M  V30 23 1 23 24
M  V30 24 1 22 25
M  V30 25 2 25 26
M  V30 26 1 17 2
M  V30 27 1 17 6
M  V30 28 1 13 7
M  V30 29 1 25 10
M  V30 30 1 1 27
M  V30 31 1 1 28
M  V30 32 1 3 29
M  V30 33 1 3 30
M  V30 34 1 4 31
M  V30 35 1 4 32
M  V30 36 1 5 33
M  V30 37 1 5 34
M  V30 38 1 6 35 CFG=3
M  V30 39 1 8 36
M  V30 40 1 8 37
M  V30 41 1 8 38
M  V30 42 1 9 39
M  V30 43 1 9 40
M  V30 44 1 14 41
M  V30 45 1 14 42
M  V30 46 1 14 43
M  V30 47 1 15 44
M  V30 48 1 15 45
M  V30 49 1 16 46
M  V30 50 1 16 47
M  V30 51 1 18 48
M  V30 52 1 18 49
M  V30 53 1 18 50
M  V30 54 1 21 51
M  V30 55 1 23 52
M  V30 56 1 24 53
M  V30 57 1 24 54
M  V30 58 1 24 55
M  V30 END BOND
M  V30 END CTAB
M  END
>  <Dataset>  (363) 
ChEMBL_Kinases

>  <Ligand_Instance>  (363) 
nan

>  <PDB_ID>  (363) 
nan

>  <Standardized_SMILES>  (363) 
C=C1CCC[C@H]2[C@]3(C)CC4=C(O[C@]3(C)CC[C@]12C)C(=O)C=C(NC)C4=O

>  <Name>  (363) 
nan

>  <Pocket>  (363) 
nan

>  <ATP_Site>  (363) 
nan

>  <Peripheral>  (363) 
nan

>  <Num_H_Atoms_ProtBoundConf>  (363) 
nan

>  <Num_Resolved_Atoms>  (363) 
nan

>  <Num_Not_Resolved_Atoms>  (363) 
nan

$$$$
CHEMBL4793480
     RDKit          3D

  0  0  0  0  0  0  0  0  0  0999 V3000
M  V30 BEGIN CTAB
M  V30 COUNTS 60 63 0 0 0
M  V30 BEGIN ATOM
M  V30 1 C 3.131454 -2.069453 6.759711 0
M  V30 2 C 3.419546 -0.811312 6.479566 0
M  V30 3 C 3.658751 -0.861031 5.054539 0
M  V30 4 O 3.507734 -2.045974 4.638183 0
M  V30 5 N 4.009898 0.238745 4.227568 0
M  V30 6 C 4.198724 1.614778 4.681555 0
M  V30 7 C 4.703679 2.397336 3.467555 0
M  V30 8 C 3.713355 2.230779 2.360267 0
M  V30 9 C 3.449361 0.952767 2.030587 0
M  V30 10 C 2.498380 0.662021 0.964920 0
M  V30 11 C 2.136701 -0.593343 0.519985 0
M  V30 12 C 1.226452 -0.825881 -0.491532 0
M  V30 13 C 0.618708 0.248105 -1.121133 0
M  V30 14 C -0.343249 -0.068584 -2.172691 0
M  V30 15 C -1.683096 -0.331863 -1.523886 0
M  V30 16 O -2.719903 0.355647 -1.838492 0
M  V30 17 N -2.020580 -1.289407 -0.543732 0
M  V30 18 C -3.401748 -1.192661 -0.217124 0
M  V30 19 C -4.201878 -2.033185 -0.999822 0
M  V30 20 C -5.523848 -1.831820 -0.571189 0
M  V30 21 C -6.775170 -2.503320 -1.078509 0
M  V30 22 C -6.698038 -3.991215 -1.208789 0
M  V30 23 C -6.665951 -3.116392 -2.423068 0
M  V30 24 N -5.476189 -0.916342 0.411965 0
M  V30 25 N -4.218257 -0.531184 0.629563 0
M  V30 26 C -0.043656 -1.215007 -3.047474 0
M  V30 27 C -1.172122 -1.366586 -4.062644 0
M  V30 28 C 1.282239 -1.199429 -3.724971 0
M  V30 29 C 0.999868 1.489644 -0.656281 0
M  V30 30 N 1.892316 1.684714 0.334169 0
M  V30 31 C 4.178547 -0.086917 2.814049 0
M  V30 32 H 3.048211 -2.996625 6.229255 0
M  V30 33 H 3.001584 -3.089311 6.367025 0
M  V30 34 H 3.272226 -0.630928 7.522013 0
M  V30 35 H 3.267423 2.051342 5.061084 0
M  V30 36 H 5.026759 1.599642 5.422191 0
M  V30 37 H 5.652135 1.940407 3.109932 0
M  V30 38 H 4.846925 3.447461 3.737229 0
M  V30 39 H 3.178641 3.004332 1.788185 0
M  V30 40 H 2.606284 -1.438498 1.004648 0
M  V30 41 H 1.044527 -1.865919 -0.741106 0
M  V30 42 H -0.505296 0.866956 -2.790372 0
M  V30 43 H -1.250463 -1.906166 -0.209489 0
M  V30 44 H -4.043219 -2.755991 -1.809302 0
M  V30 45 H -7.703394 -2.066962 -0.696599 0
M  V30 46 H -5.786320 -4.476726 -0.845589 0
M  V30 47 H -7.647577 -4.561657 -1.071740 0
M  V30 48 H -5.698069 -3.136418 -2.955771 0
M  V30 49 H -7.560658 -3.077377 -3.074233 0
M  V30 50 H -6.308999 -0.564201 0.926875 0
M  V30 51 H -0.106599 -2.159160 -2.432958 0
M  V30 52 H -0.810892 -1.889657 -4.973106 0
M  V30 53 H -2.041127 -1.897298 -3.642736 0
M  V30 54 H -1.545637 -0.380382 -4.402839 0
M  V30 55 H 1.094462 -0.996075 -4.808858 0
M  V30 56 H 1.921509 -0.353843 -3.395734 0
M  V30 57 H 1.754350 -2.178247 -3.688224 0
M  V30 58 H 0.517834 2.337135 -1.159899 0
M  V30 59 H 3.798838 -1.093976 2.575246 0
M  V30 60 H 5.251187 -0.070454 2.526895 0
M  V30 END ATOM
M  V30 BEGIN BOND
M  V30 1 2 1 2
M  V30 2 1 2 3
M  V30 3 2 3 4
M  V30 4 1 3 5
M  V30 5 1 5 6
M  V30 6 1 6 7
M  V30 7 1 7 8
M  V30 8 2 8 9
M  V30 9 1 9 10
M  V30 10 2 10 11
M  V30 11 1 11 12
M  V30 12 2 12 13
M  V30 13 1 13 14
M  V30 14 1 14 15
M  V30 15 2 15 16
M  V30 16 1 15 17
M  V30 17 1 17 18
M  V30 18 1 18 19
M  V30 19 2 19 20
M  V30 20 1 20 21
M  V30 21 1 21 22
M  V30 22 1 22 23
M  V30 23 1 20 24
M  V30 24 1 24 25
M  V30 25 1 14 26
M  V30 26 1 26 27
M  V30 27 1 26 28
M  V30 28 1 13 29
M  V30 29 2 29 30
M  V30 30 1 9 31
M  V30 31 1 31 5
M  V30 32 1 30 10
M  V30 33 2 25 18
M  V30 34 1 23 21
M  V30 35 1 1 32
M  V30 36 1 1 33
M  V30 37 1 2 34
M  V30 38 1 6 35
M  V30 39 1 6 36
M  V30 40 1 7 37
M  V30 41 1 7 38
M  V30 42 1 8 39
M  V30 43 1 11 40
M  V30 44 1 12 41
M  V30 45 1 14 42
M  V30 46 1 17 43
M  V30 47 1 19 44
M  V30 48 1 21 45
M  V30 49 1 22 46
M  V30 50 1 22 47
M  V30 51 1 23 48
M  V30 52 1 23 49
M  V30 53 1 24 50
M  V30 54 1 26 51
M  V30 55 1 27 52
M  V30 56 1 27 53
M  V30 57 1 27 54
M  V30 58 1 28 55
M  V30 59 1 28 56
M  V30 60 1 28 57
M  V30 61 1 29 58
M  V30 62 1 31 59
M  V30 63 1 31 60
M  V30 END BOND
M  V30 END CTAB
M  END
>  <Dataset>  (364) 
ChEMBL_Kinases

>  <Ligand_Instance>  (364) 
nan

>  <PDB_ID>  (364) 
nan

>  <Standardized_SMILES>  (364) 
C=CC(=O)N1CCC=C(c2ccc(C(C(=O)Nc3cc(C4CC4)[nH]n3)C(C)C)cn2)C1

>  <Name>  (364) 
nan

>  <Pocket>  (364) 
nan

>  <ATP_Site>  (364) 
nan

>  <Peripheral>  (364) 
nan

>  <Num_H_Atoms_ProtBoundConf>  (364) 
nan

>  <Num_Resolved_Atoms>  (364) 
nan

>  <Num_Not_Resolved_Atoms>  (364) 
nan

$$$$
CHEMBL4793501
     RDKit          3D

  0  0  0  0  0  0  0  0  0  0999 V3000
M  V30 BEGIN CTAB
M  V30 COUNTS 41 44 0 0 0
M  V30 BEGIN ATOM
M  V30 1 N 0.821090 -4.673689 1.080666 0
M  V30 2 C 1.021198 -3.270144 0.985350 0
M  V30 3 N 2.050554 -2.921148 0.206244 0
M  V30 4 C 2.383817 -1.623306 0.002481 0
M  V30 5 N 3.469714 -1.207427 -0.805501 0
M  V30 6 C 4.006894 0.062066 -1.239951 0
M  V30 7 C 3.102509 0.830812 -2.126503 0
M  V30 8 C 2.180987 1.824978 -1.908576 0
M  V30 9 C 1.443002 2.368080 -2.935619 0
M  V30 10 C 1.592775 1.936423 -4.255891 0
M  V30 11 C 2.508853 0.946266 -4.483996 0
M  V30 12 C 3.248413 0.401777 -3.455040 0
M  V30 13 C 1.573835 -0.726710 0.663687 0
M  V30 14 C 0.507379 -1.066514 1.471941 0
M  V30 15 N -0.409831 -0.406222 2.206463 0
M  V30 16 C -1.238811 -1.288537 2.809168 0
M  V30 17 C -2.373967 -0.989776 3.698184 0
M  V30 18 C -3.613491 -1.590095 3.601310 0
M  V30 19 C -4.575402 -1.190699 4.524611 0
M  V30 20 C -4.321797 -0.242835 5.496361 0
M  V30 21 C -3.066232 0.330584 5.554324 0
M  V30 22 O -2.851669 1.279226 6.545701 0
M  V30 23 C -2.082205 -0.037374 4.656562 0
M  V30 24 N -0.808763 -2.519315 2.426630 0
M  V30 25 N 0.245135 -2.376932 1.620121 0
M  V30 26 H 0.048730 -4.834685 0.370513 0
M  V30 27 H 1.149921 -5.542777 1.575002 0
M  V30 28 H 4.010583 -2.051525 -1.176125 0
M  V30 29 H 5.005220 -0.091478 -1.690866 0
M  V30 30 H 4.229221 0.704567 -0.330804 0
M  V30 31 H 2.135933 2.103388 -0.870343 0
M  V30 32 H 0.757122 3.143957 -2.596828 0
M  V30 33 H 0.981388 2.411160 -4.992057 0
M  V30 34 H 2.584491 0.650073 -5.518636 0
M  V30 35 H 3.932565 -0.377270 -3.822542 0
M  V30 36 H 1.719553 0.337158 0.601704 0
M  V30 37 H -3.754124 -2.319544 2.827177 0
M  V30 38 H -5.549119 -1.659340 4.451723 0
M  V30 39 H -5.113557 0.016622 6.175828 0
M  V30 40 H -2.267708 2.099240 6.433808 0
M  V30 41 H -1.131373 0.464918 4.778801 0
M  V30 END ATOM
M  V30 BEGIN BOND
M  V30 1 1 1 2
M  V30 2 2 2 3
M  V30 3 1 3 4
M  V30 4 1 4 5
M  V30 5 1 5 6
M  V30 6 1 6 7
M  V30 7 2 7 8
M  V30 8 1 8 9
M  V30 9 2 9 10
M  V30 10 1 10 11
M  V30 11 2 11 12
M  V30 12 2 4 13
M  V30 13 1 13 14
M  V30 14 2 14 15
M  V30 15 1 15 16
M  V30 16 1 16 17
M  V30 17 2 17 18
M  V30 18 1 18 19
M  V30 19 2 19 20
M  V30 20 1 20 21
M  V30 21 1 21 22
M  V30 22 2 21 23
M  V30 23 2 16 24
M  V30 24 1 24 25
M  V30 25 1 25 2
M  V30 26 1 12 7
M  V30 27 1 25 14
M  V30 28 1 23 17
M  V30 29 1 1 26
M  V30 30 1 1 27
M  V30 31 1 5 28
M  V30 32 1 6 29
M  V30 33 1 6 30
M  V30 34 1 8 31
M  V30 35 1 9 32
M  V30 36 1 10 33
M  V30 37 1 11 34
M  V30 38 1 12 35
M  V30 39 1 13 36
M  V30 40 1 18 37
M  V30 41 1 19 38
M  V30 42 1 20 39
M  V30 43 1 22 40
M  V30 44 1 23 41
M  V30 END BOND
M  V30 END CTAB
M  END
>  <Dataset>  (365) 
ChEMBL_Kinases

>  <Ligand_Instance>  (365) 
nan

>  <PDB_ID>  (365) 
nan

>  <Standardized_SMILES>  (365) 
Nc1nc(NCc2ccccc2)cc2nc(-c3cccc(O)c3)nn12

>  <Name>  (365) 
nan

>  <Pocket>  (365) 
nan

>  <ATP_Site>  (365) 
nan

>  <Peripheral>  (365) 
nan

>  <Num_H_Atoms_ProtBoundConf>  (365) 
nan

>  <Num_Resolved_Atoms>  (365) 
nan

>  <Num_Not_Resolved_Atoms>  (365) 
nan

$$$$
CHEMBL4793593
     RDKit          3D

  0  0  0  0  0  0  0  0  0  0999 V3000
M  V30 BEGIN CTAB
M  V30 COUNTS 43 46 0 0 0
M  V30 BEGIN ATOM
M  V30 1 C 0.440196 -5.353980 2.725351 0
M  V30 2 O 1.166193 -4.337577 3.395329 0
M  V30 3 C 1.776457 -3.334785 2.687677 0
M  V30 4 C 2.486796 -2.337463 3.318914 0
M  V30 5 C 3.106697 -1.321479 2.622791 0
M  V30 6 C 3.022518 -1.288122 1.250337 0
M  V30 7 N 3.571207 -0.353091 0.328045 0
M  V30 8 N 4.792618 -0.207985 -0.122007 0
M  V30 9 N 4.790171 0.805440 -0.960356 0
M  V30 10 C 3.558706 1.328044 -1.060381 0
M  V30 11 C 2.996646 2.382867 -1.781844 0
M  V30 12 N 1.687101 2.644343 -1.644588 0
M  V30 13 C 0.888247 1.907468 -0.818748 0
M  V30 14 N -0.497390 2.201466 -0.687850 0
M  V30 15 C -1.400632 1.500592 0.136429 0 CFG=1
M  V30 16 C -2.828766 2.005060 0.104510 0
M  V30 17 C -3.486031 0.995478 1.024673 0
M  V30 18 C -2.653429 -0.272708 0.918420 0 CFG=2
M  V30 19 N -1.871101 -0.426109 2.155200 0
M  V30 20 C -1.608563 0.041848 -0.163946 0
M  V30 21 N 1.438440 0.892397 -0.126991 0
M  V30 22 C 2.747040 0.579018 -0.221022 0
M  V30 23 C 2.306245 -2.291055 0.590478 0
M  V30 24 C 1.689295 -3.304253 1.300899 0
M  V30 25 H -0.070709 -5.961011 3.474097 0
M  V30 26 H -0.327174 -4.876602 2.065206 0
M  V30 27 H 1.129123 -5.943290 2.083956 0
M  V30 28 H 2.591674 -2.304718 4.392442 0
M  V30 29 H 3.680055 -0.504309 3.028073 0
M  V30 30 H 3.651627 2.957124 -2.434190 0
M  V30 31 H -0.900728 2.994843 -1.235758 0
M  V30 32 H -1.078450 1.562883 1.194964 0
M  V30 33 H -2.910405 3.037775 0.497755 0
M  V30 34 H -3.244372 1.922364 -0.934719 0
M  V30 35 H -3.391773 1.416395 2.052734 0
M  V30 36 H -4.543659 0.813016 0.752028 0
M  V30 37 H -3.246169 -1.161101 0.693449 0
M  V30 38 H -2.451425 -0.205553 2.984033 0
M  V30 39 H -1.481148 -1.377155 2.175780 0
M  V30 40 H -0.725579 -0.587663 -0.068913 0
M  V30 41 H -2.113262 -0.138671 -1.136627 0
M  V30 42 H 2.167134 -2.375128 -0.485646 0
M  V30 43 H 1.121547 -4.103994 0.818805 0
M  V30 END ATOM
M  V30 BEGIN BOND
M  V30 1 1 1 2
M  V30 2 1 2 3
M  V30 3 2 3 4
M  V30 4 1 4 5
M  V30 5 2 5 6
M  V30 6 1 6 7
M  V30 7 1 7 8
M  V30 8 2 8 9
M  V30 9 1 9 10
M  V30 10 2 10 11
M  V30 11 1 11 12
M  V30 12 2 12 13
M  V30 13 1 13 14
M  V30 14 1 14 15
M  V30 15 1 15 16
M  V30 16 1 16 17
M  V30 17 1 17 18
M  V30 18 1 18 19
M  V30 19 1 18 20
M  V30 20 1 13 21
M  V30 21 2 21 22
M  V30 22 1 6 23
M  V30 23 2 23 24
M  V30 24 1 24 3
M  V30 25 1 22 7
M  V30 26 1 22 10
M  V30 27 1 20 15
M  V30 28 1 1 25
M  V30 29 1 1 26
M  V30 30 1 1 27
M  V30 31 1 4 28
M  V30 32 1 5 29
M  V30 33 1 11 30
M  V30 34 1 14 31
M  V30 35 1 15 32 CFG=1
M  V30 36 1 16 33
M  V30 37 1 16 34
M  V30 38 1 17 35
M  V30 39 1 17 36
M  V30 40 1 18 37 CFG=3
M  V30 41 1 19 38
M  V30 42 1 19 39
M  V30 43 1 20 40
M  V30 44 1 20 41
M  V30 45 1 23 42
M  V30 46 1 24 43
M  V30 END BOND
M  V30 END CTAB
M  END
>  <Dataset>  (366) 
ChEMBL_Kinases

>  <Ligand_Instance>  (366) 
nan

>  <PDB_ID>  (366) 
nan

>  <Standardized_SMILES>  (366) 
COc1ccc(-n2nnc3cnc(N[C@H]4CC[C@H](N)C4)nc32)cc1

>  <Name>  (366) 
nan

>  <Pocket>  (366) 
nan

>  <ATP_Site>  (366) 
nan

>  <Peripheral>  (366) 
nan

>  <Num_H_Atoms_ProtBoundConf>  (366) 
nan

>  <Num_Resolved_Atoms>  (366) 
nan

>  <Num_Not_Resolved_Atoms>  (366) 
nan

$$$$
CHEMBL4793597
     RDKit          3D

  0  0  0  0  0  0  0  0  0  0999 V3000
M  V30 BEGIN CTAB
M  V30 COUNTS 42 45 0 0 0
M  V30 BEGIN ATOM
M  V30 1 O -1.709968 -0.662995 0.197695 0
M  V30 2 C -1.588847 -1.763919 0.778961 0
M  V30 3 N -0.303338 -2.185021 1.176434 0
M  V30 4 C 0.896285 -1.423341 0.955598 0
M  V30 5 C 1.876784 -2.093012 0.040203 0
M  V30 6 C 2.858357 -1.055277 -0.499418 0
M  V30 7 N 2.931636 0.092865 0.439070 0
M  V30 8 C 2.971566 1.379533 -0.173356 0
M  V30 9 N 3.279063 1.456692 -1.477685 0
M  V30 10 C 3.361206 2.649307 -2.082870 0
M  V30 11 N 3.149190 3.818308 -1.452545 0
M  V30 12 C 2.836480 3.817927 -0.146861 0
M  V30 13 N 2.568255 4.783495 0.722696 0
M  V30 14 N 2.314525 4.185904 1.883691 0
M  V30 15 C 2.418532 2.863436 1.759621 0
M  V30 16 C 2.757598 2.579953 0.454545 0
M  V30 17 C 2.958454 -0.451836 1.756706 0
M  V30 18 C 1.575654 -0.939667 2.209786 0
M  V30 19 C -2.800012 -2.541477 1.006228 0
M  V30 20 C -4.000875 -2.018885 0.568583 0
M  V30 21 C -5.188425 -2.714467 0.757154 0
M  V30 22 C -5.154092 -3.933574 1.386822 0
M  V30 23 F -6.263981 -4.704880 1.625164 0
M  V30 24 C -3.967987 -4.502117 1.845934 0
M  V30 25 C -2.805099 -3.771837 1.636094 0
M  V30 26 H -0.181295 -3.100360 1.662727 0
M  V30 27 H 0.545082 -0.489726 0.426436 0
M  V30 28 H 1.388529 -2.668704 -0.752452 0
M  V30 29 H 2.464321 -2.813331 0.669523 0
M  V30 30 H 3.909869 -1.464979 -0.482364 0
M  V30 31 H 2.651172 -0.742721 -1.521958 0
M  V30 32 H 3.615454 2.648124 -3.145944 0
M  V30 33 H 2.546412 5.813753 0.580305 0
M  V30 34 H 2.252625 2.184234 2.550598 0
M  V30 35 H 3.349519 0.177322 2.556800 0
M  V30 36 H 3.671889 -1.336173 1.748088 0
M  V30 37 H 1.747946 -1.719874 2.952302 0
M  V30 38 H 0.990544 -0.079630 2.595310 0
M  V30 39 H -4.123324 -1.058670 0.059123 0
M  V30 40 H -6.170750 -2.349251 0.431086 0
M  V30 41 H -3.892373 -5.461913 2.348550 0
M  V30 42 H -1.871690 -4.195764 1.985334 0
M  V30 END ATOM
M  V30 BEGIN BOND
M  V30 1 2 1 2
M  V30 2 1 2 3
M  V30 3 1 3 4
M  V30 4 1 4 5
M  V30 5 1 5 6
M  V30 6 1 6 7
M  V30 7 1 7 8
M  V30 8 2 8 9
M  V30 9 1 9 10
M  V30 10 2 10 11
M  V30 11 1 11 12
M  V30 12 1 12 13
M  V30 13 1 13 14
M  V30 14 2 14 15
M  V30 15 1 15 16
M  V30 16 1 7 17
M  V30 17 1 17 18
M  V30 18 1 2 19
M  V30 19 2 19 20
M  V30 20 1 20 21
M  V30 21 2 21 22
M  V30 22 1 22 23
M  V30 23 1 22 24
M  V30 24 2 24 25
M  V30 25 1 18 4
M  V30 26 1 25 19
M  V30 27 1 16 8
M  V30 28 2 16 12
M  V30 29 1 3 26
M  V30 30 1 4 27
M  V30 31 1 5 28
M  V30 32 1 5 29
M  V30 33 1 6 30
M  V30 34 1 6 31
M  V30 35 1 10 32
M  V30 36 1 13 33
M  V30 37 1 15 34
M  V30 38 1 17 35
M  V30 39 1 17 36
M  V30 40 1 18 37
M  V30 41 1 18 38
M  V30 42 1 20 39
M  V30 43 1 21 40
M  V30 44 1 24 41
M  V30 45 1 25 42
M  V30 END BOND
M  V30 END CTAB
M  END
>  <Dataset>  (367) 
ChEMBL_Kinases

>  <Ligand_Instance>  (367) 
nan

>  <PDB_ID>  (367) 
nan

>  <Standardized_SMILES>  (367) 
O=C(NC1CCN(c2ncnc3[nH]ncc23)CC1)c1ccc(F)cc1

>  <Name>  (367) 
nan

>  <Pocket>  (367) 
nan

>  <ATP_Site>  (367) 
nan

>  <Peripheral>  (367) 
nan

>  <Num_H_Atoms_ProtBoundConf>  (367) 
nan

>  <Num_Resolved_Atoms>  (367) 
nan

>  <Num_Not_Resolved_Atoms>  (367) 
nan

$$$$
CHEMBL4793598
     RDKit          3D

  0  0  0  0  0  0  0  0  0  0999 V3000
M  V30 BEGIN CTAB
M  V30 COUNTS 42 45 0 0 0
M  V30 BEGIN ATOM
M  V30 1 O 0.569795 -3.650684 -0.571169 0
M  V30 2 C 1.511088 -2.969540 -0.140579 0
M  V30 3 C 2.759702 -3.263671 0.543424 0
M  V30 4 C 4.014283 -3.531980 0.036471 0
M  V30 5 C 5.057528 -3.784387 0.898521 0
M  V30 6 C 4.876827 -3.775290 2.265942 0
M  V30 7 C 3.634791 -3.510473 2.803200 0
M  V30 8 C 2.585774 -3.256384 1.924520 0
M  V30 9 Cl 1.057224 -2.934391 2.757807 0
M  V30 10 N 1.149572 -1.629813 -0.456761 0
M  V30 11 C -0.106427 -1.477372 -1.131097 0
M  V30 12 C -0.523063 -0.093658 -1.446051 0
M  V30 13 C 0.152149 1.028013 -0.776838 0
M  V30 14 N -0.811114 1.943963 -0.143046 0
M  V30 15 C -1.647489 1.386262 0.854720 0
M  V30 16 N -1.549043 0.088245 1.188459 0
M  V30 17 C -2.361459 -0.403410 2.141108 0
M  V30 18 N -3.288496 0.338690 2.796999 0
M  V30 19 C -3.443155 1.662021 2.509535 0
M  V30 20 N -4.227154 2.648874 2.945331 0
M  V30 21 N -3.918866 3.767730 2.275355 0
M  V30 22 C -2.920231 3.471445 1.402372 0
M  V30 23 C -2.592186 2.136460 1.525103 0
M  V30 24 C 1.269982 0.743662 0.149616 0
M  V30 25 C 2.015023 -0.527965 -0.105683 0
M  V30 26 H 4.028220 -3.510413 -1.045585 0
M  V30 27 H 6.005747 -3.984863 0.414674 0
M  V30 28 H 5.720417 -3.978308 2.915193 0
M  V30 29 H 3.557139 -3.517478 3.868680 0
M  V30 30 H -0.033136 -2.124730 -2.050111 0
M  V30 31 H -0.857664 -2.036454 -0.498291 0
M  V30 32 H -0.529048 0.007389 -2.571939 0
M  V30 33 H -1.625252 -0.035740 -1.196881 0
M  V30 34 H 0.595588 1.685635 -1.585286 0
M  V30 35 H -0.935561 2.976407 -0.363474 0
M  V30 36 H -2.195042 -1.462774 2.329753 0
M  V30 37 H -4.944567 2.500779 3.691929 0
M  V30 38 H -2.464578 4.192112 0.720861 0
M  V30 39 H 0.876428 0.701144 1.186704 0
M  V30 40 H 2.040493 1.554259 0.149751 0
M  V30 41 H 2.717405 -0.392069 -0.955753 0
M  V30 42 H 2.643246 -0.773788 0.774231 0
M  V30 END ATOM
M  V30 BEGIN BOND
M  V30 1 2 1 2
M  V30 2 1 2 3
M  V30 3 2 3 4
M  V30 4 1 4 5
M  V30 5 2 5 6
M  V30 6 1 6 7
M  V30 7 2 7 8
M  V30 8 1 8 9
M  V30 9 1 2 10
M  V30 10 1 10 11
M  V30 11 1 11 12
M  V30 12 1 12 13
M  V30 13 1 13 14
M  V30 14 1 14 15
M  V30 15 2 15 16
M  V30 16 1 16 17
M  V30 17 2 17 18
M  V30 18 1 18 19
M  V30 19 1 19 20
M  V30 20 1 20 21
M  V30 21 2 21 22
M  V30 22 1 22 23
M  V30 23 1 13 24
M  V30 24 1 24 25
M  V30 25 1 8 3
M  V30 26 1 25 10
M  V30 27 1 23 15
M  V30 28 2 23 19
M  V30 29 1 4 26
M  V30 30 1 5 27
M  V30 31 1 6 28
M  V30 32 1 7 29
M  V30 33 1 11 30
M  V30 34 1 11 31
M  V30 35 1 12 32
M  V30 36 1 12 33
M  V30 37 1 13 34
M  V30 38 1 14 35
M  V30 39 1 17 36
M  V30 40 1 20 37
M  V30 41 1 22 38
M  V30 42 1 24 39
M  V30 43 1 24 40
M  V30 44 1 25 41
M  V30 45 1 25 42
M  V30 END BOND
M  V30 END CTAB
M  END
>  <Dataset>  (368) 
ChEMBL_Kinases

>  <Ligand_Instance>  (368) 
nan

>  <PDB_ID>  (368) 
nan

>  <Standardized_SMILES>  (368) 
O=C(c1ccccc1Cl)N1CCC(Nc2ncnc3[nH]ncc23)CC1

>  <Name>  (368) 
nan

>  <Pocket>  (368) 
nan

>  <ATP_Site>  (368) 
nan

>  <Peripheral>  (368) 
nan

>  <Num_H_Atoms_ProtBoundConf>  (368) 
nan

>  <Num_Resolved_Atoms>  (368) 
nan

>  <Num_Not_Resolved_Atoms>  (368) 
nan

$$$$
CHEMBL4125718
     RDKit          3D

  0  0  0  0  0  0  0  0  0  0999 V3000
M  V30 BEGIN CTAB
M  V30 COUNTS 83 86 0 0 0
M  V30 BEGIN ATOM
M  V30 1 C 2.989405 -4.294830 3.851885 0
M  V30 2 C 2.803362 -4.402560 2.360784 0
M  V30 3 C 3.313517 -5.805184 1.985378 0
M  V30 4 C 3.610218 -3.437588 1.601490 0
M  V30 5 N 3.450762 -2.061372 1.768124 0
M  V30 6 C 4.266884 -1.286776 0.907468 0
M  V30 7 C 3.932329 -1.255455 -0.511364 0
M  V30 8 O 4.857065 -0.518491 -1.030644 0
M  V30 9 N 2.943544 -1.768008 -1.425486 0
M  V30 10 C 1.745789 -2.596934 -1.322737 0
M  V30 11 C 0.744092 -2.175699 -2.361547 0
M  V30 12 N 0.815077 -0.815154 -2.728077 0
M  V30 13 C -0.336400 -0.160910 -3.197261 0
M  V30 14 C -1.442043 0.071301 -2.202742 0
M  V30 15 O -2.001259 -0.982574 -1.607617 0
M  V30 16 C -2.053816 -1.144872 -0.276976 0
M  V30 17 C -2.829804 -0.030994 0.326996 0
M  V30 18 C -4.218710 -0.216829 0.378659 0
M  V30 19 C -5.123058 0.679080 0.905139 0
M  V30 20 C -4.611556 1.850257 1.420499 0
M  V30 21 C -5.472067 2.805128 1.972465 0
M  V30 22 C -4.903525 3.956312 2.473946 0
M  V30 23 C -3.548322 4.206751 2.457300 0
M  V30 24 C -2.705232 3.243805 1.903288 0
M  V30 25 C -3.251327 2.080750 1.393605 0
M  V30 26 C -2.387243 1.152450 0.855580 0
M  V30 27 C -2.536072 0.911460 -2.831528 0
M  V30 28 C -3.597709 0.305733 -3.506676 0
M  V30 29 C -4.560060 1.121107 -4.058804 0
M  V30 30 C -4.535590 2.498035 -3.983838 0
M  V30 31 Cl -5.777617 3.517831 -4.700656 0
M  V30 32 C -3.481810 3.115595 -3.312984 0
M  V30 33 C -2.541643 2.290513 -2.774475 0
M  V30 34 Cl -1.190536 3.047708 -1.915853 0
M  V30 35 C 2.081721 -0.326851 -3.104195 0
M  V30 36 C 3.109762 -1.404695 -2.834222 0
M  V30 37 C 2.751004 -1.486406 2.808609 0
M  V30 38 C 2.623962 0.028935 2.792995 0
M  V30 39 C 1.917750 0.486682 1.539842 0
M  V30 40 C 1.735725 0.481616 3.964989 0
M  V30 41 H 2.986394 -5.324752 4.329199 0
M  V30 42 H 2.174396 -3.729978 4.359449 0
M  V30 43 H 3.969831 -3.882701 4.136731 0
M  V30 44 H 1.729451 -4.446130 2.091935 0
M  V30 45 H 4.363334 -5.936607 2.293715 0
M  V30 46 H 3.189801 -5.903936 0.884129 0
M  V30 47 H 2.680854 -6.582936 2.450315 0
M  V30 48 H 4.707341 -3.721662 1.825335 0
M  V30 49 H 3.541534 -3.708943 0.520649 0
M  V30 50 H 4.407709 -0.275711 1.343533 0
M  V30 51 H 5.304507 -1.742386 0.995291 0
M  V30 52 H 2.060832 -3.633761 -1.550868 0
M  V30 53 H 1.323326 -2.595759 -0.308187 0
M  V30 54 H 0.964131 -2.776971 -3.293297 0
M  V30 55 H -0.259596 -2.525548 -2.055527 0
M  V30 56 H -0.029207 0.853346 -3.538229 0
M  V30 57 H -0.680467 -0.680232 -4.114684 0
M  V30 58 H -1.021424 0.755637 -1.436416 0
M  V30 59 H -1.030916 -1.130175 0.182241 0
M  V30 60 H -2.525189 -2.072823 0.083342 0
M  V30 61 H -4.661623 -1.128456 -0.017636 0
M  V30 62 H -6.182167 0.470413 0.913478 0
M  V30 63 H -6.529337 2.576591 1.970083 0
M  V30 64 H -5.660911 4.635546 2.881792 0
M  V30 65 H -3.193175 5.144490 2.876728 0
M  V30 66 H -1.641394 3.427829 1.884869 0
M  V30 67 H -1.339065 1.307894 0.830734 0
M  V30 68 H -3.652679 -0.763575 -3.587900 0
M  V30 69 H -5.419886 0.711902 -4.601048 0
M  V30 70 H -3.401055 4.189421 -3.216514 0
M  V30 71 H 2.385330 0.528736 -2.467487 0
M  V30 72 H 2.150053 -0.109885 -4.186366 0
M  V30 73 H 2.921003 -2.272976 -3.483473 0
M  V30 74 H 4.144434 -1.031967 -3.023396 0
M  V30 75 H 3.207547 -1.676777 3.830726 0
M  V30 76 H 1.725142 -1.900756 2.876153 0
M  V30 77 H 3.564523 0.561290 2.969890 0
M  V30 78 H 1.575929 -0.379136 0.917926 0
M  V30 79 H 0.987597 1.027161 1.793093 0
M  V30 80 H 2.537030 1.165801 0.920688 0
M  V30 81 H 2.049335 0.044696 4.915823 0
M  V30 82 H 0.658002 0.246911 3.739043 0
M  V30 83 H 1.808609 1.589345 3.992181 0
M  V30 END ATOM
M  V30 BEGIN BOND
M  V30 1 1 1 2
M  V30 2 1 2 3
M  V30 3 1 2 4
M  V30 4 1 4 5
M  V30 5 1 5 6
M  V30 6 1 6 7
M  V30 7 2 7 8
M  V30 8 1 7 9
M  V30 9 1 9 10
M  V30 10 1 10 11
M  V30 11 1 11 12
M  V30 12 1 12 13
M  V30 13 1 13 14
M  V30 14 1 14 15
M  V30 15 1 15 16
M  V30 16 1 16 17
M  V30 17 2 17 18
M  V30 18 1 18 19
M  V30 19 2 19 20
M  V30 20 1 20 21
M  V30 21 2 21 22
M  V30 22 1 22 23
M  V30 23 2 23 24
M  V30 24 1 24 25
M  V30 25 2 25 26
M  V30 26 1 14 27
M  V30 27 2 27 28
M  V30 28 1 28 29
M  V30 29 2 29 30
M  V30 30 1 30 31
M  V30 31 1 30 32
M  V30 32 2 32 33
M  V30 33 1 33 34
M  V30 34 1 12 35
M  V30 35 1 35 36
M  V30 36 1 5 37
M  V30 37 1 37 38
M  V30 38 1 38 39
M  V30 39 1 38 40
M  V30 40 1 36 9
M  V30 41 1 26 17
M  V30 42 1 33 27
M  V30 43 1 25 20
M  V30 44 1 1 41
M  V30 45 1 1 42
M  V30 46 1 1 43
M  V30 47 1 2 44
M  V30 48 1 3 45
M  V30 49 1 3 46
M  V30 50 1 3 47
M  V30 51 1 4 48
M  V30 52 1 4 49
M  V30 53 1 6 50
M  V30 54 1 6 51
M  V30 55 1 10 52
M  V30 56 1 10 53
M  V30 57 1 11 54
M  V30 58 1 11 55
M  V30 59 1 13 56
M  V30 60 1 13 57
M  V30 61 1 14 58
M  V30 62 1 16 59
M  V30 63 1 16 60
M  V30 64 1 18 61
M  V30 65 1 19 62
M  V30 66 1 21 63
M  V30 67 1 22 64
M  V30 68 1 23 65
M  V30 69 1 24 66
M  V30 70 1 26 67
M  V30 71 1 28 68
M  V30 72 1 29 69
M  V30 73 1 32 70
M  V30 74 1 35 71
M  V30 75 1 35 72
M  V30 76 1 36 73
M  V30 77 1 36 74
M  V30 78 1 37 75
M  V30 79 1 37 76
M  V30 80 1 38 77
M  V30 81 1 39 78
M  V30 82 1 39 79
M  V30 83 1 39 80
M  V30 84 1 40 81
M  V30 85 1 40 82
M  V30 86 1 40 83
M  V30 END BOND
M  V30 END CTAB
M  END
>  <Dataset>  (369) 
ChEMBL_Kinases

>  <Ligand_Instance>  (369) 
nan

>  <PDB_ID>  (369) 
nan

>  <Standardized_SMILES>  (369) 
CC(C)CN(CC(=O)N1CCN(CC(OCc2ccc3ccccc3c2)c2ccc(Cl)cc2Cl)CC1)CC(C)C

>  <Name>  (369) 
nan

>  <Pocket>  (369) 
nan

>  <ATP_Site>  (369) 
nan

>  <Peripheral>  (369) 
nan

>  <Num_H_Atoms_ProtBoundConf>  (369) 
nan

>  <Num_Resolved_Atoms>  (369) 
nan

>  <Num_Not_Resolved_Atoms>  (369) 
nan

$$$$
CHEMBL4793605
     RDKit          3D

  0  0  0  0  0  0  0  0  0  0999 V3000
M  V30 BEGIN CTAB
M  V30 COUNTS 65 68 0 0 0
M  V30 BEGIN ATOM
M  V30 1 C 2.057241 -3.289491 -1.327376 0
M  V30 2 C 3.332391 -2.578282 -1.674211 0
M  V30 3 C 3.279330 -1.181825 -1.072381 0
M  V30 4 S 3.080100 -1.229141 0.673718 0
M  V30 5 O 1.892865 -2.044684 1.108262 0
M  V30 6 O 4.295677 -1.967420 1.218312 0
M  V30 7 N 3.063537 0.344469 1.302910 0
M  V30 8 C 2.343864 1.534961 1.229406 0
M  V30 9 C 2.318450 2.144978 -0.035618 0
M  V30 10 C 1.639163 3.364309 -0.148884 0
M  V30 11 C 1.009751 3.966527 0.921591 0
M  V30 12 F 0.351134 5.144953 0.818596 0
M  V30 13 C 1.024479 3.380666 2.163267 0
M  V30 14 C 0.446095 3.976048 3.351533 0
M  V30 15 O 0.432601 5.254451 3.428765 0
M  V30 16 C -0.143428 3.345058 4.518286 0
M  V30 17 N -0.142698 3.787977 5.787233 0
M  V30 18 N -0.837792 2.955304 6.536200 0
M  V30 19 C -1.344426 1.918924 5.844689 0
M  V30 20 N -2.106243 0.845867 6.089328 0
M  V30 21 C -2.485000 -0.033900 5.135758 0
M  V30 22 C -2.093982 0.133427 3.817438 0
M  V30 23 C -2.430776 -0.706655 2.674560 0
M  V30 24 C -3.590416 -1.425284 2.472207 0
M  V30 25 C -3.810374 -2.173479 1.329378 0
M  V30 26 C -2.862851 -2.235226 0.318080 0
M  V30 27 C -3.200116 -3.036439 -0.850724 0
M  V30 28 O -4.231019 -3.731751 -0.893669 0
M  V30 29 N -2.389449 -3.090442 -2.026819 0
M  V30 30 C -2.711673 -3.873978 -3.192547 0
M  V30 31 C -1.624611 -3.649530 -4.229214 0
M  V30 32 O -0.400017 -4.053517 -3.705872 0
M  V30 33 C -1.505695 -2.194203 -4.616011 0
M  V30 34 O -0.476938 -2.115021 -5.564219 0
M  V30 35 C -1.696395 -1.531660 0.492331 0
M  V30 36 C -1.487614 -0.783802 1.648195 0
M  V30 37 C -1.302708 1.255664 3.595149 0
M  V30 38 C -0.896683 2.169245 4.538158 0
M  V30 39 C 1.698948 2.174967 2.269605 0
M  V30 40 F 1.829153 1.467394 3.420269 0
M  V30 41 H 2.188694 -3.808059 -0.339846 0
M  V30 42 H 1.189565 -2.610326 -1.213406 0
M  V30 43 H 1.788612 -4.086898 -2.072095 0
M  V30 44 H 4.242238 -3.092376 -1.318545 0
M  V30 45 H 3.377810 -2.423577 -2.794318 0
M  V30 46 H 4.171555 -0.606717 -1.317868 0
M  V30 47 H 2.419140 -0.676740 -1.586236 0
M  V30 48 H 3.815271 0.632749 2.001675 0
M  V30 49 H 2.778957 1.750466 -0.927836 0
M  V30 50 H 1.616061 3.845397 -1.135293 0
M  V30 51 H -0.977884 3.094748 7.578276 0
M  V30 52 H -3.102301 -0.900719 5.333369 0
M  V30 53 H -4.312206 -1.358314 3.272874 0
M  V30 54 H -4.755595 -2.711811 1.248840 0
M  V30 55 H -1.504578 -2.502315 -2.006816 0
M  V30 56 H -2.599215 -4.954493 -2.884520 0
M  V30 57 H -3.725520 -3.777643 -3.572225 0
M  V30 58 H -1.791485 -4.236701 -5.146701 0
M  V30 59 H 0.227290 -4.234116 -4.448602 0
M  V30 60 H -2.427624 -1.858177 -5.178115 0
M  V30 61 H -1.306659 -1.520435 -3.781986 0
M  V30 62 H 0.153138 -1.356870 -5.386920 0
M  V30 63 H -0.963590 -1.586074 -0.300222 0
M  V30 64 H -0.510881 -0.287290 1.641857 0
M  V30 65 H -0.995729 1.419026 2.573772 0
M  V30 END ATOM
M  V30 BEGIN BOND
M  V30 1 1 1 2
M  V30 2 1 2 3
M  V30 3 1 3 4
M  V30 4 2 4 5
M  V30 5 2 4 6
M  V30 6 1 4 7
M  V30 7 1 7 8
M  V30 8 2 8 9
M  V30 9 1 9 10
M  V30 10 2 10 11
M  V30 11 1 11 12
M  V30 12 1 11 13
M  V30 13 1 13 14
M  V30 14 2 14 15
M  V30 15 1 14 16
M  V30 16 2 16 17
M  V30 17 1 17 18
M  V30 18 1 18 19
M  V30 19 2 19 20
M  V30 20 1 20 21
M  V30 21 2 21 22
M  V30 22 1 22 23
M  V30 23 2 23 24
M  V30 24 1 24 25
M  V30 25 2 25 26
M  V30 26 1 26 27
M  V30 27 2 27 28
M  V30 28 1 27 29
M  V30 29 1 29 30
M  V30 30 1 30 31
M  V30 31 1 31 32
M  V30 32 1 31 33
M  V30 33 1 33 34
M  V30 34 1 26 35
M  V30 35 2 35 36
M  V30 36 1 22 37
M  V30 37 2 37 38
M  V30 38 2 13 39
M  V30 39 1 39 40
M  V30 40 1 39 8
M  V30 41 1 38 16
M  V30 42 1 38 19
M  V30 43 1 36 23
M  V30 44 1 1 41
M  V30 45 1 1 42
M  V30 46 1 1 43
M  V30 47 1 2 44
M  V30 48 1 2 45
M  V30 49 1 3 46
M  V30 50 1 3 47
M  V30 51 1 7 48
M  V30 52 1 9 49
M  V30 53 1 10 50
M  V30 54 1 18 51
M  V30 55 1 21 52
M  V30 56 1 24 53
M  V30 57 1 25 54
M  V30 58 1 29 55
M  V30 59 1 30 56
M  V30 60 1 30 57
M  V30 61 1 31 58
M  V30 62 1 32 59
M  V30 63 1 33 60
M  V30 64 1 33 61
M  V30 65 1 34 62
M  V30 66 1 35 63
M  V30 67 1 36 64
M  V30 68 1 37 65
M  V30 END BOND
M  V30 END CTAB
M  END
>  <Dataset>  (370) 
ChEMBL_Kinases

>  <Ligand_Instance>  (370) 
nan

>  <PDB_ID>  (370) 
nan

>  <Standardized_SMILES>  (370) 
CCCS(=O)(=O)Nc1ccc(F)c(C(=O)c2n[nH]c3ncc(-c4ccc(C(=O)NCC(O)CO)cc4)cc23)c1F

>  <Name>  (370) 
nan

>  <Pocket>  (370) 
nan

>  <ATP_Site>  (370) 
nan

>  <Peripheral>  (370) 
nan

>  <Num_H_Atoms_ProtBoundConf>  (370) 
nan

>  <Num_Resolved_Atoms>  (370) 
nan

>  <Num_Not_Resolved_Atoms>  (370) 
nan

$$$$
CHEMBL4793405
     RDKit          3D

  0  0  0  0  0  0  0  0  0  0999 V3000
M  V30 BEGIN CTAB
M  V30 COUNTS 55 58 0 0 0
M  V30 BEGIN ATOM
M  V30 1 C 4.957461 0.188926 5.372140 0
M  V30 2 C 4.479190 -0.013332 3.920585 0
M  V30 3 C 4.154025 -1.456266 3.793222 0
M  V30 4 S 3.599426 -2.004759 2.229022 0
M  V30 5 O 4.686914 -1.946553 1.184440 0
M  V30 6 O 3.265563 -3.484778 2.369030 0
M  V30 7 N 2.167510 -1.230275 1.685774 0
M  V30 8 C 1.942055 0.140782 1.402894 0
M  V30 9 C 3.054676 0.873755 0.985608 0
M  V30 10 C 2.892292 2.205333 0.680682 0
M  V30 11 C 1.655205 2.850538 0.772580 0
M  V30 12 F 1.601598 4.164593 0.449973 0
M  V30 13 C 0.556922 2.128005 1.183111 0
M  V30 14 C -0.707862 2.808152 1.311546 0
M  V30 15 O -0.518589 4.044576 1.523999 0
M  V30 16 C -2.103597 2.489653 1.268491 0
M  V30 17 N -3.029749 3.213843 1.888435 0
M  V30 18 N -4.243988 2.710539 1.649349 0
M  V30 19 C -4.180615 1.626643 0.856349 0
M  V30 20 N -5.107812 0.805504 0.339468 0
M  V30 21 C -4.765690 -0.229809 -0.468588 0
M  V30 22 C -3.396669 -0.379672 -0.722568 0
M  V30 23 C -3.032030 -1.491837 -1.591568 0
M  V30 24 C -1.963522 -2.282193 -1.206748 0
M  V30 25 C -1.603685 -3.344580 -2.022494 0
M  V30 26 C -2.324500 -3.583933 -3.199309 0
M  V30 27 S -1.839419 -4.934850 -4.202473 0
M  V30 28 N -2.692107 -6.383295 -3.726943 0
M  V30 29 O -0.368466 -5.248498 -4.017598 0
M  V30 30 O -2.029514 -4.667274 -5.665322 0
M  V30 31 C -3.384836 -2.771796 -3.548151 0
M  V30 32 C -3.766736 -1.698679 -2.746992 0
M  V30 33 F -4.810967 -0.885234 -3.074411 0
M  V30 34 C -2.444638 0.463114 -0.191431 0
M  V30 35 C -2.825530 1.505727 0.628054 0
M  V30 36 C 0.739294 0.803032 1.483831 0
M  V30 37 F -0.231772 -0.004602 1.936443 0
M  V30 38 H 4.673519 -0.661386 6.019843 0
M  V30 39 H 6.062165 0.269481 5.423141 0
M  V30 40 H 4.544434 1.120401 5.785200 0
M  V30 41 H 5.337205 0.228519 3.267326 0
M  V30 42 H 3.607133 0.658467 3.762118 0
M  V30 43 H 3.321291 -1.658026 4.532342 0
M  V30 44 H 5.013607 -2.042620 4.181224 0
M  V30 45 H 1.268190 -1.771239 1.505230 0
M  V30 46 H 4.037503 0.453795 0.888365 0
M  V30 47 H 3.754551 2.800667 0.350998 0
M  V30 48 H -5.083433 3.166612 2.067533 0
M  V30 49 H -5.511638 -0.892587 -0.885665 0
M  V30 50 H -1.397368 -2.111948 -0.303525 0
M  V30 51 H -0.775934 -4.004939 -1.781467 0
M  V30 52 H -2.290733 -6.813461 -2.885366 0
M  V30 53 H -3.650531 -6.049928 -3.479593 0
M  V30 54 H -3.951071 -2.951807 -4.463033 0
M  V30 55 H -1.393645 0.338563 -0.407854 0
M  V30 END ATOM
M  V30 BEGIN BOND
M  V30 1 1 1 2
M  V30 2 1 2 3
M  V30 3 1 3 4
M  V30 4 2 4 5
M  V30 5 2 4 6
M  V30 6 1 4 7
M  V30 7 1 7 8
M  V30 8 2 8 9
M  V30 9 1 9 10
M  V30 10 2 10 11
M  V30 11 1 11 12
M  V30 12 1 11 13
M  V30 13 1 13 14
M  V30 14 2 14 15
M  V30 15 1 14 16
M  V30 16 2 16 17
M  V30 17 1 17 18
M  V30 18 1 18 19
M  V30 19 2 19 20
M  V30 20 1 20 21
M  V30 21 2 21 22
M  V30 22 1 22 23
M  V30 23 2 23 24
M  V30 24 1 24 25
M  V30 25 2 25 26
M  V30 26 1 26 27
M  V30 27 1 27 28
M  V30 28 2 27 29
M  V30 29 2 27 30
M  V30 30 1 26 31
M  V30 31 2 31 32
M  V30 32 1 32 33
M  V30 33 1 22 34
M  V30 34 2 34 35
M  V30 35 2 13 36
M  V30 36 1 36 37
M  V30 37 1 36 8
M  V30 38 1 35 16
M  V30 39 1 35 19
M  V30 40 1 32 23
M  V30 41 1 1 38
M  V30 42 1 1 39
M  V30 43 1 1 40
M  V30 44 1 2 41
M  V30 45 1 2 42
M  V30 46 1 3 43
M  V30 47 1 3 44
M  V30 48 1 7 45
M  V30 49 1 9 46
M  V30 50 1 10 47
M  V30 51 1 18 48
M  V30 52 1 21 49
M  V30 53 1 24 50
M  V30 54 1 25 51
M  V30 55 1 28 52
M  V30 56 1 28 53
M  V30 57 1 31 54
M  V30 58 1 34 55
M  V30 END BOND
M  V30 END CTAB
M  END
>  <Dataset>  (371) 
ChEMBL_Kinases

>  <Ligand_Instance>  (371) 
nan

>  <PDB_ID>  (371) 
nan

>  <Standardized_SMILES>  (371) 
CCCS(=O)(=O)Nc1ccc(F)c(C(=O)c2n[nH]c3ncc(-c4ccc(S(N)(=O)=O)cc4F)cc23)c1F

>  <Name>  (371) 
nan

>  <Pocket>  (371) 
nan

>  <ATP_Site>  (371) 
nan

>  <Peripheral>  (371) 
nan

>  <Num_H_Atoms_ProtBoundConf>  (371) 
nan

>  <Num_Resolved_Atoms>  (371) 
nan

>  <Num_Not_Resolved_Atoms>  (371) 
nan

$$$$
CHEMBL4794078
     RDKit          3D

  0  0  0  0  0  0  0  0  0  0999 V3000
M  V30 BEGIN CTAB
M  V30 COUNTS 65 68 0 0 0
M  V30 BEGIN ATOM
M  V30 1 C 7.009454 -4.359033 -0.374347 0
M  V30 2 C 6.801497 -3.125234 -1.173082 0
M  V30 3 C 7.704926 -2.647054 -2.097390 0
M  V30 4 C 7.464445 -1.491864 -2.818901 0
M  V30 5 C 6.278511 -0.829810 -2.578428 0
M  V30 6 C 5.326879 -1.266879 -1.654641 0
M  V30 7 C 4.111708 -0.428171 -1.528274 0
M  V30 8 C 3.123684 -0.995668 -2.513288 0 CFG=1
M  V30 9 C 2.825817 -2.435591 -2.163228 0
M  V30 10 N 2.053070 -0.183786 -2.877635 0
M  V30 11 C 1.008124 0.648124 -3.353152 0
M  V30 12 O 1.306234 0.871688 -4.568096 0
M  V30 13 C -0.174669 1.191830 -2.712861 0
M  V30 14 C -0.733374 2.204269 -3.461002 0
M  V30 15 C -1.890701 2.798221 -2.939567 0
M  V30 16 C -2.453398 2.395739 -1.734626 0
M  V30 17 C -1.833835 1.362183 -1.029936 0
M  V30 18 C -0.695598 0.764384 -1.522879 0
M  V30 19 C -2.616500 1.134152 0.182695 0
M  V30 20 C -2.376161 0.275404 1.151134 0
M  V30 21 C -3.167320 0.051135 2.351044 0
M  V30 22 N -2.498652 0.201836 3.529903 0
M  V30 23 C -3.356888 -0.083904 4.552274 0
M  V30 24 C -3.026561 -0.012443 5.984294 0
M  V30 25 C -4.586322 -0.422547 4.031325 0
M  V30 26 N -5.803683 -0.843320 4.571330 0
M  V30 27 C -6.134208 -1.420182 5.816428 0
M  V30 28 O -5.265942 -1.665842 6.678688 0
M  V30 29 C -7.483859 -1.804783 6.285990 0
M  V30 30 Cl -7.344561 -2.459406 7.931144 0
M  V30 31 C -4.421693 -0.325846 2.670446 0
M  V30 32 C -5.432301 -0.637080 1.628958 0
M  V30 33 C -3.728821 2.064916 0.192239 0
M  V30 34 O -4.641763 2.251638 1.000772 0
M  V30 35 N -3.616714 2.849045 -1.015212 0
M  V30 36 C 5.647287 -2.428235 -0.977748 0
M  V30 37 H 6.668014 -5.267355 -0.922850 0
M  V30 38 H 6.411622 -4.337724 0.558160 0
M  V30 39 H 8.064558 -4.467230 -0.048622 0
M  V30 40 H 8.632915 -3.212350 -2.251673 0
M  V30 41 H 8.202153 -1.156210 -3.535538 0
M  V30 42 H 6.162900 0.062302 -3.178522 0
M  V30 43 H 3.803959 -0.470373 -0.484739 0
M  V30 44 H 4.366740 0.626797 -1.744449 0
M  V30 45 H 3.772321 -1.109649 -3.461001 0
M  V30 46 H 2.575965 -2.553548 -1.087777 0
M  V30 47 H 3.553474 -3.147798 -2.540252 0
M  V30 48 H 1.861420 -2.672962 -2.705992 0
M  V30 49 H 1.711817 -0.306745 -1.853494 0
M  V30 50 H -0.344914 2.559631 -4.401214 0
M  V30 51 H -2.381229 3.598842 -3.469235 0
M  V30 52 H -0.190763 -0.036749 -0.999314 0
M  V30 53 H -1.457722 -0.319050 0.986597 0
M  V30 54 H -1.495286 0.482483 3.720097 0
M  V30 55 H -3.791934 0.545257 6.577778 0
M  V30 56 H -2.121655 0.674981 6.071147 0
M  V30 57 H -2.686066 -0.950702 6.419148 0
M  V30 58 H -6.699533 -0.749990 4.028751 0
M  V30 59 H -8.037093 -0.826643 6.404029 0
M  V30 60 H -8.019297 -2.460206 5.597578 0
M  V30 61 H -6.258677 0.105455 1.627949 0
M  V30 62 H -5.924922 -1.631429 1.800468 0
M  V30 63 H -5.043593 -0.661181 0.610105 0
M  V30 64 H -4.269456 3.613115 -1.311829 0
M  V30 65 H 4.875107 -2.736662 -0.264890 0
M  V30 END ATOM
M  V30 BEGIN BOND
M  V30 1 1 1 2
M  V30 2 2 2 3
M  V30 3 1 3 4
M  V30 4 2 4 5
M  V30 5 1 5 6
M  V30 6 1 6 7
M  V30 7 1 7 8
M  V30 8 1 8 9
M  V30 9 1 8 10
M  V30 10 1 10 11
M  V30 11 2 11 12
M  V30 12 1 11 13
M  V30 13 2 13 14
M  V30 14 1 14 15
M  V30 15 2 15 16
M  V30 16 1 16 17
M  V30 17 2 17 18
M  V30 18 1 17 19
M  V30 19 2 19 20
M  V30 20 1 20 21
M  V30 21 1 21 22
M  V30 22 1 22 23
M  V30 23 1 23 24
M  V30 24 2 23 25
M  V30 25 1 25 26
M  V30 26 1 26 27
M  V30 27 2 27 28
M  V30 28 1 27 29
M  V30 29 1 29 30
M  V30 30 1 25 31
M  V30 31 1 31 32
M  V30 32 1 19 33
M  V30 33 2 33 34
M  V30 34 1 33 35
M  V30 35 2 6 36
M  V30 36 1 36 2
M  V30 37 1 18 13
M  V30 38 2 31 21
M  V30 39 1 35 16
M  V30 40 1 1 37
M  V30 41 1 1 38
M  V30 42 1 1 39
M  V30 43 1 3 40
M  V30 44 1 4 41
M  V30 45 1 5 42
M  V30 46 1 7 43
M  V30 47 1 7 44
M  V30 48 1 8 45 CFG=3
M  V30 49 1 9 46
M  V30 50 1 9 47
M  V30 51 1 9 48
M  V30 52 1 10 49
M  V30 53 1 14 50
M  V30 54 1 15 51
M  V30 55 1 18 52
M  V30 56 1 20 53
M  V30 57 1 22 54
M  V30 58 1 24 55
M  V30 59 1 24 56
M  V30 60 1 24 57
M  V30 61 1 26 58
M  V30 62 1 29 59
M  V30 63 1 29 60
M  V30 64 1 32 61
M  V30 65 1 32 62
M  V30 66 1 32 63
M  V30 67 1 35 64
M  V30 68 1 36 65
M  V30 END BOND
M  V30 END CTAB
M  END
>  <Dataset>  (372) 
ChEMBL_Kinases

>  <Ligand_Instance>  (372) 
nan

>  <PDB_ID>  (372) 
nan

>  <Standardized_SMILES>  (372) 
Cc1cccc(C[C@@H](C)NC(=O)c2ccc3c(c2)/C(=C/c2[nH]c(C)c(NC(=O)CCl)c2C)C(=O)N3)c1

>  <Name>  (372) 
nan

>  <Pocket>  (372) 
nan

>  <ATP_Site>  (372) 
nan

>  <Peripheral>  (372) 
nan

>  <Num_H_Atoms_ProtBoundConf>  (372) 
nan

>  <Num_Resolved_Atoms>  (372) 
nan

>  <Num_Not_Resolved_Atoms>  (372) 
nan

$$$$
CHEMBL4794090
     RDKit          3D

  0  0  0  0  0  0  0  0  0  0999 V3000
M  V30 BEGIN CTAB
M  V30 COUNTS 30 32 0 0 0
M  V30 BEGIN ATOM
M  V30 1 N -3.243203 -2.573472 1.385168 0
M  V30 2 C -1.971843 -2.211682 1.943823 0
M  V30 3 N -0.827894 -2.272117 1.209730 0
M  V30 4 C 0.374535 -1.940526 1.711566 0
M  V30 5 N 1.396926 -2.086996 0.738443 0
M  V30 6 C 1.893141 -1.072416 -0.125551 0
M  V30 7 C 2.869520 -1.377101 -1.088570 0
M  V30 8 C 3.322083 -0.356809 -1.894198 0
M  V30 9 C 2.913400 0.956558 -1.857432 0
M  V30 10 C 1.950988 1.221242 -0.897427 0
M  V30 11 C 1.464266 0.236976 -0.065789 0
M  V30 12 O 1.603084 2.587224 -0.943026 0
M  V30 13 C 2.072885 3.094015 -2.204403 0
M  V30 14 O 3.120956 2.182874 -2.461170 0
M  V30 15 N 0.462575 -1.533115 2.983015 0
M  V30 16 C -0.604447 -1.436558 3.798948 0
M  V30 17 C -1.852746 -1.782884 3.271169 0
M  V30 18 C -3.065404 -1.693087 4.131788 0
M  V30 19 F -3.982283 -0.813560 3.604666 0
M  V30 20 F -3.649867 -2.942635 4.311219 0
M  V30 21 F -2.701386 -1.247784 5.376291 0
M  V30 22 H -3.537665 -3.569074 1.605139 0
M  V30 23 H -3.817867 -1.921341 0.821203 0
M  V30 24 H 1.802477 -3.039387 0.675187 0
M  V30 25 H 3.256335 -2.381212 -1.199633 0
M  V30 26 H 4.085219 -0.564200 -2.659223 0
M  V30 27 H 0.712592 0.486809 0.670850 0
M  V30 28 H 1.231178 3.005309 -2.944709 0
M  V30 29 H 2.398396 4.130194 -2.130119 0
M  V30 30 H -0.473075 -1.102388 4.815948 0
M  V30 END ATOM
M  V30 BEGIN BOND
M  V30 1 1 1 2
M  V30 2 2 2 3
M  V30 3 1 3 4
M  V30 4 1 4 5
M  V30 5 1 5 6
M  V30 6 2 6 7
M  V30 7 1 7 8
M  V30 8 2 8 9
M  V30 9 1 9 10
M  V30 10 2 10 11
M  V30 11 1 10 12
M  V30 12 1 12 13
M  V30 13 1 13 14
M  V30 14 2 4 15
M  V30 15 1 15 16
M  V30 16 2 16 17
M  V30 17 1 17 18
M  V30 18 1 18 19
M  V30 19 1 18 20
M  V30 20 1 18 21
M  V30 21 1 17 2
M  V30 22 1 11 6
M  V30 23 1 14 9
M  V30 24 1 1 22
M  V30 25 1 1 23
M  V30 26 1 5 24
M  V30 27 1 7 25
M  V30 28 1 8 26
M  V30 29 1 11 27
M  V30 30 1 13 28
M  V30 31 1 13 29
M  V30 32 1 16 30
M  V30 END BOND
M  V30 END CTAB
M  END
>  <Dataset>  (373) 
ChEMBL_Kinases

>  <Ligand_Instance>  (373) 
nan

>  <PDB_ID>  (373) 
nan

>  <Standardized_SMILES>  (373) 
Nc1nc(Nc2ccc3c(c2)OCO3)ncc1C(F)(F)F

>  <Name>  (373) 
nan

>  <Pocket>  (373) 
nan

>  <ATP_Site>  (373) 
nan

>  <Peripheral>  (373) 
nan

>  <Num_H_Atoms_ProtBoundConf>  (373) 
nan

>  <Num_Resolved_Atoms>  (373) 
nan

>  <Num_Not_Resolved_Atoms>  (373) 
nan

$$$$
CHEMBL4794106
     RDKit          3D

  0  0  0  0  0  0  0  0  0  0999 V3000
M  V30 BEGIN CTAB
M  V30 COUNTS 86 91 0 0 0
M  V30 BEGIN ATOM
M  V30 1 C -2.092255 -6.648936 0.343016 0
M  V30 2 C -1.087000 -5.708359 0.978736 0
M  V30 3 O -0.121716 -5.388541 0.011631 0
M  V30 4 C 0.960984 -4.558567 0.203501 0
M  V30 5 C 1.241118 -3.923142 1.392869 0
M  V30 6 C 2.342425 -3.103996 1.516141 0
M  V30 7 C 3.235879 -2.854782 0.488950 0
M  V30 8 C 4.438215 -2.044099 0.445731 0
M  V30 9 N 4.314020 -0.655927 0.148548 0
M  V30 10 C 3.565150 -0.183473 -0.990703 0
M  V30 11 N 2.536416 -0.892945 -1.476311 0
M  V30 12 C 1.890327 -0.507591 -2.591889 0
M  V30 13 N 0.830608 -1.376937 -2.953074 0
M  V30 14 C -0.464737 -1.168886 -2.376412 0
M  V30 15 C -0.645065 -0.122540 -1.470085 0
M  V30 16 C -1.873882 0.103002 -0.888338 0
M  V30 17 C -2.973243 -0.679942 -1.165701 0
M  V30 18 C -4.271347 -0.445843 -0.549077 0
M  V30 19 O -5.253874 -1.180388 -0.845008 0
M  V30 20 N -4.466848 0.601908 0.390460 0
M  V30 21 C -5.666200 0.985132 1.098886 0
M  V30 22 C -5.350695 0.950760 2.565059 0
M  V30 23 C -6.097526 1.986453 3.374979 0
M  V30 24 N -5.816118 3.332445 2.921211 0
M  V30 25 C -4.901469 4.022930 3.809734 0
M  V30 26 C -5.236395 3.337427 1.590439 0
M  V30 27 C -6.048266 2.401892 0.731061 0
M  V30 28 C -2.799099 -1.711360 -2.058325 0
M  V30 29 C -1.567647 -1.973701 -2.670947 0
M  V30 30 O -1.473622 -2.951753 -3.495318 0
M  V30 31 C -1.538555 -3.968218 -4.298306 0
M  V30 32 N 2.281835 0.622846 -3.246449 0
M  V30 33 C 3.323482 1.343455 -2.753300 0
M  V30 34 C 3.991003 0.964557 -1.615567 0
M  V30 35 N 4.980722 1.839369 -1.114050 0
M  V30 36 C 5.566803 2.927751 -1.627083 0
M  V30 37 C 5.342508 3.672103 -2.875542 0
M  V30 38 N 6.499460 3.234772 -0.676143 0
M  V30 39 N 6.460210 2.387117 0.321287 0
M  V30 40 C 5.497452 1.484535 0.070740 0
M  V30 41 C 4.986853 0.351601 0.936586 0 CFG=1
M  V30 42 C 3.996479 0.991157 1.875688 0
M  V30 43 C 3.337500 0.093560 2.849981 0
M  V30 44 C 2.893697 -3.532381 -0.693633 0
M  V30 45 C 1.808588 -4.357734 -0.865503 0
M  V30 46 H -3.124199 -6.470304 0.742955 0
M  V30 47 H -1.821384 -7.716103 0.501087 0
M  V30 48 H -2.177208 -6.508806 -0.761863 0
M  V30 49 H -0.619646 -6.236925 1.809078 0
M  V30 50 H -1.605205 -4.810292 1.391465 0
M  V30 51 H 0.594802 -4.065942 2.242246 0
M  V30 52 H 2.562259 -2.621923 2.439149 0
M  V30 53 H 4.924709 -2.128714 1.460553 0
M  V30 54 H 5.175100 -2.564717 -0.224273 0
M  V30 55 H 0.896865 -2.180238 -3.617251 0
M  V30 56 H 0.216366 0.498072 -1.245269 0
M  V30 57 H -1.912666 0.921093 -0.214483 0
M  V30 58 H -3.695863 1.241588 0.677080 0
M  V30 59 H -6.533400 0.342482 0.832924 0
M  V30 60 H -5.662484 -0.038945 2.956293 0
M  V30 61 H -4.246765 1.044107 2.739184 0
M  V30 62 H -7.160893 1.752190 3.364306 0
M  V30 63 H -5.725536 1.891935 4.423023 0
M  V30 64 H -4.964233 5.113451 3.628490 0
M  V30 65 H -5.064122 3.797810 4.863364 0
M  V30 66 H -3.855720 3.723056 3.518913 0
M  V30 67 H -4.221528 2.902028 1.705292 0
M  V30 68 H -5.142407 4.341999 1.176529 0
M  V30 69 H -7.138846 2.546440 0.885106 0
M  V30 70 H -5.779223 2.616169 -0.322370 0
M  V30 71 H -3.654457 -2.325547 -2.276361 0
M  V30 72 H -2.477890 -4.596940 -4.196845 0
M  V30 73 H -1.440768 -3.653626 -5.379429 0
M  V30 74 H -0.682615 -4.689902 -4.131519 0
M  V30 75 H 3.477041 2.185457 -3.393742 0
M  V30 76 H 5.558207 3.104926 -3.802150 0
M  V30 77 H 6.127325 4.494137 -2.898865 0
M  V30 78 H 4.392051 4.254396 -2.900707 0
M  V30 79 H 5.875676 -0.039336 1.460433 0
M  V30 80 H 3.188159 1.505231 1.292338 0
M  V30 81 H 4.496925 1.827537 2.429979 0
M  V30 82 H 2.331952 -0.260056 2.529429 0
M  V30 83 H 3.116252 0.632919 3.822181 0
M  V30 84 H 3.960256 -0.759988 3.154635 0
M  V30 85 H 3.520653 -3.444098 -1.598784 0
M  V30 86 H 1.603768 -4.847349 -1.803215 0
M  V30 END ATOM
M  V30 BEGIN BOND
M  V30 1 1 1 2
M  V30 2 1 2 3
M  V30 3 1 3 4
M  V30 4 2 4 5
M  V30 5 1 5 6
M  V30 6 2 6 7
M  V30 7 1 7 8
M  V30 8 1 8 9
M  V30 9 1 9 10
M  V30 10 2 10 11
M  V30 11 1 11 12
M  V30 12 1 12 13
M  V30 13 1 13 14
M  V30 14 2 14 15
M  V30 15 1 15 16
M  V30 16 2 16 17
M  V30 17 1 17 18
M  V30 18 2 18 19
M  V30 19 1 18 20
M  V30 20 1 20 21
M  V30 21 1 21 22
M  V30 22 1 22 23
M  V30 23 1 23 24
M  V30 24 1 24 25
M  V30 25 1 24 26
M  V30 26 1 26 27
M  V30 27 1 17 28
M  V30 28 2 28 29
M  V30 29 1 29 30
M  V30 30 1 30 31
M  V30 31 2 12 32
M  V30 32 1 32 33
M  V30 33 2 33 34
M  V30 34 1 34 35
M  V30 35 1 35 36
M  V30 36 1 36 37
M  V30 37 2 36 38
M  V30 38 1 38 39
M  V30 39 2 39 40
M  V30 40 1 40 41
M  V30 41 1 41 42
M  V30 42 1 42 43
M  V30 43 1 7 44
M  V30 44 2 44 45
M  V30 45 1 45 4
M  V30 46 1 41 9
M  V30 47 1 34 10
M  V30 48 1 40 35
M  V30 49 1 29 14
M  V30 50 1 27 21
M  V30 51 1 1 46
M  V30 52 1 1 47
M  V30 53 1 1 48
M  V30 54 1 2 49
M  V30 55 1 2 50
M  V30 56 1 5 51
M  V30 57 1 6 52
M  V30 58 1 8 53
M  V30 59 1 8 54
M  V30 60 1 13 55
M  V30 61 1 15 56
M  V30 62 1 16 57
M  V30 63 1 20 58
M  V30 64 1 21 59
M  V30 65 1 22 60
M  V30 66 1 22 61
M  V30 67 1 23 62
M  V30 68 1 23 63
M  V30 69 1 25 64
M  V30 70 1 25 65
M  V30 71 1 25 66
M  V30 72 1 26 67
M  V30 73 1 26 68
M  V30 74 1 27 69
M  V30 75 1 27 70
M  V30 76 1 28 71
M  V30 77 1 31 72
M  V30 78 1 31 73
M  V30 79 1 31 74
M  V30 80 1 33 75
M  V30 81 1 37 76
M  V30 82 1 37 77
M  V30 83 1 37 78
M  V30 84 1 41 79 CFG=1
M  V30 85 1 42 80
M  V30 86 1 42 81
M  V30 87 1 43 82
M  V30 88 1 43 83
M  V30 89 1 43 84
M  V30 90 1 44 85
M  V30 91 1 45 86
M  V30 END BOND
M  V30 END CTAB
M  END
>  <Dataset>  (374) 
ChEMBL_Kinases

>  <Ligand_Instance>  (374) 
nan

>  <PDB_ID>  (374) 
nan

>  <Standardized_SMILES>  (374) 
CCOc1ccc(CN2c3nc(Nc4ccc(C(=O)NC5CCN(C)CC5)cc4OC)ncc3-n3c(C)nnc3[C@H]2CC)cc1

>  <Name>  (374) 
nan

>  <Pocket>  (374) 
nan

>  <ATP_Site>  (374) 
nan

>  <Peripheral>  (374) 
nan

>  <Num_H_Atoms_ProtBoundConf>  (374) 
nan

>  <Num_Resolved_Atoms>  (374) 
nan

>  <Num_Not_Resolved_Atoms>  (374) 
nan

$$$$
CHEMBL4794134
     RDKit          3D

  0  0  0  0  0  0  0  0  0  0999 V3000
M  V30 BEGIN CTAB
M  V30 COUNTS 68 72 0 0 0
M  V30 BEGIN ATOM
M  V30 1 C 5.953813 -1.570402 2.896201 0
M  V30 2 C 5.015794 -2.635404 2.426243 0
M  V30 3 C 4.307203 -3.296146 3.436200 0
M  V30 4 C 3.411227 -4.310202 3.127211 0
M  V30 5 C 3.238301 -4.648556 1.800394 0
M  V30 6 C 3.928746 -4.007319 0.792552 0
M  V30 7 C 4.814053 -3.005762 1.091789 0
M  V30 8 N 5.564542 -2.305655 0.113260 0
M  V30 9 C 5.557284 -0.922126 -0.203854 0
M  V30 10 C 4.731650 -0.008197 0.406952 0
M  V30 11 C 4.761226 1.340112 0.067747 0
M  V30 12 C 3.856124 2.258443 0.755355 0
M  V30 13 N 3.868157 3.402560 1.463106 0
M  V30 14 O 2.652814 3.714798 1.816943 0
M  V30 15 C 1.796038 2.823825 1.377547 0
M  V30 16 C 0.337945 2.753342 1.526216 0
M  V30 17 C -0.377826 1.703120 0.964372 0
M  V30 18 C -1.748362 1.683516 1.135785 0
M  V30 19 C -2.465784 2.636934 1.828962 0
M  V30 20 N -3.878723 2.543617 1.965869 0
M  V30 21 S -5.136278 2.231629 0.858880 0
M  V30 22 O -6.426813 2.266348 1.627729 0
M  V30 23 O -5.210811 3.276325 -0.226953 0
M  V30 24 C -5.044841 0.673642 0.088267 0
M  V30 25 C -5.600864 -0.478586 0.641770 0
M  V30 26 C -5.542483 -1.724583 0.033440 0
M  V30 27 C -4.904842 -1.850997 -1.183625 0
M  V30 28 C -4.823874 -3.152734 -1.853741 0
M  V30 29 C -4.084550 -3.059005 -3.183240 0
M  V30 30 C -6.185061 -3.758602 -2.099655 0
M  V30 31 C -4.031828 -4.134938 -1.001852 0
M  V30 32 C -4.328791 -0.743680 -1.791450 0
M  V30 33 C -4.414390 0.471430 -1.145824 0
M  V30 34 C -1.703026 3.677489 2.378500 0
M  V30 35 C -0.333074 3.732906 2.229657 0
M  V30 36 N 2.541665 1.917578 0.717295 0
M  V30 37 C 5.651085 1.757687 -0.913190 0
M  V30 38 C 6.458122 0.803805 -1.496645 0
M  V30 39 N 6.411330 -0.503326 -1.149594 0
M  V30 40 H 5.391158 -0.661530 3.163112 0
M  V30 41 H 6.701609 -1.319155 2.102081 0
M  V30 42 H 6.510880 -1.915170 3.807306 0
M  V30 43 H 4.451832 -3.020080 4.486714 0
M  V30 44 H 2.899005 -4.775136 3.973765 0
M  V30 45 H 2.520439 -5.452556 1.618557 0
M  V30 46 H 3.768621 -4.298918 -0.241286 0
M  V30 47 H 6.153392 -2.989907 -0.364297 0
M  V30 48 H 4.040805 -0.308321 1.156755 0
M  V30 49 H 0.170617 0.947868 0.418000 0
M  V30 50 H -2.212986 0.838073 0.671864 0
M  V30 51 H -4.061839 2.715215 2.985101 0
M  V30 52 H -6.105354 -0.402060 1.596081 0
M  V30 53 H -6.001907 -2.581612 0.528659 0
M  V30 54 H -4.121226 -4.023161 -3.723963 0
M  V30 55 H -3.014953 -2.813155 -3.039386 0
M  V30 56 H -4.613446 -2.315300 -3.843895 0
M  V30 57 H -6.669656 -3.284771 -2.967001 0
M  V30 58 H -6.072247 -4.854625 -2.313331 0
M  V30 59 H -6.815817 -3.689594 -1.187046 0
M  V30 60 H -3.049332 -3.645995 -0.797217 0
M  V30 61 H -3.831922 -5.052032 -1.574558 0
M  V30 62 H -4.532485 -4.350272 -0.027856 0
M  V30 63 H -3.814171 -0.786933 -2.749420 0
M  V30 64 H -3.963092 1.356549 -1.615412 0
M  V30 65 H -2.238081 4.453393 2.936125 0
M  V30 66 H 0.255437 4.539888 2.656349 0
M  V30 67 H 5.668259 2.810920 -1.172413 0
M  V30 68 H 7.154334 1.144627 -2.267239 0
M  V30 END ATOM
M  V30 BEGIN BOND
M  V30 1 1 1 2
M  V30 2 2 2 3
M  V30 3 1 3 4
M  V30 4 2 4 5
M  V30 5 1 5 6
M  V30 6 2 6 7
M  V30 7 1 7 8
M  V30 8 1 8 9
M  V30 9 2 9 10
M  V30 10 1 10 11
M  V30 11 1 11 12
M  V30 12 2 12 13
M  V30 13 1 13 14
M  V30 14 1 14 15
M  V30 15 1 15 16
M  V30 16 2 16 17
M  V30 17 1 17 18
M  V30 18 2 18 19
M  V30 19 1 19 20
M  V30 20 1 20 21
M  V30 21 2 21 22
M  V30 22 2 21 23
M  V30 23 1 21 24
M  V30 24 2 24 25
M  V30 25 1 25 26
M  V30 26 2 26 27
M  V30 27 1 27 28
M  V30 28 1 28 29
M  V30 29 1 28 30
M  V30 30 1 28 31
M  V30 31 1 27 32
M  V30 32 2 32 33
M  V30 33 1 19 34
M  V30 34 2 34 35
M  V30 35 2 15 36
M  V30 36 2 11 37
M  V30 37 1 37 38
M  V30 38 2 38 39
M  V30 39 1 7 2
M  V30 40 1 39 9
M  V30 41 1 36 12
M  V30 42 1 35 16
M  V30 43 1 33 24
M  V30 44 1 1 40
M  V30 45 1 1 41
M  V30 46 1 1 42
M  V30 47 1 3 43
M  V30 48 1 4 44
M  V30 49 1 5 45
M  V30 50 1 6 46
M  V30 51 1 8 47
M  V30 52 1 10 48
M  V30 53 1 17 49
M  V30 54 1 18 50
M  V30 55 1 20 51
M  V30 56 1 25 52
M  V30 57 1 26 53
M  V30 58 1 29 54
M  V30 59 1 29 55
M  V30 60 1 29 56
M  V30 61 1 30 57
M  V30 62 1 30 58
M  V30 63 1 30 59
M  V30 64 1 31 60
M  V30 65 1 31 61
M  V30 66 1 31 62
M  V30 67 1 32 63
M  V30 68 1 33 64
M  V30 69 1 34 65
M  V30 70 1 35 66
M  V30 71 1 37 67
M  V30 72 1 38 68
M  V30 END BOND
M  V30 END CTAB
M  END
>  <Dataset>  (375) 
ChEMBL_Kinases

>  <Ligand_Instance>  (375) 
nan

>  <PDB_ID>  (375) 
nan

>  <Standardized_SMILES>  (375) 
Cc1ccccc1Nc1cc(-c2noc(-c3ccc(NS(=O)(=O)c4ccc(C(C)(C)C)cc4)cc3)n2)ccn1

>  <Name>  (375) 
nan

>  <Pocket>  (375) 
nan

>  <ATP_Site>  (375) 
nan

>  <Peripheral>  (375) 
nan

>  <Num_H_Atoms_ProtBoundConf>  (375) 
nan

>  <Num_Resolved_Atoms>  (375) 
nan

>  <Num_Not_Resolved_Atoms>  (375) 
nan

$$$$
CHEMBL4794140
     RDKit          3D

  0  0  0  0  0  0  0  0  0  0999 V3000
M  V30 BEGIN CTAB
M  V30 COUNTS 64 68 0 0 0
M  V30 BEGIN ATOM
M  V30 1 O 3.302713 0.860546 5.084666 0
M  V30 2 S 2.027065 0.351605 4.448996 0
M  V30 3 O 1.465763 -0.673290 5.425571 0
M  V30 4 N 2.347106 -0.474361 3.002663 0
M  V30 5 C 2.910853 0.326788 1.966418 0
M  V30 6 C 3.176740 -0.451684 0.701725 0
M  V30 7 C 3.771683 0.385595 -0.399045 0
M  V30 8 N 4.009223 -0.409283 -1.587645 0
M  V30 9 C 2.968581 -1.076705 -2.286640 0
M  V30 10 N 3.255889 -1.810713 -3.382832 0
M  V30 11 C 2.304288 -2.462728 -4.081370 0
M  V30 12 C 0.998686 -2.362716 -3.643160 0
M  V30 13 C 0.666079 -1.637413 -2.548819 0
M  V30 14 C -0.636007 -1.423398 -1.943867 0
M  V30 15 N -1.334131 -0.255656 -1.868551 0
M  V30 16 C -2.488700 -0.507186 -1.230668 0
M  V30 17 C -3.592408 0.405318 -0.892370 0
M  V30 18 C -4.716298 -0.029885 -0.226285 0
M  V30 19 C -5.759560 0.812556 0.097993 0
M  V30 20 C -5.701463 2.147260 -0.246035 0
M  V30 21 C -4.562449 2.597284 -0.923183 0
M  V30 22 C -3.523965 1.739080 -1.241316 0
M  V30 23 N -2.498612 -1.825857 -0.915517 0
M  V30 24 C -1.352944 -2.419442 -1.350246 0
M  V30 25 C -1.120482 -3.841580 -1.131675 0
M  V30 26 C -0.993167 -4.887624 -2.021255 0
M  V30 27 C -0.769624 -6.158732 -1.535543 0
M  V30 28 C -0.666817 -6.433983 -0.188741 0
M  V30 29 F -0.448695 -7.691249 0.220350 0
M  V30 30 C -0.792739 -5.395054 0.708942 0
M  V30 31 O -0.682650 -5.716918 2.052721 0
M  V30 32 C -1.016985 -4.114854 0.238562 0
M  V30 33 N 1.689399 -1.022143 -1.918441 0
M  V30 34 C 0.883501 1.635503 4.291355 0
M  V30 35 C 1.450862 2.872629 3.987099 0
M  V30 36 C 0.614667 3.980215 3.837698 0
M  V30 37 C -0.771185 3.910291 3.978811 0
M  V30 38 C -1.306047 2.657641 4.283187 0
M  V30 39 F -2.639780 2.544387 4.428356 0
M  V30 40 C -0.486582 1.558316 4.432402 0
M  V30 41 H 2.696217 -1.428627 3.107845 0
M  V30 42 H 3.905578 0.695960 2.354417 0
M  V30 43 H 2.291962 1.217812 1.818692 0
M  V30 44 H 3.864578 -1.282212 0.958190 0
M  V30 45 H 2.233497 -0.941858 0.390456 0
M  V30 46 H 2.963999 1.107730 -0.699473 0
M  V30 47 H 4.630285 0.972547 -0.092348 0
M  V30 48 H 4.991408 -0.482526 -1.928638 0
M  V30 49 H 2.505108 -3.052785 -4.955763 0
M  V30 50 H 0.154323 -2.853218 -4.142941 0
M  V30 51 H -1.042037 0.678148 -2.234367 0
M  V30 52 H -4.805708 -1.067805 0.063600 0
M  V30 53 H -6.627958 0.417437 0.626883 0
M  V30 54 H -6.514964 2.842112 -0.002231 0
M  V30 55 H -4.539112 3.664525 -1.187046 0
M  V30 56 H -2.666794 2.117368 -1.760382 0
M  V30 57 H -1.090656 -4.562389 -3.033717 0
M  V30 58 H -0.682585 -6.920331 -2.318104 0
M  V30 59 H -1.274163 -6.386667 2.513478 0
M  V30 60 H -1.096575 -3.388755 1.056399 0
M  V30 61 H 2.518678 3.038156 3.855350 0
M  V30 62 H 1.044095 4.946230 3.600971 0
M  V30 63 H -1.362000 4.806677 3.850041 0
M  V30 64 H -0.868517 0.574530 4.668094 0
M  V30 END ATOM
M  V30 BEGIN BOND
M  V30 1 2 1 2
M  V30 2 2 2 3
M  V30 3 1 2 4
M  V30 4 1 4 5
M  V30 5 1 5 6
M  V30 6 1 6 7
M  V30 7 1 7 8
M  V30 8 1 8 9
M  V30 9 2 9 10
M  V30 10 1 10 11
M  V30 11 2 11 12
M  V30 12 1 12 13
M  V30 13 1 13 14
M  V30 14 1 14 15
M  V30 15 1 15 16
M  V30 16 1 16 17
M  V30 17 2 17 18
M  V30 18 1 18 19
M  V30 19 2 19 20
M  V30 20 1 20 21
M  V30 21 2 21 22
M  V30 22 2 16 23
M  V30 23 1 23 24
M  V30 24 1 24 25
M  V30 25 2 25 26
M  V30 26 1 26 27
M  V30 27 2 27 28
M  V30 28 1 28 29
M  V30 29 1 28 30
M  V30 30 1 30 31
M  V30 31 2 30 32
M  V30 32 2 13 33
M  V30 33 1 2 34
M  V30 34 2 34 35
M  V30 35 1 35 36
M  V30 36 2 36 37
M  V30 37 1 37 38
M  V30 38 1 38 39
M  V30 39 2 38 40
M  V30 40 1 33 9
M  V30 41 1 40 34
M  V30 42 2 24 14
M  V30 43 1 32 25
M  V30 44 1 22 17
M  V30 45 1 4 41
M  V30 46 1 5 42
M  V30 47 1 5 43
M  V30 48 1 6 44
M  V30 49 1 6 45
M  V30 50 1 7 46
M  V30 51 1 7 47
M  V30 52 1 8 48
M  V30 53 1 11 49
M  V30 54 1 12 50
M  V30 55 1 15 51
M  V30 56 1 18 52
M  V30 57 1 19 53
M  V30 58 1 20 54
M  V30 59 1 21 55
M  V30 60 1 22 56
M  V30 61 1 26 57
M  V30 62 1 27 58
M  V30 63 1 31 59
M  V30 64 1 32 60
M  V30 65 1 35 61
M  V30 66 1 36 62
M  V30 67 1 37 63
M  V30 68 1 40 64
M  V30 END BOND
M  V30 END CTAB
M  END
>  <Dataset>  (376) 
ChEMBL_Kinases

>  <Ligand_Instance>  (376) 
nan

>  <PDB_ID>  (376) 
nan

>  <Standardized_SMILES>  (376) 
O=S(=O)(NCCCNc1nccc(-c2[nH]c(-c3ccccc3)nc2-c2ccc(F)c(O)c2)n1)c1cccc(F)c1

>  <Name>  (376) 
nan

>  <Pocket>  (376) 
nan

>  <ATP_Site>  (376) 
nan

>  <Peripheral>  (376) 
nan

>  <Num_H_Atoms_ProtBoundConf>  (376) 
nan

>  <Num_Resolved_Atoms>  (376) 
nan

>  <Num_Not_Resolved_Atoms>  (376) 
nan

$$$$
CHEMBL4794141
     RDKit          3D

  0  0  0  0  0  0  0  0  0  0999 V3000
M  V30 BEGIN CTAB
M  V30 COUNTS 59 63 0 0 0
M  V30 BEGIN ATOM
M  V30 1 O -3.784647 3.422421 -1.590347 0
M  V30 2 S -3.737970 2.840534 -0.202321 0
M  V30 3 O -5.073150 2.947384 0.469968 0
M  V30 4 N -3.274613 1.174858 -0.402101 0
M  V30 5 C -3.130791 0.466423 0.827063 0
M  V30 6 C -2.715620 -0.946819 0.594175 0
M  V30 7 C -3.575109 -1.809863 -0.243042 0
M  V30 8 N -3.753115 -1.425043 -1.605321 0
M  V30 9 C -2.457516 -1.365241 -2.203781 0
M  V30 10 N -2.202365 -0.311260 -3.043678 0
M  V30 11 C -0.998498 -0.216700 -3.646217 0
M  V30 12 C 0.020975 -1.108338 -3.488318 0
M  V30 13 C -0.275599 -2.171001 -2.625891 0
M  V30 14 C 0.750465 -3.192140 -2.430318 0
M  V30 15 C 1.947439 -2.881639 -1.880124 0
M  V30 16 C 2.607504 -1.701398 -1.345679 0
M  V30 17 C 2.258143 -1.050855 -0.204747 0
M  V30 18 C 2.984303 0.064033 0.174389 0
M  V30 19 C 4.041790 0.502830 -0.594563 0
M  V30 20 C 4.420576 -0.135141 -1.756904 0
M  V30 21 F 5.437892 0.274803 -2.520314 0
M  V30 22 C 3.673075 -1.241428 -2.100564 0
M  V30 23 N 2.684944 -4.000834 -1.833429 0
M  V30 24 C 1.913824 -5.026009 -2.371207 0
M  V30 25 S 1.800837 -6.775681 -2.808348 0
M  V30 26 C 0.124908 -6.657654 -3.458716 0
M  V30 27 C -0.188544 -5.324527 -3.284767 0
M  V30 28 N 0.719617 -4.510024 -2.736330 0
M  V30 29 N -1.480763 -2.244770 -2.035529 0
M  V30 30 C -2.484676 3.652004 0.687377 0
M  V30 31 C -1.357804 4.048507 -0.053598 0
M  V30 32 C -0.301167 4.738431 0.502958 0
M  V30 33 C -0.347012 5.058605 1.858423 0
M  V30 34 C 0.798196 5.825789 2.415352 0
M  V30 35 F 1.159666 6.813399 1.517995 0
M  V30 36 F 0.318405 6.513886 3.536010 0
M  V30 37 F 1.858436 5.051337 2.769739 0
M  V30 38 C -1.436750 4.685267 2.620030 0
M  V30 39 C -2.467859 3.997639 2.020877 0
M  V30 40 H -4.000037 0.719967 -1.031283 0
M  V30 41 H -2.356495 0.925796 1.493568 0
M  V30 42 H -4.075713 0.472813 1.437448 0
M  V30 43 H -2.708657 -1.426526 1.625364 0
M  V30 44 H -1.637352 -0.961199 0.279817 0
M  V30 45 H -3.178518 -2.846890 -0.173328 0
M  V30 46 H -4.572989 -1.862609 0.256540 0
M  V30 47 H -4.550938 -1.186895 -2.271284 0
M  V30 48 H -0.786261 0.631766 -4.319005 0
M  V30 49 H 0.961855 -0.967857 -4.000548 0
M  V30 50 H 1.443411 -1.409588 0.365713 0
M  V30 51 H 2.725957 0.588658 1.068393 0
M  V30 52 H 4.654322 1.382506 -0.338276 0
M  V30 53 H 3.984434 -1.739006 -3.029453 0
M  V30 54 H -0.357062 -7.512969 -3.843899 0
M  V30 55 H -1.184214 -5.110173 -3.639914 0
M  V30 56 H -1.280972 3.819149 -1.095991 0
M  V30 57 H 0.554668 5.030792 -0.089497 0
M  V30 58 H -1.470681 4.930433 3.655616 0
M  V30 59 H -3.356253 3.674153 2.569584 0
M  V30 END ATOM
M  V30 BEGIN BOND
M  V30 1 2 1 2
M  V30 2 2 2 3
M  V30 3 1 2 4
M  V30 4 1 4 5
M  V30 5 1 5 6
M  V30 6 1 6 7
M  V30 7 1 7 8
M  V30 8 1 8 9
M  V30 9 2 9 10
M  V30 10 1 10 11
M  V30 11 2 11 12
M  V30 12 1 12 13
M  V30 13 1 13 14
M  V30 14 2 14 15
M  V30 15 1 15 16
M  V30 16 2 16 17
M  V30 17 1 17 18
M  V30 18 2 18 19
M  V30 19 1 19 20
M  V30 20 1 20 21
M  V30 21 2 20 22
M  V30 22 1 15 23
M  V30 23 2 23 24
M  V30 24 1 24 25
M  V30 25 1 25 26
M  V30 26 2 26 27
M  V30 27 1 27 28
M  V30 28 2 13 29
M  V30 29 1 2 30
M  V30 30 2 30 31
M  V30 31 1 31 32
M  V30 32 2 32 33
M  V30 33 1 33 34
M  V30 34 1 34 35
M  V30 35 1 34 36
M  V30 36 1 34 37
M  V30 37 1 33 38
M  V30 38 2 38 39
M  V30 39 1 29 9
M  V30 40 1 39 30
M  V30 41 1 28 14
M  V30 42 1 22 16
M  V30 43 1 28 24
M  V30 44 1 4 40
M  V30 45 1 5 41
M  V30 46 1 5 42
M  V30 47 1 6 43
M  V30 48 1 6 44
M  V30 49 1 7 45
M  V30 50 1 7 46
M  V30 51 1 8 47
M  V30 52 1 11 48
M  V30 53 1 12 49
M  V30 54 1 17 50
M  V30 55 1 18 51
M  V30 56 1 19 52
M  V30 57 1 22 53
M  V30 58 1 26 54
M  V30 59 1 27 55
M  V30 60 1 31 56
M  V30 61 1 32 57
M  V30 62 1 38 58
M  V30 63 1 39 59
M  V30 END BOND
M  V30 END CTAB
M  END
>  <Dataset>  (377) 
ChEMBL_Kinases

>  <Ligand_Instance>  (377) 
nan

>  <PDB_ID>  (377) 
nan

>  <Standardized_SMILES>  (377) 
O=S(=O)(NCCCNc1nccc(-c2c(-c3cccc(F)c3)nc3sccn23)n1)c1ccc(C(F)(F)F)cc1

>  <Name>  (377) 
nan

>  <Pocket>  (377) 
nan

>  <ATP_Site>  (377) 
nan

>  <Peripheral>  (377) 
nan

>  <Num_H_Atoms_ProtBoundConf>  (377) 
nan

>  <Num_Resolved_Atoms>  (377) 
nan

>  <Num_Not_Resolved_Atoms>  (377) 
nan

$$$$
CHEMBL4794151
     RDKit          3D

  0  0  0  0  0  0  0  0  0  0999 V3000
M  V30 BEGIN CTAB
M  V30 COUNTS 37 40 0 0 0
M  V30 BEGIN ATOM
M  V30 1 F -0.643460 -4.421464 3.979457 0
M  V30 2 C -0.568036 -4.830466 2.659150 0
M  V30 3 F -1.523065 -5.835098 2.475284 0
M  V30 4 F 0.658263 -5.414069 2.441802 0
M  V30 5 C -0.841171 -3.725661 1.724420 0
M  V30 6 C -1.878607 -3.760264 0.822566 0
M  V30 7 N -2.072960 -2.722021 -0.000352 0
M  V30 8 C -1.323861 -1.612371 -0.028118 0
M  V30 9 N -1.611003 -0.564601 -0.939560 0
M  V30 10 C -0.917166 0.661937 -1.089847 0
M  V30 11 C 0.180057 1.064906 -0.366118 0
M  V30 12 C 0.835267 2.265126 -0.534256 0
M  V30 13 C 0.369436 3.137980 -1.494604 0
M  V30 14 N 0.769400 4.350096 -1.897191 0
M  V30 15 N -0.038603 4.773093 -2.880428 0
M  V30 16 C -0.967182 3.833897 -3.118710 0
M  V30 17 C -0.720557 2.779154 -2.239523 0
M  V30 18 C -1.335947 1.569835 -2.030277 0
M  V30 19 N -0.334087 -1.645522 0.873721 0
M  V30 20 C -0.047731 -2.605665 1.729649 0
M  V30 21 N 1.066152 -2.472666 2.637933 0
M  V30 22 C 2.000550 -1.379651 2.785562 0
M  V30 23 C 3.100552 -1.399239 3.776772 0
M  V30 24 C 3.447035 -1.694489 2.353370 0
M  V30 25 H -2.529989 -4.616963 0.778974 0
M  V30 26 H -2.428791 -0.722904 -1.568299 0
M  V30 27 H 0.582677 0.434285 0.386451 0
M  V30 28 H 1.695862 2.535260 0.062128 0
M  V30 29 H 1.574763 4.915875 -1.534880 0
M  V30 30 H -1.786885 3.843423 -3.853681 0
M  V30 31 H -2.193396 1.355467 -2.658745 0
M  V30 32 H 1.244251 -3.262072 3.290566 0
M  V30 33 H 1.605034 -0.428668 2.378537 0
M  V30 34 H 3.107849 -2.217032 4.525331 0
M  V30 35 H 3.455928 -0.417107 4.147851 0
M  V30 36 H 3.988950 -0.976211 1.733747 0
M  V30 37 H 3.678116 -2.752555 2.114290 0
M  V30 END ATOM
M  V30 BEGIN BOND
M  V30 1 1 1 2
M  V30 2 1 2 3
M  V30 3 1 2 4
M  V30 4 1 2 5
M  V30 5 2 5 6
M  V30 6 1 6 7
M  V30 7 2 7 8
M  V30 8 1 8 9
M  V30 9 1 9 10
M  V30 10 2 10 11
M  V30 11 1 11 12
M  V30 12 2 12 13
M  V30 13 1 13 14
M  V30 14 1 14 15
M  V30 15 2 15 16
M  V30 16 1 16 17
M  V30 17 2 17 18
M  V30 18 1 8 19
M  V30 19 2 19 20
M  V30 20 1 20 21
M  V30 21 1 21 22
M  V30 22 1 22 23
M  V30 23 1 23 24
M  V30 24 1 20 5
M  V30 25 1 24 22
M  V30 26 1 18 10
M  V30 27 1 17 13
M  V30 28 1 6 25
M  V30 29 1 9 26
M  V30 30 1 11 27
M  V30 31 1 12 28
M  V30 32 1 14 29
M  V30 33 1 16 30
M  V30 34 1 18 31
M  V30 35 1 21 32
M  V30 36 1 22 33
M  V30 37 1 23 34
M  V30 38 1 23 35
M  V30 39 1 24 36
M  V30 40 1 24 37
M  V30 END BOND
M  V30 END CTAB
M  END
>  <Dataset>  (378) 
ChEMBL_Kinases

>  <Ligand_Instance>  (378) 
nan

>  <PDB_ID>  (378) 
nan

>  <Standardized_SMILES>  (378) 
FC(F)(F)c1cnc(Nc2ccc3[nH]ncc3c2)nc1NC1CC1

>  <Name>  (378) 
nan

>  <Pocket>  (378) 
nan

>  <ATP_Site>  (378) 
nan

>  <Peripheral>  (378) 
nan

>  <Num_H_Atoms_ProtBoundConf>  (378) 
nan

>  <Num_Resolved_Atoms>  (378) 
nan

>  <Num_Not_Resolved_Atoms>  (378) 
nan

$$$$
CHEMBL4794161
     RDKit          3D

  0  0  0  0  0  0  0  0  0  0999 V3000
M  V30 BEGIN CTAB
M  V30 COUNTS 54 58 0 0 0
M  V30 BEGIN ATOM
M  V30 1 C 1.483199 -3.127092 4.780521 0
M  V30 2 N 1.571591 -2.434830 3.517503 0
M  V30 3 C 2.280844 -1.356908 3.150888 0
M  V30 4 C 2.010265 -1.088973 1.824182 0
M  V30 5 C 2.505654 -0.025537 0.958004 0
M  V30 6 C 3.766253 0.456965 1.153529 0
M  V30 7 C 4.216051 1.490369 0.326322 0
M  V30 8 C 3.370111 1.960151 -0.633706 0
M  V30 9 N 3.856820 2.963842 -1.385060 0
M  V30 10 C 3.036106 3.476029 -2.350095 0
M  V30 11 N 1.772849 3.059019 -2.615635 0
M  V30 12 C 1.246172 2.035168 -1.868429 0
M  V30 13 N -0.043641 1.451010 -1.968709 0
M  V30 14 C -0.969432 1.787454 -0.918412 0
M  V30 15 C -0.896855 2.903316 -0.116937 0
M  V30 16 C -1.816106 3.092578 0.918847 0
M  V30 17 C -2.832770 2.166913 1.181208 0
M  V30 18 C -2.902298 1.052523 0.379780 0
M  V30 19 N -3.824404 -0.042524 0.501679 0
M  V30 20 C -3.311617 -1.381585 0.368741 0
M  V30 21 O -2.091133 -1.691063 0.147595 0
M  V30 22 N -3.972406 -2.648368 0.440486 0
M  V30 23 C -2.925926 -3.622661 0.193947 0
M  V30 24 C -2.884138 -3.852241 -1.177225 0
M  V30 25 C -1.948430 -4.731678 -1.706355 0
M  V30 26 C -1.100021 -5.331687 -0.792012 0
M  V30 27 C -1.152314 -5.095404 0.568139 0
M  V30 28 F -0.324746 -5.676273 1.462632 0
M  V30 29 C -2.084690 -4.221039 1.089715 0
M  V30 30 C -1.983619 0.860090 -0.662764 0
M  V30 31 C 2.092279 1.536206 -0.901114 0
M  V30 32 C 1.703785 0.498160 -0.034142 0
M  V30 33 C 1.116016 -2.045798 1.415493 0
M  V30 34 N 0.877741 -2.834790 2.463516 0
M  V30 35 H 1.253815 -4.197494 4.638984 0
M  V30 36 H 2.423110 -3.073394 5.358391 0
M  V30 37 H 0.670525 -2.716063 5.433689 0
M  V30 38 H 2.942659 -0.801880 3.775916 0
M  V30 39 H 4.382399 0.047247 1.925596 0
M  V30 40 H 5.210252 1.875616 0.479969 0
M  V30 41 H 3.353566 4.297698 -3.003770 0
M  V30 42 H -0.352772 0.811826 -2.731583 0
M  V30 43 H -0.111020 3.606748 -0.330064 0
M  V30 44 H -1.759044 3.960732 1.535656 0
M  V30 45 H -3.564910 2.237980 1.944752 0
M  V30 46 H -4.861519 -0.063828 0.682834 0
M  V30 47 H -5.011242 -2.547835 0.650578 0
M  V30 48 H -3.510170 -3.422221 -1.959658 0
M  V30 49 H -1.790952 -5.008253 -2.739678 0
M  V30 50 H -0.326762 -6.036522 -1.095935 0
M  V30 51 H -2.250782 -3.931564 2.113334 0
M  V30 52 H -2.023460 0.001501 -1.317452 0
M  V30 53 H 0.734633 0.056366 -0.115166 0
M  V30 54 H 0.641442 -2.201455 0.450175 0
M  V30 END ATOM
M  V30 BEGIN BOND
M  V30 1 1 1 2
M  V30 2 1 2 3
M  V30 3 2 3 4
M  V30 4 1 4 5
M  V30 5 2 5 6
M  V30 6 1 6 7
M  V30 7 2 7 8
M  V30 8 1 8 9
M  V30 9 2 9 10
M  V30 10 1 10 11
M  V30 11 2 11 12
M  V30 12 1 12 13
M  V30 13 1 13 14
M  V30 14 2 14 15
M  V30 15 1 15 16
M  V30 16 2 16 17
M  V30 17 1 17 18
M  V30 18 1 18 19
M  V30 19 1 19 20
M  V30 20 2 20 21
M  V30 21 1 20 22
M  V30 22 1 22 23
M  V30 23 2 23 24
M  V30 24 1 24 25
M  V30 25 2 25 26
M  V30 26 1 26 27
M  V30 27 1 27 28
M  V30 28 2 27 29
M  V30 29 2 18 30
M  V30 30 1 12 31
M  V30 31 2 31 32
M  V30 32 1 4 33
M  V30 33 2 33 34
M  V30 34 1 34 2
M  V30 35 1 32 5
M  V30 36 1 31 8
M  V30 37 1 30 14
M  V30 38 1 29 23
M  V30 39 1 1 35
M  V30 40 1 1 36
M  V30 41 1 1 37
M  V30 42 1 3 38
M  V30 43 1 6 39
M  V30 44 1 7 40
M  V30 45 1 10 41
M  V30 46 1 13 42
M  V30 47 1 15 43
M  V30 48 1 16 44
M  V30 49 1 17 45
M  V30 50 1 19 46
M  V30 51 1 22 47
M  V30 52 1 24 48
M  V30 53 1 25 49
M  V30 54 1 26 50
M  V30 55 1 29 51
M  V30 56 1 30 52
M  V30 57 1 32 53
M  V30 58 1 33 54
M  V30 END BOND
M  V30 END CTAB
M  END
>  <Dataset>  (379) 
ChEMBL_Kinases

>  <Ligand_Instance>  (379) 
nan

>  <PDB_ID>  (379) 
nan

>  <Standardized_SMILES>  (379) 
Cn1cc(-c2ccc3ncnc(Nc4cccc(NC(=O)Nc5cccc(F)c5)c4)c3c2)cn1

>  <Name>  (379) 
nan

>  <Pocket>  (379) 
nan

>  <ATP_Site>  (379) 
nan

>  <Peripheral>  (379) 
nan

>  <Num_H_Atoms_ProtBoundConf>  (379) 
nan

>  <Num_Resolved_Atoms>  (379) 
nan

>  <Num_Not_Resolved_Atoms>  (379) 
nan

$$$$
CHEMBL4105346
     RDKit          3D

  0  0  0  0  0  0  0  0  0  0999 V3000
M  V30 BEGIN CTAB
M  V30 COUNTS 46 49 0 0 0
M  V30 BEGIN ATOM
M  V30 1 C 1.401547 -4.019381 1.450263 0
M  V30 2 N 0.128545 -3.374057 1.227959 0
M  V30 3 C 0.139107 -2.088502 0.785890 0
M  V30 4 N 1.304668 -1.353597 0.517536 0
M  V30 5 C 1.448648 -0.910878 -0.867073 0
M  V30 6 C 2.894611 -0.733233 -1.224889 0
M  V30 7 N 3.573475 0.216100 -0.385202 0
M  V30 8 C 3.082823 0.275460 0.972158 0 CFG=1
M  V30 9 C 2.342431 1.504872 1.283481 0
M  V30 10 C 1.152336 1.599355 1.958367 0
M  V30 11 C 0.569839 2.838770 2.178541 0
M  V30 12 C 1.205284 3.966139 1.709429 0
M  V30 13 Cl 0.342966 5.464691 2.066615 0
M  V30 14 C 2.403769 3.907424 1.026275 0
M  V30 15 C 2.955709 2.654657 0.824983 0
M  V30 16 C 2.366037 -0.986543 1.396923 0
M  V30 17 N -1.057541 -1.465097 0.576540 0
M  V30 18 C -2.230729 -2.079807 0.792388 0
M  V30 19 C -3.476819 -1.386971 0.549014 0
M  V30 20 C -3.514547 -0.089051 0.091342 0
M  V30 21 C -4.699684 0.577492 -0.143406 0
M  V30 22 N -5.838952 -0.088751 0.092162 0
M  V30 23 C -5.804526 -1.344908 0.535044 0
M  V30 24 N -4.659308 -1.984553 0.759986 0
M  V30 25 C -2.255405 -3.385330 1.241376 0
M  V30 26 C -1.031707 -4.017134 1.453769 0
M  V30 27 O -1.020130 -5.211591 1.864576 0
M  V30 28 H 2.024275 -4.147772 0.562329 0
M  V30 29 H 1.197958 -5.066449 1.830633 0
M  V30 30 H 1.941923 -3.554683 2.327972 0
M  V30 31 H 0.955293 -1.557722 -1.597083 0
M  V30 32 H 0.978509 0.111512 -0.957008 0
M  V30 33 H 2.917015 -0.371546 -2.275573 0
M  V30 34 H 3.367249 -1.737830 -1.187250 0
M  V30 35 H 4.594769 -0.056083 -0.424592 0
M  V30 36 H 3.996631 0.301207 1.627120 0
M  V30 37 H 0.755697 0.646294 2.275836 0
M  V30 38 H -0.373257 2.822172 2.720461 0
M  V30 39 H 2.809373 4.839818 0.705436 0
M  V30 40 H 3.904834 2.664242 0.279204 0
M  V30 41 H 2.112477 -0.867442 2.454880 0
M  V30 42 H 3.164934 -1.775826 1.249155 0
M  V30 43 H -2.565738 0.401472 -0.081192 0
M  V30 44 H -4.687037 1.609482 -0.509954 0
M  V30 45 H -6.730417 -1.898364 0.731576 0
M  V30 46 H -3.198640 -3.894524 1.421902 0
M  V30 END ATOM
M  V30 BEGIN BOND
M  V30 1 1 1 2
M  V30 2 1 2 3
M  V30 3 1 3 4
M  V30 4 1 4 5
M  V30 5 1 5 6
M  V30 6 1 6 7
M  V30 7 1 7 8
M  V30 8 1 8 9
M  V30 9 2 9 10
M  V30 10 1 10 11
M  V30 11 2 11 12
M  V30 12 1 12 13
M  V30 13 1 12 14
M  V30 14 2 14 15
M  V30 15 1 8 16
M  V30 16 2 3 17
M  V30 17 1 17 18
M  V30 18 1 18 19
M  V30 19 2 19 20
M  V30 20 1 20 21
M  V30 21 2 21 22
M  V30 22 1 22 23
M  V30 23 2 23 24
M  V30 24 2 18 25
M  V30 25 1 25 26
M  V30 26 2 26 27
M  V30 27 1 26 2
M  V30 28 1 16 4
M  V30 29 1 24 19
M  V30 30 1 15 9
M  V30 31 1 1 28
M  V30 32 1 1 29
M  V30 33 1 1 30
M  V30 34 1 5 31
M  V30 35 1 5 32
M  V30 36 1 6 33
M  V30 37 1 6 34
M  V30 38 1 7 35
M  V30 39 1 8 36 CFG=1
M  V30 40 1 10 37
M  V30 41 1 11 38
M  V30 42 1 14 39
M  V30 43 1 15 40
M  V30 44 1 16 41
M  V30 45 1 16 42
M  V30 46 1 20 43
M  V30 47 1 21 44
M  V30 48 1 23 45
M  V30 49 1 25 46
M  V30 END BOND
M  V30 END CTAB
M  END
>  <Dataset>  (380) 
ChEMBL_Kinases

>  <Ligand_Instance>  (380) 
nan

>  <PDB_ID>  (380) 
nan

>  <Standardized_SMILES>  (380) 
Cn1c(N2CCN[C@@H](c3ccc(Cl)cc3)C2)nc(-c2ccncn2)cc1=O

>  <Name>  (380) 
nan

>  <Pocket>  (380) 
nan

>  <ATP_Site>  (380) 
nan

>  <Peripheral>  (380) 
nan

>  <Num_H_Atoms_ProtBoundConf>  (380) 
nan

>  <Num_Resolved_Atoms>  (380) 
nan

>  <Num_Not_Resolved_Atoms>  (380) 
nan

$$$$
CHEMBL4105345
     RDKit          3D

  0  0  0  0  0  0  0  0  0  0999 V3000
M  V30 BEGIN CTAB
M  V30 COUNTS 27 27 0 0 0
M  V30 BEGIN ATOM
M  V30 1 C -0.634515 0.549162 4.146373 0
M  V30 2 C -0.008417 -0.628114 3.391620 0
M  V30 3 C 0.839699 -1.377548 4.390333 0
M  V30 4 O 0.736728 -0.128015 2.314291 0
M  V30 5 C 0.516173 -0.433514 0.977784 0
M  V30 6 C -0.431473 -1.254981 0.399724 0
M  V30 7 C -0.446877 -1.398021 -0.973438 0
M  V30 8 C 0.457434 -0.743843 -1.786008 0
M  V30 9 C 0.358279 -0.965521 -3.273396 0
M  V30 10 N -0.531175 0.027836 -3.831889 0
M  V30 11 C 1.411733 0.082472 -1.213563 0
M  V30 12 C 1.435058 0.232069 0.161219 0
M  V30 13 Cl 2.701492 1.309640 0.721403 0
M  V30 14 H -1.564953 0.206349 4.647995 0
M  V30 15 H -0.860752 1.313686 3.378682 0
M  V30 16 H 0.022689 0.954129 4.920997 0
M  V30 17 H -0.825925 -1.315784 3.107860 0
M  V30 18 H 1.774852 -1.749774 3.916972 0
M  V30 19 H 1.170860 -0.683186 5.184733 0
M  V30 20 H 0.332816 -2.262012 4.822565 0
M  V30 21 H -1.080268 -1.710947 1.123250 0
M  V30 22 H -1.233017 -2.067754 -1.329563 0
M  V30 23 H 1.364796 -0.953349 -3.718336 0
M  V30 24 H -0.133610 -1.950644 -3.443103 0
M  V30 25 H -1.491444 -0.312713 -4.030392 0
M  V30 26 H -0.105025 0.567552 -4.611187 0
M  V30 27 H 2.070505 0.548462 -1.916692 0
M  V30 END ATOM
M  V30 BEGIN BOND
M  V30 1 1 1 2
M  V30 2 1 2 3
M  V30 3 1 2 4
M  V30 4 1 4 5
M  V30 5 2 5 6
M  V30 6 1 6 7
M  V30 7 2 7 8
M  V30 8 1 8 9
M  V30 9 1 9 10
M  V30 10 1 8 11
M  V30 11 2 11 12
M  V30 12 1 12 13
M  V30 13 1 12 5
M  V30 14 1 1 14
M  V30 15 1 1 15
M  V30 16 1 1 16
M  V30 17 1 2 17
M  V30 18 1 3 18
M  V30 19 1 3 19
M  V30 20 1 3 20
M  V30 21 1 6 21
M  V30 22 1 7 22
M  V30 23 1 9 23
M  V30 24 1 9 24
M  V30 25 1 10 25
M  V30 26 1 10 26
M  V30 27 1 11 27
M  V30 END BOND
M  V30 END CTAB
M  END
>  <Dataset>  (381) 
ChEMBL_Kinases

>  <Ligand_Instance>  (381) 
nan

>  <PDB_ID>  (381) 
nan

>  <Standardized_SMILES>  (381) 
CC(C)Oc1ccc(CN)cc1Cl

>  <Name>  (381) 
nan

>  <Pocket>  (381) 
nan

>  <ATP_Site>  (381) 
nan

>  <Peripheral>  (381) 
nan

>  <Num_H_Atoms_ProtBoundConf>  (381) 
nan

>  <Num_Resolved_Atoms>  (381) 
nan

>  <Num_Not_Resolved_Atoms>  (381) 
nan

$$$$
CHEMBL4794174
     RDKit          3D

  0  0  0  0  0  0  0  0  0  0999 V3000
M  V30 BEGIN CTAB
M  V30 COUNTS 47 50 0 0 0
M  V30 BEGIN ATOM
M  V30 1 C 0.070242 -4.012325 2.020600 0
M  V30 2 C 0.978058 -3.224354 1.149091 0
M  V30 3 C 1.758752 -3.764517 0.145366 0
M  V30 4 C 2.594378 -3.001253 -0.648868 0
M  V30 5 C 2.671840 -1.641624 -0.453348 0
M  V30 6 C 3.573385 -0.898851 -1.327076 0
M  V30 7 O 4.217520 -1.505542 -2.191290 0
M  V30 8 N 3.779046 0.506319 -1.265587 0
M  V30 9 C 4.681239 1.170300 -2.156580 0
M  V30 10 C 5.310186 2.465889 -1.846241 0
M  V30 11 C 4.111291 2.478113 -2.746056 0
M  V30 12 C 1.913385 -1.052864 0.535143 0
M  V30 13 C 1.079322 -1.853722 1.319733 0
M  V30 14 N 0.338821 -1.145688 2.312597 0
M  V30 15 C 0.536956 -1.206360 3.661100 0
M  V30 16 C -0.263339 -0.459638 4.501736 0
M  V30 17 N -1.249658 0.338470 4.005994 0
M  V30 18 C -1.464615 0.413621 2.659581 0
M  V30 19 N -2.498423 1.250835 2.152864 0
M  V30 20 C -3.838146 0.826381 1.935784 0
M  V30 21 C -4.873872 1.600559 1.446980 0
M  V30 22 C -6.133388 1.077958 1.278605 0
M  V30 23 C -6.404624 -0.247283 1.595252 0
M  V30 24 C -5.382395 -1.032062 2.083710 0
M  V30 25 C -4.115811 -0.488639 2.247827 0
M  V30 26 C -0.650154 -0.340694 1.875136 0
M  V30 27 O -0.881549 -0.243254 0.633894 0
M  V30 28 H 0.665598 -4.299579 2.917158 0
M  V30 29 H -0.830614 -3.453880 2.313665 0
M  V30 30 H -0.280155 -4.944592 1.493547 0
M  V30 31 H 1.679567 -4.850667 0.009018 0
M  V30 32 H 3.171740 -3.523076 -1.416774 0
M  V30 33 H 3.242431 1.054896 -0.536164 0
M  V30 34 H 5.190042 0.506157 -2.879594 0
M  V30 35 H 6.266300 2.687620 -2.364419 0
M  V30 36 H 5.242615 2.966625 -0.863862 0
M  V30 37 H 3.200116 2.909274 -2.287685 0
M  V30 38 H 4.190513 2.634237 -3.831079 0
M  V30 39 H 1.977843 0.022848 0.686258 0
M  V30 40 H 1.338184 -1.862489 3.966747 0
M  V30 41 H -0.061567 -0.545678 5.570602 0
M  V30 42 H -2.344022 2.270088 1.895206 0
M  V30 43 H -4.631174 2.626143 1.210209 0
M  V30 44 H -6.937140 1.712469 0.889416 0
M  V30 45 H -7.410166 -0.630343 1.450970 0
M  V30 46 H -5.597656 -2.080209 2.333877 0
M  V30 47 H -3.340815 -1.153888 2.638552 0
M  V30 END ATOM
M  V30 BEGIN BOND
M  V30 1 1 1 2
M  V30 2 2 2 3
M  V30 3 1 3 4
M  V30 4 2 4 5
M  V30 5 1 5 6
M  V30 6 2 6 7
M  V30 7 1 6 8
M  V30 8 1 8 9
M  V30 9 1 9 10
M  V30 10 1 10 11
M  V30 11 1 5 12
M  V30 12 2 12 13
M  V30 13 1 13 14
M  V30 14 1 14 15
M  V30 15 2 15 16
M  V30 16 1 16 17
M  V30 17 2 17 18
M  V30 18 1 18 19
M  V30 19 1 19 20
M  V30 20 2 20 21
M  V30 21 1 21 22
M  V30 22 2 22 23
M  V30 23 1 23 24
M  V30 24 2 24 25
M  V30 25 1 18 26
M  V30 26 2 26 27
M  V30 27 1 13 2
M  V30 28 1 26 14
M  V30 29 1 11 9
M  V30 30 1 25 20
M  V30 31 1 1 28
M  V30 32 1 1 29
M  V30 33 1 1 30
M  V30 34 1 3 31
M  V30 35 1 4 32
M  V30 36 1 8 33
M  V30 37 1 9 34
M  V30 38 1 10 35
M  V30 39 1 10 36
M  V30 40 1 11 37
M  V30 41 1 11 38
M  V30 42 1 12 39
M  V30 43 1 15 40
M  V30 44 1 16 41
M  V30 45 1 19 42
M  V30 46 1 21 43
M  V30 47 1 22 44
M  V30 48 1 23 45
M  V30 49 1 24 46
M  V30 50 1 25 47
M  V30 END BOND
M  V30 END CTAB
M  END
>  <Dataset>  (382) 
ChEMBL_Kinases

>  <Ligand_Instance>  (382) 
nan

>  <PDB_ID>  (382) 
nan

>  <Standardized_SMILES>  (382) 
Cc1ccc(C(=O)NC2CC2)cc1-n1ccnc(Nc2ccccc2)c1=O

>  <Name>  (382) 
nan

>  <Pocket>  (382) 
nan

>  <ATP_Site>  (382) 
nan

>  <Peripheral>  (382) 
nan

>  <Num_H_Atoms_ProtBoundConf>  (382) 
nan

>  <Num_Resolved_Atoms>  (382) 
nan

>  <Num_Not_Resolved_Atoms>  (382) 
nan

$$$$
CHEMBL4793795
     RDKit          3D

  0  0  0  0  0  0  0  0  0  0999 V3000
M  V30 BEGIN CTAB
M  V30 COUNTS 34 36 0 0 0
M  V30 BEGIN ATOM
M  V30 1 C -0.412374 -5.083663 1.568236 0
M  V30 2 O -0.227297 -3.739896 1.216197 0
M  V30 3 C 0.873458 -2.963724 1.551319 0
M  V30 4 C 1.929825 -3.463833 2.291730 0
M  V30 5 C 3.042807 -2.692441 2.634772 0
M  V30 6 C 3.108913 -1.359590 2.221739 0
M  V30 7 C 2.059061 -0.861133 1.485532 0
M  V30 8 C 0.999500 -1.648464 1.176773 0
M  V30 9 C -0.120113 -1.046642 0.370752 0
M  V30 10 C -0.336720 0.157731 -0.158127 0
M  V30 11 C -1.476985 0.323168 -0.825171 0
M  V30 12 C -1.798955 1.533478 -1.418513 0
M  V30 13 S -1.102030 3.125695 -1.556471 0
M  V30 14 C 0.417434 3.478921 -0.736897 0
M  V30 15 C 0.203926 3.474250 0.749269 0
M  V30 16 O 1.181991 3.708448 1.497309 0
M  V30 17 O -1.021561 3.223511 1.330614 0
M  V30 18 N -2.970819 1.649089 -2.093133 0
M  V30 19 C -3.861700 0.626216 -2.220577 0
M  V30 20 N -3.535226 -0.541135 -1.638729 0
M  V30 21 C -2.342103 -0.672487 -0.947623 0
M  V30 22 S -1.547823 -1.956457 -0.082192 0
M  V30 23 H -1.104823 -5.560771 0.814274 0
M  V30 24 H 0.568398 -5.618796 1.470430 0
M  V30 25 H -0.904668 -5.224218 2.535302 0
M  V30 26 H 1.899153 -4.503770 2.625435 0
M  V30 27 H 3.863304 -3.116728 3.222066 0
M  V30 28 H 3.963357 -0.758527 2.481678 0
M  V30 29 H 2.082860 0.151093 1.157821 0
M  V30 30 H 0.494236 0.816329 0.052031 0
M  V30 31 H 0.816206 4.510076 -0.972911 0
M  V30 32 H 1.188589 2.730102 -1.000241 0
M  V30 33 H -1.109825 3.286398 2.343382 0
M  V30 34 H -4.821601 0.474286 -2.687835 0
M  V30 END ATOM
M  V30 BEGIN BOND
M  V30 1 1 1 2
M  V30 2 1 2 3
M  V30 3 2 3 4
M  V30 4 1 4 5
M  V30 5 2 5 6
M  V30 6 1 6 7
M  V30 7 2 7 8
M  V30 8 1 8 9
M  V30 9 2 9 10
M  V30 10 1 10 11
M  V30 11 2 11 12
M  V30 12 1 12 13
M  V30 13 1 13 14
M  V30 14 1 14 15
M  V30 15 2 15 16
M  V30 16 1 15 17
M  V30 17 1 12 18
M  V30 18 2 18 19
M  V30 19 1 19 20
M  V30 20 2 20 21
M  V30 21 1 21 22
M  V30 22 1 8 3
M  V30 23 1 22 9
M  V30 24 1 21 11
M  V30 25 1 1 23
M  V30 26 1 1 24
M  V30 27 1 1 25
M  V30 28 1 4 26
M  V30 29 1 5 27
M  V30 30 1 6 28
M  V30 31 1 7 29
M  V30 32 1 10 30
M  V30 33 1 14 31
M  V30 34 1 14 32
M  V30 35 1 17 33
M  V30 36 1 19 34
M  V30 END BOND
M  V30 END CTAB
M  END
>  <Dataset>  (383) 
ChEMBL_Kinases

>  <Ligand_Instance>  (383) 
nan

>  <PDB_ID>  (383) 
nan

>  <Standardized_SMILES>  (383) 
COc1ccccc1-c1cc2c(SCC(=O)O)ncnc2s1

>  <Name>  (383) 
nan

>  <Pocket>  (383) 
nan

>  <ATP_Site>  (383) 
nan

>  <Peripheral>  (383) 
nan

>  <Num_H_Atoms_ProtBoundConf>  (383) 
nan

>  <Num_Resolved_Atoms>  (383) 
nan

>  <Num_Not_Resolved_Atoms>  (383) 
nan

$$$$
CHEMBL4105329
     RDKit          3D

  0  0  0  0  0  0  0  0  0  0999 V3000
M  V30 BEGIN CTAB
M  V30 COUNTS 57 61 0 0 0
M  V30 BEGIN ATOM
M  V30 1 C 4.654765 -4.175888 -0.560456 0
M  V30 2 C 4.632799 -3.576673 0.802380 0
M  V30 3 N 5.578981 -3.693336 1.734445 0
M  V30 4 N 5.215466 -3.019713 2.836329 0
M  V30 5 C 4.005420 -2.453338 2.612942 0
M  V30 6 C 3.136135 -1.659840 3.349602 0
M  V30 7 C 1.944908 -1.251597 2.782391 0
M  V30 8 C 1.574839 -1.610495 1.478431 0
M  V30 9 C 0.285192 -1.063311 1.108468 0
M  V30 10 C 0.220817 0.315622 1.132083 0
M  V30 11 C -0.961801 0.943877 0.798185 0
M  V30 12 N -1.154521 2.352937 0.786569 0
M  V30 13 C -2.354829 3.089651 0.445790 0 CFG=1
M  V30 14 C -2.083658 4.578406 0.602241 0
M  V30 15 O -3.190142 5.334271 0.292762 0
M  V30 16 C -2.838323 2.823689 -0.929234 0
M  V30 17 C -4.159391 2.596444 -1.326485 0
M  V30 18 C -4.497981 2.358623 -2.630299 0
M  V30 19 C -3.521721 2.337804 -3.600501 0
M  V30 20 C -2.197344 2.560653 -3.235711 0
M  V30 21 C -1.852693 2.800989 -1.919872 0
M  V30 22 C -1.995040 0.094426 0.463029 0
M  V30 23 N -1.942970 -1.259572 0.436475 0
M  V30 24 C -0.773573 -1.880404 0.766617 0
M  V30 25 C -0.643476 -3.333837 0.759390 0
M  V30 26 C -0.350722 -3.943123 1.975374 0
M  V30 27 C -0.225842 -5.331977 1.976787 0
M  V30 28 Cl 0.140957 -6.224763 3.439736 0
M  V30 29 C -0.383401 -6.091920 0.823986 0
M  V30 30 C -0.677145 -5.446085 -0.380335 0
M  V30 31 C -0.804850 -4.070704 -0.402470 0
M  V30 32 O -1.096180 -3.419626 -1.591961 0
M  V30 33 C 2.436184 -2.389144 0.766259 0
M  V30 34 C 3.624697 -2.796523 1.332062 0
M  V30 35 H 5.316190 -3.582020 -1.229178 0
M  V30 36 H 3.630356 -4.197456 -1.005768 0
M  V30 37 H 4.968817 -5.227098 -0.475292 0
M  V30 38 H 5.704270 -2.885179 3.769677 0
M  V30 39 H 3.455784 -1.410313 4.335357 0
M  V30 40 H 1.344043 -0.632957 3.454259 0
M  V30 41 H 1.060711 0.945928 1.402816 0
M  V30 42 H -0.282990 2.893330 1.070169 0
M  V30 43 H -3.124764 2.843395 1.214916 0
M  V30 44 H -1.258948 4.885870 -0.092102 0
M  V30 45 H -1.772830 4.806590 1.635532 0
M  V30 46 H -3.846690 5.366433 1.035860 0
M  V30 47 H -4.868115 2.628146 -0.510664 0
M  V30 48 H -5.568381 2.201843 -2.769420 0
M  V30 49 H -3.886203 2.142045 -4.600408 0
M  V30 50 H -1.523974 2.519935 -4.081768 0
M  V30 51 H -0.780875 2.955090 -1.801089 0
M  V30 52 H -2.980021 0.435371 0.180646 0
M  V30 53 H -0.220224 -3.393012 2.892199 0
M  V30 54 H -0.291653 -7.153836 0.805642 0
M  V30 55 H -0.807910 -5.993059 -1.298676 0
M  V30 56 H -2.037082 -3.534067 -1.943321 0
M  V30 57 H 2.086946 -2.624256 -0.223305 0
M  V30 END ATOM
M  V30 BEGIN BOND
M  V30 1 1 1 2
M  V30 2 2 2 3
M  V30 3 1 3 4
M  V30 4 1 4 5
M  V30 5 2 5 6
M  V30 6 1 6 7
M  V30 7 2 7 8
M  V30 8 1 8 9
M  V30 9 2 9 10
M  V30 10 1 10 11
M  V30 11 1 11 12
M  V30 12 1 12 13
M  V30 13 1 13 14
M  V30 14 1 14 15
M  V30 15 1 13 16
M  V30 16 2 16 17
M  V30 17 1 17 18
M  V30 18 2 18 19
M  V30 19 1 19 20
M  V30 20 2 20 21
M  V30 21 2 11 22
M  V30 22 1 22 23
M  V30 23 2 23 24
M  V30 24 1 24 25
M  V30 25 2 25 26
M  V30 26 1 26 27
M  V30 27 1 27 28
M  V30 28 2 27 29
M  V30 29 1 29 30
M  V30 30 2 30 31
M  V30 31 1 31 32
M  V30 32 1 8 33
M  V30 33 2 33 34
M  V30 34 1 34 2
M  V30 35 1 34 5
M  V30 36 1 24 9
M  V30 37 1 31 25
M  V30 38 1 21 16
M  V30 39 1 1 35
M  V30 40 1 1 36
M  V30 41 1 1 37
M  V30 42 1 4 38
M  V30 43 1 6 39
M  V30 44 1 7 40
M  V30 45 1 10 41
M  V30 46 1 12 42
M  V30 47 1 13 43 CFG=1
M  V30 48 1 14 44
M  V30 49 1 14 45
M  V30 50 1 15 46
M  V30 51 1 17 47
M  V30 52 1 18 48
M  V30 53 1 19 49
M  V30 54 1 20 50
M  V30 55 1 21 51
M  V30 56 1 22 52
M  V30 57 1 26 53
M  V30 58 1 29 54
M  V30 59 1 30 55
M  V30 60 1 32 56
M  V30 61 1 33 57
M  V30 END BOND
M  V30 END CTAB
M  END
>  <Dataset>  (384) 
ChEMBL_Kinases

>  <Ligand_Instance>  (384) 
nan

>  <PDB_ID>  (384) 
nan

>  <Standardized_SMILES>  (384) 
Cc1n[nH]c2ccc(-c3cc(N[C@@H](CO)c4ccccc4)cnc3-c3cc(Cl)ccc3O)cc12

>  <Name>  (384) 
nan

>  <Pocket>  (384) 
nan

>  <ATP_Site>  (384) 
nan

>  <Peripheral>  (384) 
nan

>  <Num_H_Atoms_ProtBoundConf>  (384) 
nan

>  <Num_Resolved_Atoms>  (384) 
nan

>  <Num_Not_Resolved_Atoms>  (384) 
nan

$$$$
CHEMBL4105276
     RDKit          3D

  0  0  0  0  0  0  0  0  0  0999 V3000
M  V30 BEGIN CTAB
M  V30 COUNTS 53 56 0 0 0
M  V30 BEGIN ATOM
M  V30 1 C 0.102898 -3.006131 -1.801324 0
M  V30 2 C 0.651692 -1.925823 -0.953812 0
M  V30 3 C 1.955954 -1.533816 -1.155970 0
M  V30 4 C 2.522605 -0.511707 -0.443308 0
M  V30 5 C 1.741173 0.118919 0.490856 0
M  V30 6 C 2.285441 1.212477 1.282869 0
M  V30 7 O 1.624567 1.828451 2.144322 0
M  V30 8 N 3.612226 1.660112 1.133278 0
M  V30 9 C 4.190626 2.722592 1.881669 0
M  V30 10 C 4.833532 2.469620 3.082404 0
M  V30 11 C 5.429049 3.427597 3.888016 0
M  V30 12 C 5.343059 4.704002 3.407902 0
M  V30 13 C 4.722681 5.048625 2.223409 0
M  V30 14 C 4.691359 6.481315 1.799650 0
M  V30 15 F 3.577382 7.133062 2.280828 0
M  V30 16 F 5.869534 7.099545 2.126177 0
M  V30 17 F 4.570178 6.468593 0.415571 0
M  V30 18 C 4.147843 4.041544 1.466944 0
M  V30 19 C 0.444631 -0.297382 0.667838 0
M  V30 20 C -0.175729 -1.336569 -0.035534 0
M  V30 21 C -1.551543 -1.577092 0.315756 0
M  V30 22 C -2.309907 -2.688490 0.101104 0
M  V30 23 C -3.605707 -2.891067 0.486332 0
M  V30 24 N -4.351218 -4.066327 0.237323 0
M  V30 25 C -5.706454 -4.187837 0.692031 0
M  V30 26 C -6.557275 -4.971480 -0.288108 0
M  V30 27 O -6.018383 -4.829845 -1.578200 0
M  V30 28 C -4.863058 -5.586698 -1.615860 0
M  V30 29 C -3.943220 -5.264126 -0.455612 0
M  V30 30 N -4.201097 -1.871175 1.158178 0
M  V30 31 C -3.480981 -0.742026 1.396211 0
M  V30 32 N -2.224291 -0.644633 0.978016 0
M  V30 33 H -0.884184 -2.732694 -2.228233 0
M  V30 34 H 0.784890 -3.074674 -2.707282 0
M  V30 35 H 0.120303 -4.009200 -1.340045 0
M  V30 36 H 2.545486 -2.053851 -1.901866 0
M  V30 37 H 3.537853 -0.267908 -0.658096 0
M  V30 38 H 4.282651 1.242258 0.453527 0
M  V30 39 H 4.860668 1.423752 3.399253 0
M  V30 40 H 5.911530 3.143297 4.813431 0
M  V30 41 H 5.788584 5.513142 3.986827 0
M  V30 42 H 3.655585 4.285818 0.534522 0
M  V30 43 H -0.097836 0.269453 1.438862 0
M  V30 44 H -1.886837 -3.534764 -0.395018 0
M  V30 45 H -6.184315 -3.168367 0.763640 0
M  V30 46 H -5.766005 -4.624143 1.708520 0
M  V30 47 H -6.601312 -6.043486 -0.033795 0
M  V30 48 H -7.588724 -4.582911 -0.290449 0
M  V30 49 H -5.099986 -6.668920 -1.559555 0
M  V30 50 H -4.374476 -5.381406 -2.596572 0
M  V30 51 H -3.927840 -6.111629 0.282452 0
M  V30 52 H -2.912042 -5.220795 -0.857486 0
M  V30 53 H -3.905498 0.098816 1.926007 0
M  V30 END ATOM
M  V30 BEGIN BOND
M  V30 1 1 1 2
M  V30 2 2 2 3
M  V30 3 1 3 4
M  V30 4 2 4 5
M  V30 5 1 5 6
M  V30 6 2 6 7
M  V30 7 1 6 8
M  V30 8 1 8 9
M  V30 9 2 9 10
M  V30 10 1 10 11
M  V30 11 2 11 12
M  V30 12 1 12 13
M  V30 13 1 13 14
M  V30 14 1 14 15
M  V30 15 1 14 16
M  V30 16 1 14 17
M  V30 17 2 13 18
M  V30 18 1 5 19
M  V30 19 2 19 20
M  V30 20 1 20 21
M  V30 21 2 21 22
M  V30 22 1 22 23
M  V30 23 1 23 24
M  V30 24 1 24 25
M  V30 25 1 25 26
M  V30 26 1 26 27
M  V30 27 1 27 28
M  V30 28 1 28 29
M  V30 29 2 23 30
M  V30 30 1 30 31
M  V30 31 2 31 32
M  V30 32 1 20 2
M  V30 33 1 32 21
M  V30 34 1 18 9
M  V30 35 1 29 24
M  V30 36 1 1 33
M  V30 37 1 1 34
M  V30 38 1 1 35
M  V30 39 1 3 36
M  V30 40 1 4 37
M  V30 41 1 8 38
M  V30 42 1 10 39
M  V30 43 1 11 40
M  V30 44 1 12 41
M  V30 45 1 18 42
M  V30 46 1 19 43
M  V30 47 1 22 44
M  V30 48 1 25 45
M  V30 49 1 25 46
M  V30 50 1 26 47
M  V30 51 1 26 48
M  V30 52 1 28 49
M  V30 53 1 28 50
M  V30 54 1 29 51
M  V30 55 1 29 52
M  V30 56 1 31 53
M  V30 END BOND
M  V30 END CTAB
M  END
>  <Dataset>  (385) 
ChEMBL_Kinases

>  <Ligand_Instance>  (385) 
nan

>  <PDB_ID>  (385) 
nan

>  <Standardized_SMILES>  (385) 
Cc1ccc(C(=O)Nc2cccc(C(F)(F)F)c2)cc1-c1cc(N2CCOCC2)ncn1

>  <Name>  (385) 
nan

>  <Pocket>  (385) 
nan

>  <ATP_Site>  (385) 
nan

>  <Peripheral>  (385) 
nan

>  <Num_H_Atoms_ProtBoundConf>  (385) 
nan

>  <Num_Resolved_Atoms>  (385) 
nan

>  <Num_Not_Resolved_Atoms>  (385) 
nan

$$$$
CHEMBL4105222
     RDKit          3D

  0  0  0  0  0  0  0  0  0  0999 V3000
M  V30 BEGIN CTAB
M  V30 COUNTS 60 63 0 0 0
M  V30 BEGIN ATOM
M  V30 1 C 7.944420 -0.497094 4.990476 0
M  V30 2 N 6.799663 -0.258405 4.156343 0
M  V30 3 C 7.152077 -0.046693 2.794255 0
M  V30 4 O 8.357970 -0.088633 2.484811 0
M  V30 5 C 6.173744 0.216385 1.744182 0
M  V30 6 C 6.661758 0.403904 0.467359 0
M  V30 7 C 5.791385 0.659387 -0.592315 0
M  V30 8 C 4.409931 0.731606 -0.389103 0
M  V30 9 C 3.968354 0.538496 0.899156 0
M  V30 10 C 4.816449 0.281370 1.977986 0
M  V30 11 C 2.593267 0.551503 1.435029 0
M  V30 12 O 2.376075 0.343763 2.656062 0
M  V30 13 C 1.410937 0.799091 0.615257 0
M  V30 14 C 0.248799 0.359803 1.215159 0
M  V30 15 C -0.937417 0.537420 0.536652 0
M  V30 16 C -1.079512 1.119793 -0.702785 0
M  V30 17 N -2.308626 1.274331 -1.392847 0
M  V30 18 C -3.527423 0.558391 -1.300186 0
M  V30 19 C -4.688112 1.203579 -1.728224 0
M  V30 20 C -5.914059 0.595917 -1.694026 0
M  V30 21 C -5.944428 -0.688870 -1.214217 0
M  V30 22 F -7.139636 -1.311828 -1.168991 0
M  V30 23 C -4.854771 -1.400920 -0.772479 0
M  V30 24 C -4.807307 -2.755461 -0.254230 0
M  V30 25 O -3.727208 -3.302094 0.127064 0
M  V30 26 N -5.875751 -3.668130 -0.083562 0
M  V30 27 C -5.706479 -4.996751 0.444843 0
M  V30 28 C -6.505166 -5.124073 1.744229 0
M  V30 29 C -6.290591 -5.996168 -0.531301 0
M  V30 30 C -3.647540 -0.731226 -0.833332 0
M  V30 31 C 0.109037 1.540944 -1.257492 0
M  V30 32 C 1.324215 1.390984 -0.627841 0
M  V30 33 C 2.450238 1.920271 -1.420267 0
M  V30 34 C 3.608217 1.003204 -1.574395 0
M  V30 35 H 8.531274 0.444395 5.033642 0
M  V30 36 H 7.597931 -0.698798 6.024208 0
M  V30 37 H 8.592434 -1.304520 4.593159 0
M  V30 38 H 5.795374 -0.227458 4.438132 0
M  V30 39 H 7.729082 0.363224 0.225820 0
M  V30 40 H 6.163487 0.811226 -1.615363 0
M  V30 41 H 4.434527 0.137040 2.963249 0
M  V30 42 H 0.306271 -0.105258 2.189403 0
M  V30 43 H -1.799491 0.179654 1.075896 0
M  V30 44 H -2.280280 2.074369 -2.095106 0
M  V30 45 H -4.631857 2.217534 -2.101832 0
M  V30 46 H -6.820126 1.070796 -2.017236 0
M  V30 47 H -6.826545 -3.348999 -0.358445 0
M  V30 48 H -4.670257 -5.235150 0.704151 0
M  V30 49 H -7.588714 -5.297905 1.507790 0
M  V30 50 H -6.366616 -4.231769 2.377661 0
M  V30 51 H -6.085562 -6.006419 2.283704 0
M  V30 52 H -6.050568 -7.038046 -0.219729 0
M  V30 53 H -5.866835 -5.862714 -1.550640 0
M  V30 54 H -7.402891 -5.899003 -0.517327 0
M  V30 55 H -2.759170 -1.222058 -0.519296 0
M  V30 56 H 0.121856 2.019741 -2.240996 0
M  V30 57 H 2.815614 2.823637 -0.854867 0
M  V30 58 H 2.158722 2.277304 -2.410552 0
M  V30 59 H 3.320407 0.051524 -2.087295 0
M  V30 60 H 4.296099 1.498893 -2.314529 0
M  V30 END ATOM
M  V30 BEGIN BOND
M  V30 1 1 1 2
M  V30 2 1 2 3
M  V30 3 2 3 4
M  V30 4 1 3 5
M  V30 5 2 5 6
M  V30 6 1 6 7
M  V30 7 2 7 8
M  V30 8 1 8 9
M  V30 9 2 9 10
M  V30 10 1 9 11
M  V30 11 2 11 12
M  V30 12 1 11 13
M  V30 13 2 13 14
M  V30 14 1 14 15
M  V30 15 2 15 16
M  V30 16 1 16 17
M  V30 17 1 17 18
M  V30 18 2 18 19
M  V30 19 1 19 20
M  V30 20 2 20 21
M  V30 21 1 21 22
M  V30 22 1 21 23
M  V30 23 1 23 24
M  V30 24 2 24 25
M  V30 25 1 24 26
M  V30 26 1 26 27
M  V30 27 1 27 28
M  V30 28 1 27 29
M  V30 29 2 23 30
M  V30 30 1 16 31
M  V30 31 2 31 32
M  V30 32 1 32 33
M  V30 33 1 33 34
M  V30 34 1 10 5
M  V30 35 1 32 13
M  V30 36 1 34 8
M  V30 37 1 30 18
M  V30 38 1 1 35
M  V30 39 1 1 36
M  V30 40 1 1 37
M  V30 41 1 2 38
M  V30 42 1 6 39
M  V30 43 1 7 40
M  V30 44 1 10 41
M  V30 45 1 14 42
M  V30 46 1 15 43
M  V30 47 1 17 44
M  V30 48 1 19 45
M  V30 49 1 20 46
M  V30 50 1 26 47
M  V30 51 1 27 48
M  V30 52 1 28 49
M  V30 53 1 28 50
M  V30 54 1 28 51
M  V30 55 1 29 52
M  V30 56 1 29 53
M  V30 57 1 29 54
M  V30 58 1 30 55
M  V30 59 1 31 56
M  V30 60 1 33 57
M  V30 61 1 33 58
M  V30 62 1 34 59
M  V30 63 1 34 60
M  V30 END BOND
M  V30 END CTAB
M  END
>  <Dataset>  (386) 
ChEMBL_Kinases

>  <Ligand_Instance>  (386) 
nan

>  <PDB_ID>  (386) 
nan

>  <Standardized_SMILES>  (386) 
CNC(=O)c1ccc2c(c1)C(=O)c1ccc(Nc3ccc(F)c(C(=O)NC(C)C)c3)cc1CC2

>  <Name>  (386) 
nan

>  <Pocket>  (386) 
nan

>  <ATP_Site>  (386) 
nan

>  <Peripheral>  (386) 
nan

>  <Num_H_Atoms_ProtBoundConf>  (386) 
nan

>  <Num_Resolved_Atoms>  (386) 
nan

>  <Num_Not_Resolved_Atoms>  (386) 
nan

$$$$
CHEMBL4794195
     RDKit          3D

  0  0  0  0  0  0  0  0  0  0999 V3000
M  V30 BEGIN CTAB
M  V30 COUNTS 81 85 0 0 0
M  V30 BEGIN ATOM
M  V30 1 N 3.275226 1.305717 4.438768 0
M  V30 2 C 4.257812 1.903906 3.600810 0
M  V30 3 C 5.053565 1.325500 2.603655 0
M  V30 4 C 4.910195 -0.107376 2.308463 0
M  V30 5 O 4.062075 -0.768393 2.947562 0
M  V30 6 N 5.644968 -0.858357 1.352138 0
M  V30 7 C 5.453066 -2.257142 1.105111 0
M  V30 8 C 4.269806 -2.513543 0.259702 0
M  V30 9 C 2.959038 -2.728805 0.633634 0
M  V30 10 C 1.950769 -2.972471 -0.272247 0
M  V30 11 C 2.183810 -3.020364 -1.635108 0
M  V30 12 C 1.106240 -3.270750 -2.577662 0
M  V30 13 O 1.462079 -3.617486 -3.737636 0
M  V30 14 N -0.247390 -3.141791 -2.257723 0
M  V30 15 C -1.569395 -3.263700 -2.748245 0 CFG=1
M  V30 16 C -2.393438 -4.140477 -1.883304 0
M  V30 17 C -2.606088 -3.825828 -0.477868 0
M  V30 18 C -3.274027 -2.629090 0.030058 0
M  V30 19 C -4.697572 -2.397893 -0.375116 0
M  V30 20 C -5.087833 -0.996612 0.070207 0
M  V30 21 C -4.459855 -0.724839 1.421699 0
M  V30 22 C -2.974337 -0.518607 1.302325 0
M  V30 23 C -2.444070 -1.364934 0.125750 0
M  V30 24 C -2.184097 -2.040718 -3.292878 0
M  V30 25 O -1.771345 -0.852668 -3.373197 0
M  V30 26 N -3.497069 -2.255585 -3.840645 0
M  V30 27 C -4.251837 -1.203497 -4.438200 0
M  V30 28 C -3.900112 -1.172995 -5.797307 0
M  V30 29 C -4.480482 -0.235881 -6.666736 0
M  V30 30 Br -4.086567 -0.101201 -8.530844 0
M  V30 31 C -5.400401 0.647026 -6.139142 0
M  V30 32 C -5.746101 0.617871 -4.803569 0
M  V30 33 Br -7.007315 1.791038 -3.977734 0
M  V30 34 C -5.165111 -0.304300 -3.977082 0
M  V30 35 C 3.473862 -2.813105 -2.060462 0
M  V30 36 C 4.452555 -2.572364 -1.122356 0
M  V30 37 C 5.858001 2.289795 2.062474 0
M  V30 38 N 5.559859 3.426845 2.713576 0
M  V30 39 N 4.635337 3.225820 3.607896 0
M  V30 40 C 3.992395 4.111257 4.553601 0
M  V30 41 C 2.933576 4.983778 4.373397 0
M  V30 42 C 2.499688 5.703769 5.443389 0
M  V30 43 C 3.051138 5.607338 6.683523 0
M  V30 44 C 4.115375 4.734511 6.893500 0
M  V30 45 C 4.565275 3.998686 5.806761 0
M  V30 46 H 3.626917 1.266146 5.440550 0
M  V30 47 H 2.323458 0.920083 4.272964 0
M  V30 48 H 6.367540 -0.289008 0.820624 0
M  V30 49 H 6.340815 -2.752605 0.676119 0
M  V30 50 H 5.335905 -2.729304 2.127836 0
M  V30 51 H 2.747867 -2.713752 1.692250 0
M  V30 52 H 0.970236 -3.115955 0.165319 0
M  V30 53 H -0.383925 -2.823195 -1.280008 0
M  V30 54 H -1.425882 -3.880262 -3.730847 0
M  V30 55 H -1.848854 -5.145616 -1.901313 0
M  V30 56 H -3.305896 -4.410963 -2.470649 0
M  V30 57 H -3.037893 -4.736484 0.068958 0
M  V30 58 H -1.570169 -3.814625 0.000515 0
M  V30 59 H -3.414838 -2.848749 1.160757 0
M  V30 60 H -4.958931 -2.508700 -1.417362 0
M  V30 61 H -5.421015 -3.080562 0.187570 0
M  V30 62 H -6.176213 -0.934103 0.177595 0
M  V30 63 H -4.796929 -0.218811 -0.672051 0
M  V30 64 H -4.958015 0.194240 1.837196 0
M  V30 65 H -4.720496 -1.589432 2.079721 0
M  V30 66 H -2.761624 0.535886 1.047593 0
M  V30 67 H -2.434692 -0.799937 2.228799 0
M  V30 68 H -1.418965 -1.678359 0.439585 0
M  V30 69 H -2.466398 -0.725709 -0.746721 0
M  V30 70 H -4.029467 -3.131624 -3.875293 0
M  V30 71 H -3.196279 -1.799783 -6.368916 0
M  V30 72 H -5.913913 1.401037 -6.716881 0
M  V30 73 H -5.328367 -0.458811 -2.933391 0
M  V30 74 H 3.656945 -2.845001 -3.115319 0
M  V30 75 H 5.446463 -2.417936 -1.528282 0
M  V30 76 H 6.579247 2.109294 1.270197 0
M  V30 77 H 2.578381 4.972528 3.353396 0
M  V30 78 H 1.680104 6.369597 5.268039 0
M  V30 79 H 2.689357 6.193981 7.542077 0
M  V30 80 H 4.509198 4.696379 7.906696 0
M  V30 81 H 5.395543 3.361094 6.070918 0
M  V30 END ATOM
M  V30 BEGIN BOND
M  V30 1 1 1 2
M  V30 2 2 2 3
M  V30 3 1 3 4
M  V30 4 2 4 5
M  V30 5 1 4 6
M  V30 6 1 6 7
M  V30 7 1 7 8
M  V30 8 2 8 9
M  V30 9 1 9 10
M  V30 10 2 10 11
M  V30 11 1 11 12
M  V30 12 2 12 13
M  V30 13 1 12 14
M  V30 14 1 14 15
M  V30 15 1 15 16
M  V30 16 1 16 17
M  V30 17 1 17 18
M  V30 18 1 18 19
M  V30 19 1 19 20
M  V30 20 1 20 21
M  V30 21 1 21 22
M  V30 22 1 22 23
M  V30 23 1 15 24
M  V30 24 2 24 25
M  V30 25 1 24 26
M  V30 26 1 26 27
M  V30 27 2 27 28
M  V30 28 1 28 29
M  V30 29 1 29 30
M  V30 30 2 29 31
M  V30 31 1 31 32
M  V30 32 1 32 33
M  V30 33 2 32 34
M  V30 34 1 11 35
M  V30 35 2 35 36
M  V30 36 1 3 37
M  V30 37 2 37 38
M  V30 38 1 38 39
M  V30 39 1 39 40
M  V30 40 2 40 41
M  V30 41 1 41 42
M  V30 42 2 42 43
M  V30 43 1 43 44
M  V30 44 2 44 45
M  V30 45 1 39 2
M  V30 46 1 45 40
M  V30 47 1 36 8
M  V30 48 1 23 18
M  V30 49 1 34 27
M  V30 50 1 1 46
M  V30 51 1 1 47
M  V30 52 1 6 48
M  V30 53 1 7 49
M  V30 54 1 7 50
M  V30 55 1 9 51
M  V30 56 1 10 52
M  V30 57 1 14 53
M  V30 58 1 15 54 CFG=3
M  V30 59 1 16 55
M  V30 60 1 16 56
M  V30 61 1 17 57
M  V30 62 1 17 58
M  V30 63 1 18 59
M  V30 64 1 19 60
M  V30 65 1 19 61
M  V30 66 1 20 62
M  V30 67 1 20 63
M  V30 68 1 21 64
M  V30 69 1 21 65
M  V30 70 1 22 66
M  V30 71 1 22 67
M  V30 72 1 23 68
M  V30 73 1 23 69
M  V30 74 1 26 70
M  V30 75 1 28 71
M  V30 76 1 31 72
M  V30 77 1 34 73
M  V30 78 1 35 74
M  V30 79 1 36 75
M  V30 80 1 37 76
M  V30 81 1 41 77
M  V30 82 1 42 78
M  V30 83 1 43 79
M  V30 84 1 44 80
M  V30 85 1 45 81
M  V30 END BOND
M  V30 END CTAB
M  END
>  <Dataset>  (387) 
ChEMBL_Kinases

>  <Ligand_Instance>  (387) 
nan

>  <PDB_ID>  (387) 
nan

>  <Standardized_SMILES>  (387) 
Nc1c(C(=O)NCc2ccc(C(=O)N[C@@H](CCC3CCCCC3)C(=O)Nc3cc(Br)cc(Br)c3)cc2)cnn1-c1ccccc1

>  <Name>  (387) 
nan

>  <Pocket>  (387) 
nan

>  <ATP_Site>  (387) 
nan

>  <Peripheral>  (387) 
nan

>  <Num_H_Atoms_ProtBoundConf>  (387) 
nan

>  <Num_Resolved_Atoms>  (387) 
nan

>  <Num_Not_Resolved_Atoms>  (387) 
nan

$$$$
CHEMBL4794216
     RDKit          3D

  0  0  0  0  0  0  0  0  0  0999 V3000
M  V30 BEGIN CTAB
M  V30 COUNTS 47 52 0 0 0
M  V30 BEGIN ATOM
M  V30 1 C -1.028362 -3.741559 -2.807149 0
M  V30 2 O -0.586540 -2.507439 -2.304999 0
M  V30 3 C 0.751024 -2.250763 -2.022075 0
M  V30 4 C 1.655459 -3.265309 -2.253262 0
M  V30 5 C 2.986307 -2.963284 -1.955173 0
M  V30 6 C 3.363488 -1.731547 -1.463124 0
M  V30 7 C 2.419445 -0.730724 -1.242493 0
M  V30 8 C 2.967142 0.495831 -0.727865 0
M  V30 9 C 4.113579 1.055776 -1.253095 0
M  V30 10 N 4.645999 2.215385 -0.778956 0
M  V30 11 C 4.093732 2.902268 0.237670 0
M  V30 12 C 2.949743 2.334902 0.754899 0
M  V30 13 N 2.150862 2.762319 1.773529 0
M  V30 14 C 1.120191 1.922648 1.977300 0
M  V30 15 C 0.077589 2.079280 2.986425 0
M  V30 16 N 0.021086 3.105457 3.853396 0
M  V30 17 N -1.049244 2.961234 4.645889 0
M  V30 18 C -1.663675 1.813925 4.251165 0
M  V30 19 C -2.804746 1.205065 4.732779 0
M  V30 20 C -3.251776 0.014621 4.161665 0
M  V30 21 C -2.517998 -0.511834 3.119246 0
M  V30 22 C -2.937256 -1.755098 2.482405 0
M  V30 23 C -2.281408 -2.373155 1.432945 0
M  V30 24 N -3.002689 -3.474204 1.165681 0
M  V30 25 N -4.042129 -3.557422 1.980637 0
M  V30 26 C -4.046152 -2.505234 2.823908 0
M  V30 27 N -1.388511 0.078020 2.632284 0
M  V30 28 C -0.981069 1.217695 3.196445 0
M  V30 29 N 1.250238 0.928746 1.073654 0
M  V30 30 C 2.362396 1.163488 0.317915 0
M  V30 31 C 1.099970 -1.010972 -1.531207 0
M  V30 32 H -2.102041 -3.643712 -3.060481 0
M  V30 33 H -0.386422 -4.004301 -3.675488 0
M  V30 34 H -0.840861 -4.505911 -2.022776 0
M  V30 35 H 1.378705 -4.231434 -2.636476 0
M  V30 36 H 3.717792 -3.752213 -2.130920 0
M  V30 37 H 4.424291 -1.619459 -1.271273 0
M  V30 38 H 4.566805 0.504815 -2.077216 0
M  V30 39 H 4.489822 3.819119 0.633633 0
M  V30 40 H 2.319714 3.624210 2.318350 0
M  V30 41 H -1.409565 3.563717 5.432305 0
M  V30 42 H -3.374816 1.633623 5.558254 0
M  V30 43 H -4.144235 -0.476637 4.526337 0
M  V30 44 H -1.373247 -2.030137 0.936696 0
M  V30 45 H -4.805121 -4.283978 2.047658 0
M  V30 46 H -4.720147 -2.214966 3.627101 0
M  V30 47 H 0.402723 -0.205124 -1.344547 0
M  V30 END ATOM
M  V30 BEGIN BOND
M  V30 1 1 1 2
M  V30 2 1 2 3
M  V30 3 2 3 4
M  V30 4 1 4 5
M  V30 5 2 5 6
M  V30 6 1 6 7
M  V30 7 1 7 8
M  V30 8 2 8 9
M  V30 9 1 9 10
M  V30 10 2 10 11
M  V30 11 1 11 12
M  V30 12 1 12 13
M  V30 13 1 13 14
M  V30 14 1 14 15
M  V30 15 2 15 16
M  V30 16 1 16 17
M  V30 17 1 17 18
M  V30 18 2 18 19
M  V30 19 1 19 20
M  V30 20 2 20 21
M  V30 21 1 21 22
M  V30 22 1 22 23
M  V30 23 2 23 24
M  V30 24 1 24 25
M  V30 25 1 25 26
M  V30 26 1 21 27
M  V30 27 2 27 28
M  V30 28 2 14 29
M  V30 29 1 29 30
M  V30 30 2 7 31
M  V30 31 1 31 3
M  V30 32 1 30 8
M  V30 33 2 30 12
M  V30 34 1 28 15
M  V30 35 1 28 18
M  V30 36 2 26 22
M  V30 37 1 1 32
M  V30 38 1 1 33
M  V30 39 1 1 34
M  V30 40 1 4 35
M  V30 41 1 5 36
M  V30 42 1 6 37
M  V30 43 1 9 38
M  V30 44 1 11 39
M  V30 45 1 13 40
M  V30 46 1 17 41
M  V30 47 1 19 42
M  V30 48 1 20 43
M  V30 49 1 23 44
M  V30 50 1 25 45
M  V30 51 1 26 46
M  V30 52 1 31 47
M  V30 END BOND
M  V30 END CTAB
M  END
>  <Dataset>  (388) 
ChEMBL_Kinases

>  <Ligand_Instance>  (388) 
nan

>  <PDB_ID>  (388) 
nan

>  <Standardized_SMILES>  (388) 
COc1cccc(-c2cncc3[nH]c(-c4n[nH]c5ccc(-c6cn[nH]c6)nc45)nc23)c1

>  <Name>  (388) 
nan

>  <Pocket>  (388) 
nan

>  <ATP_Site>  (388) 
nan

>  <Peripheral>  (388) 
nan

>  <Num_H_Atoms_ProtBoundConf>  (388) 
nan

>  <Num_Resolved_Atoms>  (388) 
nan

>  <Num_Not_Resolved_Atoms>  (388) 
nan

$$$$
CHEMBL4105171
     RDKit          3D

  0  0  0  0  0  0  0  0  0  0999 V3000
M  V30 BEGIN CTAB
M  V30 COUNTS 44 46 0 0 0
M  V30 BEGIN ATOM
M  V30 1 C -1.026972 -5.744303 -4.092489 0
M  V30 2 O -1.195028 -4.634868 -3.228800 0
M  V30 3 C -0.088754 -4.084362 -2.596369 0
M  V30 4 C 1.226891 -4.477984 -2.687556 0
M  V30 5 C 2.211204 -3.815119 -1.985645 0
M  V30 6 C 1.876452 -2.761325 -1.195299 0
M  V30 7 C 0.595816 -2.311159 -1.052626 0
M  V30 8 N 0.265882 -1.205792 -0.219977 0
M  V30 9 C 0.262763 0.096723 -0.744039 0
M  V30 10 O 0.586736 -0.007208 -1.965603 0
M  V30 11 C -0.044786 1.359569 -0.063716 0
M  V30 12 C 0.071010 2.438761 -0.959326 0
M  V30 13 C -0.166155 3.733779 -0.566621 0
M  V30 14 Br -0.010100 5.202779 -1.778693 0
M  V30 15 C -0.527863 4.015700 0.727926 0
M  V30 16 C -0.625867 2.929185 1.556500 0
M  V30 17 C -0.407872 1.606093 1.251537 0
M  V30 18 O -0.480332 0.509088 1.981913 0
M  V30 19 C -0.785066 0.260003 3.303131 0
M  V30 20 C 0.136495 0.889583 4.274234 0
M  V30 21 C 0.096014 2.050420 5.011960 0
M  V30 22 C 1.118702 2.428478 5.850209 0
M  V30 23 C 2.252859 1.671020 6.009030 0
M  V30 24 C 2.348342 0.498816 5.296366 0
M  V30 25 C 1.305370 0.150293 4.465395 0
M  V30 26 C -0.389756 -2.997335 -1.773504 0
M  V30 27 H -1.984926 -6.302828 -4.136406 0
M  V30 28 H -0.256790 -6.459226 -3.701303 0
M  V30 29 H -0.722113 -5.475186 -5.112978 0
M  V30 30 H 1.399655 -5.324194 -3.338672 0
M  V30 31 H 3.202404 -4.219619 -2.141175 0
M  V30 32 H 2.664076 -2.258065 -0.655495 0
M  V30 33 H 0.019168 -1.314041 0.787546 0
M  V30 34 H 0.351967 2.355211 -2.021109 0
M  V30 35 H -0.725738 5.016150 1.088415 0
M  V30 36 H -0.918173 3.139257 2.572983 0
M  V30 37 H -0.810922 -0.838691 3.536548 0
M  V30 38 H -1.830338 0.643233 3.529214 0
M  V30 39 H -0.837096 2.591748 4.842549 0
M  V30 40 H 0.930848 3.375184 6.361857 0
M  V30 41 H 2.965504 2.097804 6.700123 0
M  V30 42 H 3.234758 -0.068149 5.437184 0
M  V30 43 H 1.509011 -0.806481 3.956377 0
M  V30 44 H -1.399396 -2.623762 -1.646011 0
M  V30 END ATOM
M  V30 BEGIN BOND
M  V30 1 1 1 2
M  V30 2 1 2 3
M  V30 3 2 3 4
M  V30 4 1 4 5
M  V30 5 2 5 6
M  V30 6 1 6 7
M  V30 7 1 7 8
M  V30 8 1 8 9
M  V30 9 2 9 10
M  V30 10 1 9 11
M  V30 11 2 11 12
M  V30 12 1 12 13
M  V30 13 1 13 14
M  V30 14 2 13 15
M  V30 15 1 15 16
M  V30 16 2 16 17
M  V30 17 1 17 18
M  V30 18 1 18 19
M  V30 19 1 19 20
M  V30 20 2 20 21
M  V30 21 1 21 22
M  V30 22 2 22 23
M  V30 23 1 23 24
M  V30 24 2 24 25
M  V30 25 2 7 26
M  V30 26 1 26 3
M  V30 27 1 17 11
M  V30 28 1 25 20
M  V30 29 1 1 27
M  V30 30 1 1 28
M  V30 31 1 1 29
M  V30 32 1 4 30
M  V30 33 1 5 31
M  V30 34 1 6 32
M  V30 35 1 8 33
M  V30 36 1 12 34
M  V30 37 1 15 35
M  V30 38 1 16 36
M  V30 39 1 19 37
M  V30 40 1 19 38
M  V30 41 1 21 39
M  V30 42 1 22 40
M  V30 43 1 23 41
M  V30 44 1 24 42
M  V30 45 1 25 43
M  V30 46 1 26 44
M  V30 END BOND
M  V30 END CTAB
M  END
>  <Dataset>  (389) 
ChEMBL_Kinases

>  <Ligand_Instance>  (389) 
nan

>  <PDB_ID>  (389) 
nan

>  <Standardized_SMILES>  (389) 
COc1cccc(NC(=O)c2cc(Br)ccc2OCc2ccccc2)c1

>  <Name>  (389) 
nan

>  <Pocket>  (389) 
nan

>  <ATP_Site>  (389) 
nan

>  <Peripheral>  (389) 
nan

>  <Num_H_Atoms_ProtBoundConf>  (389) 
nan

>  <Num_Resolved_Atoms>  (389) 
nan

>  <Num_Not_Resolved_Atoms>  (389) 
nan

$$$$
CHEMBL4105153
     RDKit          3D

  0  0  0  0  0  0  0  0  0  0999 V3000
M  V30 BEGIN CTAB
M  V30 COUNTS 49 53 0 0 0
M  V30 BEGIN ATOM
M  V30 1 N 1.506842 -9.177574 -1.681977 0
M  V30 2 C 1.463474 -7.881460 -1.078923 0
M  V30 3 C 0.324581 -7.422433 -0.432680 0
M  V30 4 C 0.307000 -6.181726 0.135385 0
M  V30 5 C 1.443938 -5.371009 0.064328 0
M  V30 6 C 1.280703 -4.073626 0.714114 0
M  V30 7 C 1.565199 -3.804413 2.039002 0
M  V30 8 N 1.308695 -2.502701 2.344407 0
M  V30 9 C 0.854514 -1.906597 1.225626 0
M  V30 10 C 0.429462 -0.613993 0.892116 0
M  V30 11 C 0.004210 -0.287714 -0.380613 0
M  V30 12 C -0.416314 1.093142 -0.611459 0
M  V30 13 C -0.862400 1.552558 -1.833085 0
M  V30 14 N -1.230735 2.840311 -1.959441 0
M  V30 15 C -1.182131 3.709537 -0.933425 0
M  V30 16 C -0.736455 3.253178 0.289644 0
M  V30 17 N -0.612968 4.012392 1.488565 0
M  V30 18 C -0.137990 3.499323 2.771167 0
M  V30 19 C -1.331452 3.520583 3.718253 0
M  V30 20 N -1.916835 4.818651 3.834432 0
M  V30 21 C -2.096872 5.535501 2.612976 0
M  V30 22 C -0.930596 5.416322 1.659431 0
M  V30 23 N -0.360561 1.947363 0.426723 0
M  V30 24 C 0.001724 -1.272460 -1.346272 0
M  V30 25 C 0.413156 -2.564438 -1.063069 0
M  V30 26 C 0.834112 -2.865845 0.217754 0
M  V30 27 C 2.568122 -5.836685 -0.579256 0
M  V30 28 F 3.617535 -5.004928 -0.607078 0
M  V30 29 N 2.552583 -7.073317 -1.132725 0
M  V30 30 H 1.094872 -9.974455 -1.118427 0
M  V30 31 H 1.925045 -9.317515 -2.627908 0
M  V30 32 H -0.552533 -8.078807 -0.391855 0
M  V30 33 H -0.636343 -5.905158 0.623786 0
M  V30 34 H 1.943615 -4.493365 2.784376 0
M  V30 35 H 1.429755 -2.029770 3.256226 0
M  V30 36 H 0.470650 0.074261 1.714527 0
M  V30 37 H -0.915561 0.896201 -2.669404 0
M  V30 38 H -1.464667 4.751924 -0.977143 0
M  V30 39 H 0.633770 4.150458 3.231865 0
M  V30 40 H 0.196719 2.454205 2.686677 0
M  V30 41 H -0.881824 3.292007 4.729048 0
M  V30 42 H -2.026688 2.695780 3.531655 0
M  V30 43 H -2.876972 4.673908 4.244763 0
M  V30 44 H -2.207995 6.613055 2.853965 0
M  V30 45 H -3.006504 5.251681 2.054562 0
M  V30 46 H -0.027002 5.940480 2.031402 0
M  V30 47 H -1.226071 5.868641 0.706941 0
M  V30 48 H -0.329960 -1.022894 -2.343752 0
M  V30 49 H 0.390054 -3.306029 -1.869622 0
M  V30 END ATOM
M  V30 BEGIN BOND
M  V30 1 1 1 2
M  V30 2 2 2 3
M  V30 3 1 3 4
M  V30 4 2 4 5
M  V30 5 1 5 6
M  V30 6 2 6 7
M  V30 7 1 7 8
M  V30 8 1 8 9
M  V30 9 2 9 10
M  V30 10 1 10 11
M  V30 11 1 11 12
M  V30 12 2 12 13
M  V30 13 1 13 14
M  V30 14 2 14 15
M  V30 15 1 15 16
M  V30 16 1 16 17
M  V30 17 1 17 18
M  V30 18 1 18 19
M  V30 19 1 19 20
M  V30 20 1 20 21
M  V30 21 1 21 22
M  V30 22 2 16 23
M  V30 23 2 11 24
M  V30 24 1 24 25
M  V30 25 2 25 26
M  V30 26 1 5 27
M  V30 27 1 27 28
M  V30 28 2 27 29
M  V30 29 1 29 2
M  V30 30 1 26 6
M  V30 31 1 26 9
M  V30 32 1 23 12
M  V30 33 1 22 17
M  V30 34 1 1 30
M  V30 35 1 1 31
M  V30 36 1 3 32
M  V30 37 1 4 33
M  V30 38 1 7 34
M  V30 39 1 8 35
M  V30 40 1 10 36
M  V30 41 1 13 37
M  V30 42 1 15 38
M  V30 43 1 18 39
M  V30 44 1 18 40
M  V30 45 1 19 41
M  V30 46 1 19 42
M  V30 47 1 20 43
M  V30 48 1 21 44
M  V30 49 1 21 45
M  V30 50 1 22 46
M  V30 51 1 22 47
M  V30 52 1 24 48
M  V30 53 1 25 49
M  V30 END BOND
M  V30 END CTAB
M  END
>  <Dataset>  (390) 
ChEMBL_Kinases

>  <Ligand_Instance>  (390) 
nan

>  <PDB_ID>  (390) 
nan

>  <Standardized_SMILES>  (390) 
Nc1ccc(-c2c[nH]c3cc(-c4cncc(N5CCNCC5)n4)ccc23)c(F)n1

>  <Name>  (390) 
nan

>  <Pocket>  (390) 
nan

>  <ATP_Site>  (390) 
nan

>  <Peripheral>  (390) 
nan

>  <Num_H_Atoms_ProtBoundConf>  (390) 
nan

>  <Num_Resolved_Atoms>  (390) 
nan

>  <Num_Not_Resolved_Atoms>  (390) 
nan

$$$$
CHEMBL4105100
     RDKit          3D

  0  0  0  0  0  0  0  0  0  0999 V3000
M  V30 BEGIN CTAB
M  V30 COUNTS 61 65 0 0 0
M  V30 BEGIN ATOM
M  V30 1 C 6.906877 3.134067 -1.423084 0
M  V30 2 N 7.200155 1.833110 -0.823254 0
M  V30 3 N 8.250450 1.051929 -0.958001 0
M  V30 4 C 8.100685 -0.075741 -0.213959 0
M  V30 5 C 6.867927 0.078794 0.391432 0
M  V30 6 C 6.296995 1.297311 0.000288 0
M  V30 7 C 4.965370 1.633334 0.561151 0
M  V30 8 N 3.966484 1.138166 -0.369678 0
M  V30 9 C 2.578612 1.234063 -0.136612 0
M  V30 10 O 2.342934 1.798570 0.997438 0
M  V30 11 C 1.437214 0.815840 -0.928132 0
M  V30 12 C 0.188924 0.837092 -0.365018 0
M  V30 13 C -0.924312 0.437099 -1.049435 0
M  V30 14 C -2.261826 0.469588 -0.341055 0 CFG=2
M  V30 15 C -2.547801 1.744201 0.322171 0
M  V30 16 C -2.988398 1.743218 1.739075 0
M  V30 17 N -2.932163 0.531390 2.442973 0
M  V30 18 C -3.184362 -0.657132 1.710154 0
M  V30 19 C -2.410149 -0.797054 0.465127 0 CFG=1
M  V30 20 C -2.953200 -1.922961 -0.443257 0
M  V30 21 O -3.136630 -3.106223 0.085131 0
M  V30 22 C -3.598198 -4.039230 0.869910 0
M  V30 23 C -3.075171 -5.289185 0.594170 0
M  V30 24 C -3.427721 -6.443735 1.314723 0
M  V30 25 C -4.353260 -6.226808 2.335323 0
M  V30 26 C -4.900360 -5.007182 2.647197 0
M  V30 27 C -4.523734 -3.885916 1.907376 0
M  V30 28 O -5.767942 -5.222120 3.712610 0
M  V30 29 C -5.481061 -6.465828 4.324287 0
M  V30 30 O -4.896825 -7.172484 3.219727 0
M  V30 31 C -0.795175 -0.006918 -2.358481 0
M  V30 32 C 0.423324 -0.064172 -3.008276 0
M  V30 33 C 1.496526 0.365037 -2.224840 0
M  V30 34 F 2.691059 0.311582 -2.853376 0
M  V30 35 H 7.381760 3.948479 -0.834793 0
M  V30 36 H 5.834431 3.280055 -1.623159 0
M  V30 37 H 7.437845 3.139687 -2.415694 0
M  V30 38 H 8.810857 -0.882444 -0.142847 0
M  V30 39 H 6.503565 -0.705397 1.059944 0
M  V30 40 H 4.807346 1.230577 1.568631 0
M  V30 41 H 4.897408 2.764371 0.601364 0
M  V30 42 H 4.228215 0.680869 -1.263827 0
M  V30 43 H 0.063730 1.178776 0.639383 0
M  V30 44 H -3.006751 0.331405 -1.180765 0
M  V30 45 H -1.640269 2.413762 0.165605 0
M  V30 46 H -3.344000 2.337022 -0.235901 0
M  V30 47 H -2.354624 2.495425 2.292193 0
M  V30 48 H -4.034125 2.150354 1.893242 0
M  V30 49 H -3.051519 0.523549 3.437166 0
M  V30 50 H -3.028785 -1.500241 2.412948 0
M  V30 51 H -4.272020 -0.648573 1.471877 0
M  V30 52 H -1.387170 -1.131979 0.726961 0
M  V30 53 H -3.811672 -1.486332 -1.037546 0
M  V30 54 H -2.101412 -1.997503 -1.217996 0
M  V30 55 H -2.345342 -5.525136 -0.189403 0
M  V30 56 H -3.027379 -7.424760 1.112505 0
M  V30 57 H -4.929473 -2.930692 2.117874 0
M  V30 58 H -4.707861 -6.273537 5.103729 0
M  V30 59 H -6.372608 -6.973723 4.728482 0
M  V30 60 H -1.686898 -0.324224 -2.887040 0
M  V30 61 H 0.553687 -0.402105 -4.011306 0
M  V30 END ATOM
M  V30 BEGIN BOND
M  V30 1 1 1 2
M  V30 2 1 2 3
M  V30 3 2 3 4
M  V30 4 1 4 5
M  V30 5 2 5 6
M  V30 6 1 6 7
M  V30 7 1 7 8
M  V30 8 1 8 9
M  V30 9 2 9 10
M  V30 10 1 9 11
M  V30 11 2 11 12
M  V30 12 1 12 13
M  V30 13 1 13 14
M  V30 14 1 14 15
M  V30 15 1 15 16
M  V30 16 1 16 17
M  V30 17 1 17 18
M  V30 18 1 18 19
M  V30 19 1 19 20
M  V30 20 1 20 21
M  V30 21 1 21 22
M  V30 22 2 22 23
M  V30 23 1 23 24
M  V30 24 2 24 25
M  V30 25 1 25 26
M  V30 26 2 26 27
M  V30 27 1 26 28
M  V30 28 1 28 29
M  V30 29 1 29 30
M  V30 30 2 13 31
M  V30 31 1 31 32
M  V30 32 2 32 33
M  V30 33 1 33 34
M  V30 34 1 6 2
M  V30 35 1 33 11
M  V30 36 1 19 14
M  V30 37 1 27 22
M  V30 38 1 30 25
M  V30 39 1 1 35
M  V30 40 1 1 36
M  V30 41 1 1 37
M  V30 42 1 4 38
M  V30 43 1 5 39
M  V30 44 1 7 40
M  V30 45 1 7 41
M  V30 46 1 8 42
M  V30 47 1 12 43
M  V30 48 1 14 44 CFG=3
M  V30 49 1 15 45
M  V30 50 1 15 46
M  V30 51 1 16 47
M  V30 52 1 16 48
M  V30 53 1 17 49
M  V30 54 1 18 50
M  V30 55 1 18 51
M  V30 56 1 19 52 CFG=1
M  V30 57 1 20 53
M  V30 58 1 20 54
M  V30 59 1 23 55
M  V30 60 1 24 56
M  V30 61 1 27 57
M  V30 62 1 29 58
M  V30 63 1 29 59
M  V30 64 1 31 60
M  V30 65 1 32 61
M  V30 END BOND
M  V30 END CTAB
M  END
>  <Dataset>  (391) 
ChEMBL_Kinases

>  <Ligand_Instance>  (391) 
nan

>  <PDB_ID>  (391) 
nan

>  <Standardized_SMILES>  (391) 
Cn1nccc1CNC(=O)c1cc([C@@H]2CCNC[C@H]2COc2ccc3c(c2)OCO3)ccc1F

>  <Name>  (391) 
nan

>  <Pocket>  (391) 
nan

>  <ATP_Site>  (391) 
nan

>  <Peripheral>  (391) 
nan

>  <Num_H_Atoms_ProtBoundConf>  (391) 
nan

>  <Num_Resolved_Atoms>  (391) 
nan

>  <Num_Not_Resolved_Atoms>  (391) 
nan

$$$$
CHEMBL4794226
     RDKit          3D

  0  0  0  0  0  0  0  0  0  0999 V3000
M  V30 BEGIN CTAB
M  V30 COUNTS 44 47 0 0 0
M  V30 BEGIN ATOM
M  V30 1 O 7.712957 -2.915175 -1.148079 0
M  V30 2 C 7.041899 -3.140208 -0.093510 0
M  V30 3 O 7.698101 -2.998005 1.103568 0
M  V30 4 C 5.631915 -3.541507 0.080241 0
M  V30 5 S 4.731636 -3.740963 -1.460159 0
M  V30 6 C 4.516760 -2.209974 -2.353668 0
M  V30 7 N 5.374298 -1.720956 -3.267829 0
M  V30 8 C 4.999977 -0.536056 -3.818759 0
M  V30 9 N 3.909778 0.158869 -3.551000 0
M  V30 10 C 3.006103 -0.266981 -2.648480 0
M  V30 11 C 1.828555 0.282639 -2.222234 0
M  V30 12 C 1.086419 -0.316664 -1.310913 0
M  V30 13 C -0.174067 0.010008 -0.675740 0
M  V30 14 C -0.678525 -0.867436 0.261161 0
M  V30 15 C -1.874448 -0.523387 0.843889 0
M  V30 16 C -2.593404 0.616045 0.564256 0
M  V30 17 O -3.755306 1.181285 0.975974 0
M  V30 18 C -4.682544 0.742675 1.914094 0
M  V30 19 C -4.207534 0.581741 3.289091 0
M  V30 20 C -4.274787 1.817481 3.953436 0
M  V30 21 C -3.890326 1.938168 5.288448 0
M  V30 22 C -3.434525 0.858483 5.997453 0
M  V30 23 C -3.364674 -0.372829 5.345484 0
M  V30 24 C -3.745832 -0.475680 4.034448 0
M  V30 25 C -2.036352 1.480695 -0.400225 0
M  V30 26 C -0.813235 1.178306 -1.029895 0
M  V30 27 S 2.003924 -1.797874 -0.927469 0
M  V30 28 C 3.350229 -1.477603 -2.059548 0
M  V30 29 H 8.640722 -2.603652 1.208709 0
M  V30 30 H 5.577626 -4.523126 0.610852 0
M  V30 31 H 5.120475 -2.820640 0.779727 0
M  V30 32 H 5.688072 -0.115316 -4.571336 0
M  V30 33 H 1.454097 1.232436 -2.613492 0
M  V30 34 H -0.237632 -1.781454 0.577799 0
M  V30 35 H -2.379539 -1.109836 1.577341 0
M  V30 36 H -5.037026 -0.289024 1.592833 0
M  V30 37 H -5.641238 1.337050 1.866291 0
M  V30 38 H -4.605749 2.777022 3.565212 0
M  V30 39 H -3.916738 2.854015 5.857556 0
M  V30 40 H -3.113933 0.853688 7.033970 0
M  V30 41 H -3.020728 -1.291743 5.806488 0
M  V30 42 H -3.734688 -1.379125 3.462702 0
M  V30 43 H -2.422287 2.440494 -0.786043 0
M  V30 44 H -0.340543 1.803291 -1.775057 0
M  V30 END ATOM
M  V30 BEGIN BOND
M  V30 1 2 1 2
M  V30 2 1 2 3
M  V30 3 1 2 4
M  V30 4 1 4 5
M  V30 5 1 5 6
M  V30 6 2 6 7
M  V30 7 1 7 8
M  V30 8 2 8 9
M  V30 9 1 9 10
M  V30 10 1 10 11
M  V30 11 2 11 12
M  V30 12 1 12 13
M  V30 13 2 13 14
M  V30 14 1 14 15
M  V30 15 2 15 16
M  V30 16 1 16 17
M  V30 17 1 17 18
M  V30 18 1 18 19
M  V30 19 2 19 20
M  V30 20 1 20 21
M  V30 21 2 21 22
M  V30 22 1 22 23
M  V30 23 2 23 24
M  V30 24 1 16 25
M  V30 25 2 25 26
M  V30 26 1 12 27
M  V30 27 1 27 28
M  V30 28 1 28 6
M  V30 29 2 28 10
M  V30 30 1 26 13
M  V30 31 1 24 19
M  V30 32 1 3 29
M  V30 33 1 4 30
M  V30 34 1 4 31
M  V30 35 1 8 32
M  V30 36 1 11 33
M  V30 37 1 14 34
M  V30 38 1 15 35
M  V30 39 1 18 36
M  V30 40 1 18 37
M  V30 41 1 20 38
M  V30 42 1 21 39
M  V30 43 1 22 40
M  V30 44 1 23 41
M  V30 45 1 24 42
M  V30 46 1 25 43
M  V30 47 1 26 44
M  V30 END BOND
M  V30 END CTAB
M  END
>  <Dataset>  (392) 
ChEMBL_Kinases

>  <Ligand_Instance>  (392) 
nan

>  <PDB_ID>  (392) 
nan

>  <Standardized_SMILES>  (392) 
O=C(O)CSc1ncnc2cc(-c3ccc(OCc4ccccc4)cc3)sc12

>  <Name>  (392) 
nan

>  <Pocket>  (392) 
nan

>  <ATP_Site>  (392) 
nan

>  <Peripheral>  (392) 
nan

>  <Num_H_Atoms_ProtBoundConf>  (392) 
nan

>  <Num_Resolved_Atoms>  (392) 
nan

>  <Num_Not_Resolved_Atoms>  (392) 
nan

$$$$
CHEMBL4105077
     RDKit          3D

  0  0  0  0  0  0  0  0  0  0999 V3000
M  V30 BEGIN CTAB
M  V30 COUNTS 51 54 0 0 0
M  V30 BEGIN ATOM
M  V30 1 O 1.117316 0.515299 -0.231775 0
M  V30 2 C 1.819568 -0.342916 0.409370 0
M  V30 3 C 3.298185 -0.351728 0.297731 0
M  V30 4 C 3.986526 0.490529 -0.443131 0
M  V30 5 C 5.412608 0.419177 -0.499801 0
M  V30 6 C 6.148319 -0.541673 0.139928 0
M  V30 7 N 7.477189 -0.571193 -0.016719 0
M  V30 8 C 8.114389 0.319537 -0.788166 0
M  V30 9 C 7.366156 1.277669 -1.422187 0
M  V30 10 C 5.986667 1.367496 -1.302438 0
M  V30 11 C 5.470682 2.523742 -1.968515 0
M  V30 12 C 4.296356 3.398280 -1.806545 0
M  V30 13 N 4.163897 4.443413 -2.579137 0
M  V30 14 C 4.953295 4.765227 -3.446506 0
M  V30 15 S 6.285344 3.423880 -3.336309 0
M  V30 16 N 1.066972 -1.238609 1.197770 0
M  V30 17 C -0.354380 -1.177464 1.261691 0
M  V30 18 C -1.095232 -1.915612 0.356664 0
M  V30 19 C -2.478979 -1.906174 0.357880 0
M  V30 20 C -3.182085 -1.149904 1.274126 0
M  V30 21 C -4.666010 -1.066270 1.366138 0
M  V30 22 N -5.137780 -2.087027 2.260774 0
M  V30 23 C -6.579895 -2.070737 2.407208 0
M  V30 24 C -6.897431 -2.856472 3.669610 0
M  V30 25 O -5.861538 -3.702863 4.023743 0
M  V30 26 C -5.307635 -4.365188 2.948053 0
M  V30 27 C -4.725017 -3.414235 1.921234 0
M  V30 28 C -2.445594 -0.398970 2.194568 0
M  V30 29 C -1.049130 -0.411723 2.189513 0
M  V30 30 H 3.729916 -1.133929 0.900787 0
M  V30 31 H 3.264594 1.115493 -0.927542 0
M  V30 32 H 5.705272 -1.285988 0.772080 0
M  V30 33 H 9.187859 0.223429 -0.860515 0
M  V30 34 H 8.006996 1.945436 -2.022965 0
M  V30 35 H 3.552620 3.247963 -1.072293 0
M  V30 36 H 5.109408 5.509981 -4.186889 0
M  V30 37 H 1.624794 -1.943236 1.725125 0
M  V30 38 H -0.597898 -2.536775 -0.396804 0
M  V30 39 H -3.085319 -2.476449 -0.341410 0
M  V30 40 H -4.947225 -0.087174 1.746318 0
M  V30 41 H -5.139804 -1.166705 0.357760 0
M  V30 42 H -7.098469 -2.547384 1.538029 0
M  V30 43 H -6.918047 -1.014668 2.479901 0
M  V30 44 H -7.840645 -3.427823 3.551617 0
M  V30 45 H -6.974001 -2.109198 4.496543 0
M  V30 46 H -6.012518 -5.092418 2.486496 0
M  V30 47 H -4.448222 -4.961606 3.366295 0
M  V30 48 H -5.045386 -3.717453 0.899370 0
M  V30 49 H -3.613888 -3.434772 1.929362 0
M  V30 50 H -2.917441 0.214547 2.937982 0
M  V30 51 H -0.477658 0.176528 2.910639 0
M  V30 END ATOM
M  V30 BEGIN BOND
M  V30 1 2 1 2
M  V30 2 1 2 3
M  V30 3 2 3 4
M  V30 4 1 4 5
M  V30 5 2 5 6
M  V30 6 1 6 7
M  V30 7 2 7 8
M  V30 8 1 8 9
M  V30 9 2 9 10
M  V30 10 1 10 11
M  V30 11 2 11 12
M  V30 12 1 12 13
M  V30 13 2 13 14
M  V30 14 1 14 15
M  V30 15 1 2 16
M  V30 16 1 16 17
M  V30 17 2 17 18
M  V30 18 1 18 19
M  V30 19 2 19 20
M  V30 20 1 20 21
M  V30 21 1 21 22
M  V30 22 1 22 23
M  V30 23 1 23 24
M  V30 24 1 24 25
M  V30 25 1 25 26
M  V30 26 1 26 27
M  V30 27 1 20 28
M  V30 28 2 28 29
M  V30 29 1 10 5
M  V30 30 1 15 11
M  V30 31 1 29 17
M  V30 32 1 27 22
M  V30 33 1 3 30
M  V30 34 1 4 31
M  V30 35 1 6 32
M  V30 36 1 8 33
M  V30 37 1 9 34
M  V30 38 1 12 35
M  V30 39 1 14 36
M  V30 40 1 16 37
M  V30 41 1 18 38
M  V30 42 1 19 39
M  V30 43 1 21 40
M  V30 44 1 21 41
M  V30 45 1 23 42
M  V30 46 1 23 43
M  V30 47 1 24 44
M  V30 48 1 24 45
M  V30 49 1 26 46
M  V30 50 1 26 47
M  V30 51 1 27 48
M  V30 52 1 27 49
M  V30 53 1 28 50
M  V30 54 1 29 51
M  V30 END BOND
M  V30 END CTAB
M  END
>  <Dataset>  (393) 
ChEMBL_Kinases

>  <Ligand_Instance>  (393) 
nan

>  <PDB_ID>  (393) 
nan

>  <Standardized_SMILES>  (393) 
O=C(/C=C/c1cnccc1-c1cncs1)Nc1ccc(CN2CCOCC2)cc1

>  <Name>  (393) 
nan

>  <Pocket>  (393) 
nan

>  <ATP_Site>  (393) 
nan

>  <Peripheral>  (393) 
nan

>  <Num_H_Atoms_ProtBoundConf>  (393) 
nan

>  <Num_Resolved_Atoms>  (393) 
nan

>  <Num_Not_Resolved_Atoms>  (393) 
nan

$$$$
CHEMBL4105004
     RDKit          3D

  0  0  0  0  0  0  0  0  0  0999 V3000
M  V30 BEGIN CTAB
M  V30 COUNTS 48 50 0 0 0
M  V30 BEGIN ATOM
M  V30 1 C -2.127145 -4.948630 3.559862 0
M  V30 2 N -1.431205 -4.370246 2.444068 0
M  V30 3 C -0.949075 -5.097690 1.332268 0
M  V30 4 C -0.286516 -4.482809 0.289320 0
M  V30 5 C 0.198259 -5.159440 -0.812129 0
M  V30 6 O 0.844981 -4.434715 -1.792732 0
M  V30 7 C 1.043967 -3.072359 -1.752251 0
M  V30 8 C 2.211200 -2.644261 -1.151829 0
M  V30 9 C 2.439380 -1.277252 -1.096038 0
M  V30 10 C 1.496737 -0.419591 -1.638682 0
M  V30 11 N 1.748160 0.997171 -1.572870 0
M  V30 12 C 1.240737 1.617021 -0.404790 0
M  V30 13 O 0.639612 0.842434 0.414714 0
M  V30 14 N 1.320864 2.986527 -0.040493 0
M  V30 15 C 0.748863 3.446467 1.186875 0
M  V30 16 C -0.581828 3.880832 1.200922 0
M  V30 17 C -1.107356 4.323468 2.418396 0
M  V30 18 C -0.347447 4.335769 3.574276 0
M  V30 19 C -1.056078 4.835792 4.783079 0
M  V30 20 F -2.054530 3.947226 5.176004 0
M  V30 21 F -1.708804 5.998771 4.398711 0
M  V30 22 F -0.211606 5.034056 5.850257 0
M  V30 23 C 0.965091 3.899580 3.525779 0
M  V30 24 C 1.524449 3.454321 2.345593 0
M  V30 25 C 0.342260 -0.897500 -2.229929 0
M  V30 26 C -0.668973 0.024497 -2.812160 0
M  V30 27 C 0.076614 -2.255860 -2.306065 0
M  V30 28 N -0.006874 -6.509340 -0.837491 0
M  V30 29 C -0.657269 -7.123645 0.183089 0
M  V30 30 N -1.125808 -6.443606 1.255477 0
M  V30 31 H -2.198973 -6.052299 3.499902 0
M  V30 32 H -3.146032 -4.487060 3.667328 0
M  V30 33 H -1.610877 -4.702785 4.503050 0
M  V30 34 H -1.275505 -3.339006 2.465278 0
M  V30 35 H -0.153507 -3.395492 0.369469 0
M  V30 36 H 2.928380 -3.332830 -0.737249 0
M  V30 37 H 3.342544 -0.917347 -0.632822 0
M  V30 38 H 2.238762 1.675044 -2.224675 0
M  V30 39 H 1.820045 3.578732 -0.740027 0
M  V30 40 H -1.175364 3.868629 0.286507 0
M  V30 41 H -2.129813 4.646147 2.379697 0
M  V30 42 H 1.492592 3.940979 4.475080 0
M  V30 43 H 2.550661 3.120492 2.339910 0
M  V30 44 H -1.584231 0.088266 -2.189618 0
M  V30 45 H -0.258017 1.001552 -3.072338 0
M  V30 46 H -1.001332 -0.448636 -3.771626 0
M  V30 47 H -0.806213 -2.692174 -2.754792 0
M  V30 48 H -0.809754 -8.206411 0.140422 0
M  V30 END ATOM
M  V30 BEGIN BOND
M  V30 1 1 1 2
M  V30 2 1 2 3
M  V30 3 2 3 4
M  V30 4 1 4 5
M  V30 5 1 5 6
M  V30 6 1 6 7
M  V30 7 2 7 8
M  V30 8 1 8 9
M  V30 9 2 9 10
M  V30 10 1 10 11
M  V30 11 1 11 12
M  V30 12 2 12 13
M  V30 13 1 12 14
M  V30 14 1 14 15
M  V30 15 2 15 16
M  V30 16 1 16 17
M  V30 17 2 17 18
M  V30 18 1 18 19
M  V30 19 1 19 20
M  V30 20 1 19 21
M  V30 21 1 19 22
M  V30 22 1 18 23
M  V30 23 2 23 24
M  V30 24 1 10 25
M  V30 25 1 25 26
M  V30 26 2 25 27
M  V30 27 2 5 28
M  V30 28 1 28 29
M  V30 29 2 29 30
M  V30 30 1 30 3
M  V30 31 1 27 7
M  V30 32 1 24 15
M  V30 33 1 1 31
M  V30 34 1 1 32
M  V30 35 1 1 33
M  V30 36 1 2 34
M  V30 37 1 4 35
M  V30 38 1 8 36
M  V30 39 1 9 37
M  V30 40 1 11 38
M  V30 41 1 14 39
M  V30 42 1 16 40
M  V30 43 1 17 41
M  V30 44 1 23 42
M  V30 45 1 24 43
M  V30 46 1 26 44
M  V30 47 1 26 45
M  V30 48 1 26 46
M  V30 49 1 27 47
M  V30 50 1 29 48
M  V30 END BOND
M  V30 END CTAB
M  END
>  <Dataset>  (394) 
ChEMBL_Kinases

>  <Ligand_Instance>  (394) 
nan

>  <PDB_ID>  (394) 
nan

>  <Standardized_SMILES>  (394) 
CNc1cc(Oc2ccc(NC(=O)Nc3ccc(C(F)(F)F)cc3)c(C)c2)ncn1

>  <Name>  (394) 
nan

>  <Pocket>  (394) 
nan

>  <ATP_Site>  (394) 
nan

>  <Peripheral>  (394) 
nan

>  <Num_H_Atoms_ProtBoundConf>  (394) 
nan

>  <Num_Resolved_Atoms>  (394) 
nan

>  <Num_Not_Resolved_Atoms>  (394) 
nan

$$$$
CHEMBL4104971
     RDKit          3D

  0  0  0  0  0  0  0  0  0  0999 V3000
M  V30 BEGIN CTAB
M  V30 COUNTS 30 32 0 0 0
M  V30 BEGIN ATOM
M  V30 1 N -1.077645 -4.198351 0.550318 0
M  V30 2 C -0.061814 -3.686350 0.485471 0
M  V30 3 C 1.215012 -3.070576 0.403610 0
M  V30 4 C 2.417031 -3.734059 0.207257 0
M  V30 5 N 3.421191 -2.814901 0.185732 0
M  V30 6 C 2.932656 -1.558621 0.360955 0
M  V30 7 N 3.380578 -0.307270 0.433188 0
M  V30 8 C 2.559675 0.735417 0.624710 0
M  V30 9 N 3.211841 2.002279 0.676018 0
M  V30 10 N 1.230748 0.560813 0.753879 0
M  V30 11 C 0.712831 -0.685554 0.689789 0
M  V30 12 N -0.699122 -0.695175 0.841817 0
M  V30 13 C -1.963622 -1.044588 0.200613 0
M  V30 14 C -2.824993 0.202621 0.306808 0
M  V30 15 C -2.305532 0.840078 1.569606 0 CFG=2
M  V30 16 O -1.738008 2.046947 1.269896 0
M  V30 17 C -1.325753 -0.195510 2.048225 0
M  V30 18 C 1.573341 -1.742715 0.492581 0
M  V30 19 H 2.591147 -4.796535 0.085352 0
M  V30 20 H 4.461604 -2.965092 0.056802 0
M  V30 21 H 3.806553 2.308803 1.484623 0
M  V30 22 H 3.096974 2.659303 -0.123061 0
M  V30 23 H -2.525700 -1.823321 0.737288 0
M  V30 24 H -1.778582 -1.276549 -0.866851 0
M  V30 25 H -3.909867 -0.073576 0.393090 0
M  V30 26 H -2.659948 0.868881 -0.536137 0
M  V30 27 H -3.117929 1.021126 2.303611 0
M  V30 28 H -0.873661 2.239788 1.675537 0
M  V30 29 H -0.615902 0.201677 2.798135 0
M  V30 30 H -1.930229 -1.036132 2.474042 0
M  V30 END ATOM
M  V30 BEGIN BOND
M  V30 1 3 1 2
M  V30 2 1 2 3
M  V30 3 2 3 4
M  V30 4 1 4 5
M  V30 5 1 5 6
M  V30 6 2 6 7
M  V30 7 1 7 8
M  V30 8 1 8 9
M  V30 9 2 8 10
M  V30 10 1 10 11
M  V30 11 1 11 12
M  V30 12 1 12 13
M  V30 13 1 13 14
M  V30 14 1 14 15
M  V30 15 1 15 16
M  V30 16 1 15 17
M  V30 17 2 11 18
M  V30 18 1 18 3
M  V30 19 1 18 6
M  V30 20 1 17 12
M  V30 21 1 4 19
M  V30 22 1 5 20
M  V30 23 1 9 21
M  V30 24 1 9 22
M  V30 25 1 13 23
M  V30 26 1 13 24
M  V30 27 1 14 25
M  V30 28 1 14 26
M  V30 29 1 15 27 CFG=1
M  V30 30 1 16 28
M  V30 31 1 17 29
M  V30 32 1 17 30
M  V30 END BOND
M  V30 END CTAB
M  END
>  <Dataset>  (395) 
ChEMBL_Kinases

>  <Ligand_Instance>  (395) 
nan

>  <PDB_ID>  (395) 
nan

>  <Standardized_SMILES>  (395) 
N#Cc1c[nH]c2nc(N)nc(N3CC[C@H](O)C3)c12

>  <Name>  (395) 
nan

>  <Pocket>  (395) 
nan

>  <ATP_Site>  (395) 
nan

>  <Peripheral>  (395) 
nan

>  <Num_H_Atoms_ProtBoundConf>  (395) 
nan

>  <Num_Resolved_Atoms>  (395) 
nan

>  <Num_Not_Resolved_Atoms>  (395) 
nan

$$$$
CHEMBL4794175
     RDKit          3D

  0  0  0  0  0  0  0  0  0  0999 V3000
M  V30 BEGIN CTAB
M  V30 COUNTS 60 64 0 0 0
M  V30 BEGIN ATOM
M  V30 1 C 3.936161 -0.492818 4.656499 0
M  V30 2 C 4.320798 -1.111886 3.337164 0
M  V30 3 C 4.435701 -2.619806 3.598272 0
M  V30 4 O 5.591752 -0.668798 2.990265 0
M  V30 5 C 3.326152 -0.871080 2.269227 0
M  V30 6 C 3.380626 0.246644 1.454222 0
M  V30 7 C 2.419985 0.414785 0.466579 0
M  V30 8 N 2.383407 1.552407 -0.416316 0
M  V30 9 C 1.388733 1.551977 -1.465274 0
M  V30 10 C 0.031176 1.717454 -1.175563 0
M  V30 11 C -0.938546 1.730991 -2.166595 0
M  V30 12 O -2.192520 1.912023 -1.541263 0
M  V30 13 C -2.501661 1.163377 -0.396140 0
M  V30 14 C -2.754634 1.706860 0.844819 0
M  V30 15 N -3.003272 0.658866 1.645540 0
M  V30 16 C -3.318320 0.709803 3.072484 0
M  V30 17 C -4.024570 -0.477890 3.615423 0
M  V30 18 C -2.572788 -0.393312 3.867828 0
M  V30 19 N -2.908491 -0.449743 0.938161 0
M  V30 20 C -2.597442 -0.203730 -0.347934 0
M  V30 21 C -2.488796 -1.329221 -1.246603 0
M  V30 22 C -3.541271 -2.257708 -1.210060 0
M  V30 23 C -3.653260 -3.422279 -1.977430 0
M  V30 24 C -2.614456 -3.649565 -2.841025 0
M  V30 25 C -2.686200 -4.841967 -3.661099 0
M  V30 26 O -3.661295 -5.642564 -3.584224 0
M  V30 27 O -1.829222 -5.356100 -4.617241 0
M  V30 28 C -1.539087 -2.799643 -2.948725 0
M  V30 29 C -1.519257 -1.680698 -2.152315 0
M  V30 30 C -0.564537 1.578994 -3.478027 0
M  V30 31 C 0.768918 1.417905 -3.741850 0
M  V30 32 N 1.707100 1.404267 -2.782523 0
M  V30 33 C 1.467590 -0.581816 0.386117 0
M  V30 34 C 1.398831 -1.699999 1.190019 0
M  V30 35 N 2.359705 -1.803311 2.127768 0
M  V30 36 H 4.852100 -0.485249 5.298998 0
M  V30 37 H 3.185293 -1.090010 5.217905 0
M  V30 38 H 3.652453 0.562437 4.519337 0
M  V30 39 H 3.494927 -3.017087 4.056399 0
M  V30 40 H 5.315701 -2.813910 4.210991 0
M  V30 41 H 4.520485 -3.077013 2.578633 0
M  V30 42 H 5.843493 -1.146283 2.154124 0
M  V30 43 H 4.143597 0.980649 1.566962 0
M  V30 44 H 3.077718 2.296146 -0.235999 0
M  V30 45 H -0.126042 1.828011 -0.108699 0
M  V30 46 H -2.758400 2.760304 1.142811 0
M  V30 47 H -3.382829 1.711027 3.539517 0
M  V30 48 H -4.689772 -0.395832 4.508233 0
M  V30 49 H -4.364994 -1.259690 2.892753 0
M  V30 50 H -2.167427 -0.103496 4.850545 0
M  V30 51 H -1.875700 -1.047418 3.303231 0
M  V30 52 H -4.378354 -2.082154 -0.520896 0
M  V30 53 H -4.511475 -4.056636 -1.859174 0
M  V30 54 H -1.383431 -6.242435 -4.521010 0
M  V30 55 H -0.718139 -2.976503 -3.627879 0
M  V30 56 H -0.682068 -1.040321 -2.236294 0
M  V30 57 H -1.424872 1.611012 -4.128163 0
M  V30 58 H 1.002722 1.302846 -4.788668 0
M  V30 59 H 0.681079 -0.523898 -0.358422 0
M  V30 60 H 0.643602 -2.451880 1.099452 0
M  V30 END ATOM
M  V30 BEGIN BOND
M  V30 1 1 1 2
M  V30 2 1 2 3
M  V30 3 1 2 4
M  V30 4 1 2 5
M  V30 5 2 5 6
M  V30 6 1 6 7
M  V30 7 1 7 8
M  V30 8 1 8 9
M  V30 9 2 9 10
M  V30 10 1 10 11
M  V30 11 1 11 12
M  V30 12 1 12 13
M  V30 13 2 13 14
M  V30 14 1 14 15
M  V30 15 1 15 16
M  V30 16 1 16 17
M  V30 17 1 17 18
M  V30 18 1 15 19
M  V30 19 2 19 20
M  V30 20 1 20 21
M  V30 21 2 21 22
M  V30 22 1 22 23
M  V30 23 2 23 24
M  V30 24 1 24 25
M  V30 25 2 25 26
M  V30 26 1 25 27
M  V30 27 1 24 28
M  V30 28 2 28 29
M  V30 29 2 11 30
M  V30 30 1 30 31
M  V30 31 2 31 32
M  V30 32 2 7 33
M  V30 33 1 33 34
M  V30 34 2 34 35
M  V30 35 1 35 5
M  V30 36 1 32 9
M  V30 37 1 20 13
M  V30 38 1 29 21
M  V30 39 1 18 16
M  V30 40 1 1 36
M  V30 41 1 1 37
M  V30 42 1 1 38
M  V30 43 1 3 39
M  V30 44 1 3 40
M  V30 45 1 3 41
M  V30 46 1 4 42
M  V30 47 1 6 43
M  V30 48 1 8 44
M  V30 49 1 10 45
M  V30 50 1 14 46
M  V30 51 1 16 47
M  V30 52 1 17 48
M  V30 53 1 17 49
M  V30 54 1 18 50
M  V30 55 1 18 51
M  V30 56 1 22 52
M  V30 57 1 23 53
M  V30 58 1 27 54
M  V30 59 1 28 55
M  V30 60 1 29 56
M  V30 61 1 30 57
M  V30 62 1 31 58
M  V30 63 1 33 59
M  V30 64 1 34 60
M  V30 END BOND
M  V30 END CTAB
M  END
>  <Dataset>  (396) 
ChEMBL_Kinases

>  <Ligand_Instance>  (396) 
nan

>  <PDB_ID>  (396) 
nan

>  <Standardized_SMILES>  (396) 
CC(C)(O)c1cc(Nc2cc(Oc3cn(C4CC4)nc3-c3ccc(C(=O)O)cc3)ccn2)ccn1

>  <Name>  (396) 
nan

>  <Pocket>  (396) 
nan

>  <ATP_Site>  (396) 
nan

>  <Peripheral>  (396) 
nan

>  <Num_H_Atoms_ProtBoundConf>  (396) 
nan

>  <Num_Resolved_Atoms>  (396) 
nan

>  <Num_Not_Resolved_Atoms>  (396) 
nan

$$$$
CHEMBL4111969
     RDKit          3D

  0  0  0  0  0  0  0  0  0  0999 V3000
M  V30 BEGIN CTAB
M  V30 COUNTS 56 61 0 0 0
M  V30 BEGIN ATOM
M  V30 1 C 4.692537 -4.447108 2.192562 0
M  V30 2 C 4.861621 -3.005368 2.445771 0
M  V30 3 C 4.080206 -2.094963 3.123961 0
M  V30 4 C 4.725467 -0.877704 3.044508 0
M  V30 5 C 4.158324 0.366169 3.679042 0 CFG=2
M  V30 6 C 5.067768 1.543878 3.435913 0
M  V30 7 O 3.978501 0.157512 5.042881 0
M  V30 8 C 2.874899 0.709514 3.022482 0
M  V30 9 C 1.834056 0.981508 2.468777 0
M  V30 10 C 0.597418 1.282158 1.800138 0
M  V30 11 C -0.022581 0.298139 1.048758 0
M  V30 12 C -1.213320 0.567371 0.397511 0
M  V30 13 C -1.784036 1.847705 0.507809 0
M  V30 14 C -1.198621 2.836518 1.239055 0
M  V30 15 C -0.005760 2.524637 1.875890 0
M  V30 16 F 0.598216 3.482939 2.607638 0
M  V30 17 C -3.083867 2.244373 -0.158205 0
M  V30 18 C -4.121944 1.143410 0.107484 0
M  V30 19 C -3.840557 0.512375 -1.272301 0
M  V30 20 C -3.124929 1.795947 -1.603635 0
M  V30 21 N -2.886676 -0.593490 -1.104959 0
M  V30 22 C -1.734022 -0.599296 -0.365153 0
M  V30 23 N -1.139425 -1.780879 -0.428311 0
M  V30 24 C -1.884938 -2.588820 -1.214295 0
M  V30 25 C -1.597070 -3.979880 -1.553944 0
M  V30 26 N -0.425990 -4.591580 -1.029747 0
M  V30 27 O -2.352918 -4.673503 -2.303289 0
M  V30 28 C -2.959789 -1.825749 -1.619415 0
M  V30 29 C -4.015421 -2.384316 -2.497882 0
M  V30 30 C -3.712456 -2.737580 -3.926541 0
M  V30 31 C -4.455875 -1.455833 -3.674592 0
M  V30 32 N 5.850828 -1.090538 2.335859 0
M  V30 33 O 5.903473 -2.342199 1.999655 0
M  V30 34 H 3.841680 -4.868808 2.784581 0
M  V30 35 H 4.395715 -4.593341 1.115025 0
M  V30 36 H 5.635222 -5.008051 2.323193 0
M  V30 37 H 3.144040 -2.418899 3.591201 0
M  V30 38 H 4.486464 2.455445 3.635204 0
M  V30 39 H 5.917174 1.517239 4.162638 0
M  V30 40 H 5.457809 1.529184 2.394901 0
M  V30 41 H 3.605307 -0.773657 5.134414 0
M  V30 42 H 0.417029 -0.668077 0.971299 0
M  V30 43 H -1.670943 3.792141 1.292026 0
M  V30 44 H -3.396556 3.256722 0.070995 0
M  V30 45 H -5.156344 1.499839 0.169308 0
M  V30 46 H -3.814858 0.507995 0.946894 0
M  V30 47 H -4.736896 0.249705 -1.817036 0
M  V30 48 H -3.804405 2.464802 -2.182697 0
M  V30 49 H -2.128804 1.667790 -2.078359 0
M  V30 50 H 0.475139 -4.082808 -1.236778 0
M  V30 51 H -0.576972 -5.482448 -0.492996 0
M  V30 52 H -4.882273 -2.913590 -2.015383 0
M  V30 53 H -4.292152 -3.551993 -4.402930 0
M  V30 54 H -2.616641 -2.676917 -4.175838 0
M  V30 55 H -3.815234 -0.531888 -3.796443 0
M  V30 56 H -5.523115 -1.401593 -3.893803 0
M  V30 END ATOM
M  V30 BEGIN BOND
M  V30 1 1 1 2
M  V30 2 2 2 3
M  V30 3 1 3 4
M  V30 4 1 4 5
M  V30 5 1 5 6
M  V30 6 1 5 7
M  V30 7 1 5 8 CFG=3
M  V30 8 3 8 9
M  V30 9 1 9 10
M  V30 10 2 10 11
M  V30 11 1 11 12
M  V30 12 2 12 13
M  V30 13 1 13 14
M  V30 14 2 14 15
M  V30 15 1 15 16
M  V30 16 1 13 17
M  V30 17 1 17 18
M  V30 18 1 18 19
M  V30 19 1 19 20
M  V30 20 1 19 21
M  V30 21 1 21 22
M  V30 22 2 22 23
M  V30 23 1 23 24
M  V30 24 1 24 25
M  V30 25 1 25 26
M  V30 26 2 25 27
M  V30 27 2 24 28
M  V30 28 1 28 29
M  V30 29 1 29 30
M  V30 30 1 30 31
M  V30 31 2 4 32
M  V30 32 1 32 33
M  V30 33 1 33 2
M  V30 34 1 15 10
M  V30 35 1 20 17
M  V30 36 1 28 21
M  V30 37 1 31 29
M  V30 38 1 22 12
M  V30 39 1 1 34
M  V30 40 1 1 35
M  V30 41 1 1 36
M  V30 42 1 3 37
M  V30 43 1 6 38
M  V30 44 1 6 39
M  V30 45 1 6 40
M  V30 46 1 7 41
M  V30 47 1 11 42
M  V30 48 1 14 43
M  V30 49 1 17 44
M  V30 50 1 18 45
M  V30 51 1 18 46
M  V30 52 1 19 47
M  V30 53 1 20 48
M  V30 54 1 20 49
M  V30 55 1 26 50
M  V30 56 1 26 51
M  V30 57 1 29 52
M  V30 58 1 30 53
M  V30 59 1 30 54
M  V30 60 1 31 55
M  V30 61 1 31 56
M  V30 END BOND
M  V30 END CTAB
M  END
>  <Dataset>  (397) 
ChEMBL_Kinases

>  <Ligand_Instance>  (397) 
nan

>  <PDB_ID>  (397) 
nan

>  <Standardized_SMILES>  (397) 
Cc1cc([C@](C)(O)C#Cc2cc3c(cc2F)C2CC(C2)n2c-3nc(C(N)=O)c2C2CC2)no1

>  <Name>  (397) 
nan

>  <Pocket>  (397) 
nan

>  <ATP_Site>  (397) 
nan

>  <Peripheral>  (397) 
nan

>  <Num_H_Atoms_ProtBoundConf>  (397) 
nan

>  <Num_Resolved_Atoms>  (397) 
nan

>  <Num_Not_Resolved_Atoms>  (397) 
nan

$$$$
CHEMBL4793797
     RDKit          3D

  0  0  0  0  0  0  0  0  0  0999 V3000
M  V30 BEGIN CTAB
M  V30 COUNTS 60 63 0 0 0
M  V30 BEGIN ATOM
M  V30 1 C 5.523871 -2.417358 5.390789 0
M  V30 2 O 5.190625 -1.058757 5.254083 0
M  V30 3 C 4.332278 -0.580841 4.280499 0
M  V30 4 O 3.910132 -1.519088 3.557769 0
M  V30 5 C 4.130864 0.825905 4.317982 0
M  V30 6 S 4.812720 2.074492 5.444278 0
M  V30 7 C 3.932819 3.541422 4.632579 0
M  V30 8 C 3.177987 2.921331 3.544565 0
M  V30 9 C 3.301331 1.578348 3.420564 0
M  V30 10 N 2.597566 0.942323 2.377587 0
M  V30 11 C 1.748687 1.548527 1.431363 0
M  V30 12 N 0.392043 1.522228 1.548430 0
M  V30 13 C -0.384836 2.116623 0.601855 0
M  V30 14 N -1.812230 2.152285 0.608016 0
M  V30 15 C -2.577853 1.071144 0.079101 0
M  V30 16 C -1.894689 -0.039512 -0.390574 0
M  V30 17 C -2.479518 -1.195142 -0.932767 0
M  V30 18 C -3.879271 -1.203562 -0.994678 0
M  V30 19 C -4.566703 -0.105050 -0.530424 0
M  V30 20 C -3.974323 1.019059 -0.001848 0
M  V30 21 O -4.626620 2.135094 0.471755 0
M  V30 22 C -6.035348 2.184450 0.436553 0
M  V30 23 C -4.281188 -2.510477 -1.610449 0
M  V30 24 C -3.000475 -2.859893 -2.349475 0
M  V30 25 N -1.930717 -2.403044 -1.443372 0
M  V30 26 C -0.684658 -2.908378 -1.068255 0
M  V30 27 O -0.054050 -2.229539 -0.172669 0
M  V30 28 C 0.151424 -4.031521 -1.410249 0
M  V30 29 N -0.306410 -4.949685 -2.406000 0
M  V30 30 C -0.372776 -4.477856 -3.740532 0
M  V30 31 C 0.589201 -6.092777 -2.353352 0
M  V30 32 N 0.164419 2.748487 -0.476374 0
M  V30 33 C 1.514655 2.778655 -0.598107 0
M  V30 34 C 2.324350 2.181145 0.350829 0
M  V30 35 F 3.662055 2.260689 0.154847 0
M  V30 36 H 5.211645 -2.779855 6.404076 0
M  V30 37 H 6.606158 -2.549709 5.271503 0
M  V30 38 H 4.980047 -3.042578 4.628158 0
M  V30 39 H 3.976347 4.598110 4.905761 0
M  V30 40 H 2.612296 3.627341 2.973197 0
M  V30 41 H 2.654086 -0.077650 2.218407 0
M  V30 42 H -2.399358 2.936733 0.984245 0
M  V30 43 H -0.792092 -0.017822 -0.334088 0
M  V30 44 H -5.641587 -0.150193 -0.590770 0
M  V30 45 H -6.426271 1.578829 1.301470 0
M  V30 46 H -6.422302 1.703753 -0.478093 0
M  V30 47 H -6.410145 3.225930 0.563344 0
M  V30 48 H -4.522578 -3.272145 -0.851150 0
M  V30 49 H -5.123726 -2.407758 -2.319493 0
M  V30 50 H -2.997199 -2.307847 -3.301524 0
M  V30 51 H -2.931058 -3.942065 -2.517418 0
M  V30 52 H 0.279310 -4.667310 -0.479167 0
M  V30 53 H 1.224450 -3.710388 -1.607877 0
M  V30 54 H 0.277888 -5.127293 -4.386736 0
M  V30 55 H 0.053264 -3.462435 -3.888433 0
M  V30 56 H -1.385270 -4.600774 -4.208230 0
M  V30 57 H 0.834562 -6.453799 -3.380145 0
M  V30 58 H 1.578001 -5.817870 -1.882533 0
M  V30 59 H 0.176241 -6.924072 -1.737583 0
M  V30 60 H 1.948602 3.276175 -1.446374 0
M  V30 END ATOM
M  V30 BEGIN BOND
M  V30 1 1 1 2
M  V30 2 1 2 3
M  V30 3 2 3 4
M  V30 4 1 3 5
M  V30 5 1 5 6
M  V30 6 1 6 7
M  V30 7 2 7 8
M  V30 8 1 8 9
M  V30 9 1 9 10
M  V30 10 1 10 11
M  V30 11 2 11 12
M  V30 12 1 12 13
M  V30 13 1 13 14
M  V30 14 1 14 15
M  V30 15 2 15 16
M  V30 16 1 16 17
M  V30 17 2 17 18
M  V30 18 1 18 19
M  V30 19 2 19 20
M  V30 20 1 20 21
M  V30 21 1 21 22
M  V30 22 1 18 23
M  V30 23 1 23 24
M  V30 24 1 24 25
M  V30 25 1 25 26
M  V30 26 2 26 27
M  V30 27 1 26 28
M  V30 28 1 28 29
M  V30 29 1 29 30
M  V30 30 1 29 31
M  V30 31 2 13 32
M  V30 32 1 32 33
M  V30 33 2 33 34
M  V30 34 1 34 35
M  V30 35 2 9 5
M  V30 36 1 34 11
M  V30 37 1 20 15
M  V30 38 1 25 17
M  V30 39 1 1 36
M  V30 40 1 1 37
M  V30 41 1 1 38
M  V30 42 1 7 39
M  V30 43 1 8 40
M  V30 44 1 10 41
M  V30 45 1 14 42
M  V30 46 1 16 43
M  V30 47 1 19 44
M  V30 48 1 22 45
M  V30 49 1 22 46
M  V30 50 1 22 47
M  V30 51 1 23 48
M  V30 52 1 23 49
M  V30 53 1 24 50
M  V30 54 1 24 51
M  V30 55 1 28 52
M  V30 56 1 28 53
M  V30 57 1 30 54
M  V30 58 1 30 55
M  V30 59 1 30 56
M  V30 60 1 31 57
M  V30 61 1 31 58
M  V30 62 1 31 59
M  V30 63 1 33 60
M  V30 END BOND
M  V30 END CTAB
M  END
>  <Dataset>  (398) 
ChEMBL_Kinases

>  <Ligand_Instance>  (398) 
nan

>  <PDB_ID>  (398) 
nan

>  <Standardized_SMILES>  (398) 
COC(=O)c1sccc1Nc1nc(Nc2cc3c(cc2OC)CCN3C(=O)CN(C)C)ncc1F

>  <Name>  (398) 
nan

>  <Pocket>  (398) 
nan

>  <ATP_Site>  (398) 
nan

>  <Peripheral>  (398) 
nan

>  <Num_H_Atoms_ProtBoundConf>  (398) 
nan

>  <Num_Resolved_Atoms>  (398) 
nan

>  <Num_Not_Resolved_Atoms>  (398) 
nan

$$$$
CHEMBL4793834
     RDKit          3D

  0  0  0  0  0  0  0  0  0  0999 V3000
M  V30 BEGIN CTAB
M  V30 COUNTS 42 45 0 0 0
M  V30 BEGIN ATOM
M  V30 1 O 0.433614 -3.323929 -0.588373 0
M  V30 2 C 1.474214 -2.687231 -0.324861 0
M  V30 3 C 2.630286 -2.981423 0.512025 0
M  V30 4 C 3.928205 -3.084830 0.083693 0
M  V30 5 C 4.905268 -3.369742 1.014933 0
M  V30 6 C 4.554073 -3.541308 2.337078 0
M  V30 7 F 5.592147 -3.816583 3.156848 0
M  V30 8 C 3.250146 -3.442599 2.798075 0
M  V30 9 C 2.279298 -3.154975 1.846971 0
M  V30 10 N 1.357984 -1.452861 -1.063498 0
M  V30 11 C 0.166620 -1.256212 -1.864805 0
M  V30 12 C -0.752720 -0.207986 -1.223011 0
M  V30 13 C 0.109222 0.500077 -0.192737 0
M  V30 14 N -0.586406 1.462714 0.599623 0
M  V30 15 C -1.657231 1.020758 1.425276 0
M  V30 16 N -2.035925 -0.270376 1.489334 0
M  V30 17 C -3.040464 -0.732329 2.256237 0
M  V30 18 N -3.731003 0.122681 3.019623 0
M  V30 19 C -3.402854 1.406178 2.997088 0
M  V30 20 N -3.915439 2.473158 3.651247 0
M  V30 21 N -3.260088 3.586354 3.314610 0
M  V30 22 C -2.287655 3.277078 2.419686 0
M  V30 23 C -2.365369 1.917416 2.212106 0
M  V30 24 C 1.301142 1.000387 -0.937372 0
M  V30 25 C 2.155248 -0.236784 -1.257381 0
M  V30 26 H 4.025859 -2.922068 -0.982015 0
M  V30 27 H 5.901590 -3.438677 0.621648 0
M  V30 28 H 3.104953 -3.597471 3.852385 0
M  V30 29 H 1.256620 -3.081402 2.237169 0
M  V30 30 H 0.404613 -1.033842 -2.911671 0
M  V30 31 H -0.457175 -2.198884 -1.871879 0
M  V30 32 H -0.941795 0.541125 -2.037179 0
M  V30 33 H -1.669269 -0.631990 -0.818620 0
M  V30 34 H 0.502244 -0.313849 0.490464 0
M  V30 35 H -0.337980 2.462288 0.592380 0
M  V30 36 H -3.128706 -1.818264 2.112555 0
M  V30 37 H -4.725759 2.391943 4.328394 0
M  V30 38 H -1.562414 3.922879 1.928961 0
M  V30 39 H 1.872734 1.793381 -0.460655 0
M  V30 40 H 0.963972 1.353135 -1.956570 0
M  V30 41 H 2.583309 -0.193506 -2.271091 0
M  V30 42 H 2.969782 -0.234977 -0.504977 0
M  V30 END ATOM
M  V30 BEGIN BOND
M  V30 1 2 1 2
M  V30 2 1 2 3
M  V30 3 2 3 4
M  V30 4 1 4 5
M  V30 5 2 5 6
M  V30 6 1 6 7
M  V30 7 1 6 8
M  V30 8 2 8 9
M  V30 9 1 2 10
M  V30 10 1 10 11
M  V30 11 1 11 12
M  V30 12 1 12 13
M  V30 13 1 13 14
M  V30 14 1 14 15
M  V30 15 2 15 16
M  V30 16 1 16 17
M  V30 17 2 17 18
M  V30 18 1 18 19
M  V30 19 1 19 20
M  V30 20 1 20 21
M  V30 21 2 21 22
M  V30 22 1 22 23
M  V30 23 1 13 24
M  V30 24 1 24 25
M  V30 25 1 9 3
M  V30 26 1 25 10
M  V30 27 1 23 15
M  V30 28 2 23 19
M  V30 29 1 4 26
M  V30 30 1 5 27
M  V30 31 1 8 28
M  V30 32 1 9 29
M  V30 33 1 11 30
M  V30 34 1 11 31
M  V30 35 1 12 32
M  V30 36 1 12 33
M  V30 37 1 13 34
M  V30 38 1 14 35
M  V30 39 1 17 36
M  V30 40 1 20 37
M  V30 41 1 22 38
M  V30 42 1 24 39
M  V30 43 1 24 40
M  V30 44 1 25 41
M  V30 45 1 25 42
M  V30 END BOND
M  V30 END CTAB
M  END
>  <Dataset>  (399) 
ChEMBL_Kinases

>  <Ligand_Instance>  (399) 
nan

>  <PDB_ID>  (399) 
nan

>  <Standardized_SMILES>  (399) 
O=C(c1ccc(F)cc1)N1CCC(Nc2ncnc3[nH]ncc23)CC1

>  <Name>  (399) 
nan

>  <Pocket>  (399) 
nan

>  <ATP_Site>  (399) 
nan

>  <Peripheral>  (399) 
nan

>  <Num_H_Atoms_ProtBoundConf>  (399) 
nan

>  <Num_Resolved_Atoms>  (399) 
nan

>  <Num_Not_Resolved_Atoms>  (399) 
nan

$$$$
CHEMBL4111227
     RDKit          3D

  0  0  0  0  0  0  0  0  0  0999 V3000
M  V30 BEGIN CTAB
M  V30 COUNTS 65 68 0 0 0
M  V30 BEGIN ATOM
M  V30 1 C 4.728056 1.459081 2.003278 0
M  V30 2 C 3.413512 0.762690 1.626470 0
M  V30 3 C 2.568625 0.770364 2.869020 0
M  V30 4 C 2.773124 1.454797 0.444199 0 CFG=1
M  V30 5 C 3.697789 1.398642 -0.705536 0
M  V30 6 N 3.261873 0.858645 -1.928834 0
M  V30 7 C 4.272987 0.013343 -2.536340 0
M  V30 8 C 2.016077 0.200297 -1.971441 0
M  V30 9 C 1.899209 -0.921471 -2.958047 0
M  V30 10 C 1.748841 -0.417767 -0.591177 0
M  V30 11 N 1.477960 0.785601 0.215731 0
M  V30 12 C 0.327091 1.438750 0.797701 0
M  V30 13 O 0.577401 2.517961 1.451881 0
M  V30 14 N -1.054370 1.067299 0.756950 0
M  V30 15 C -1.881952 -0.001862 0.185097 0
M  V30 16 C -2.651705 -0.426039 1.383123 0
M  V30 17 C -3.276924 -1.440511 2.078438 0
M  V30 18 N -3.310464 -2.781406 1.588776 0
M  V30 19 C -4.291818 -3.405022 0.739882 0
M  V30 20 O -5.276402 -2.691045 0.355826 0
M  V30 21 C -4.072548 -4.794847 0.395781 0
M  V30 22 C -5.024621 -5.367911 -0.416548 0
M  V30 23 C -4.885254 -6.704699 -0.793485 0
M  V30 24 C -3.807914 -7.447999 -0.360026 0
M  V30 25 Cl -3.576193 -9.133087 -0.799078 0
M  V30 26 C -2.886701 -6.799219 0.458881 0
M  V30 27 N -3.029172 -5.509332 0.817452 0
M  V30 28 N -3.801311 -0.943994 3.213424 0
M  V30 29 N -3.516499 0.347729 3.236543 0
M  V30 30 C -2.818537 0.706567 2.143674 0
M  V30 31 C -2.136558 1.800233 1.384726 0
M  V30 32 C -3.103202 2.342944 0.366411 0
M  V30 33 C -1.683083 2.893862 2.319069 0
M  V30 34 H 4.656397 2.554037 1.830280 0
M  V30 35 H 4.919592 1.338613 3.092513 0
M  V30 36 H 5.584987 0.992011 1.482276 0
M  V30 37 H 3.708511 -0.261040 1.346280 0
M  V30 38 H 1.574600 0.334462 2.767157 0
M  V30 39 H 2.461841 1.785410 3.300741 0
M  V30 40 H 3.157886 0.196848 3.644652 0
M  V30 41 H 2.607261 2.508563 0.786167 0
M  V30 42 H 4.670503 0.893340 -0.426891 0
M  V30 43 H 4.039881 2.454236 -0.928074 0
M  V30 44 H 4.045523 -1.063785 -2.283682 0
M  V30 45 H 5.263944 0.192738 -2.031133 0
M  V30 46 H 4.344819 0.091717 -3.620293 0
M  V30 47 H 1.236703 0.953900 -2.224990 0
M  V30 48 H 0.827130 -1.023917 -3.227060 0
M  V30 49 H 2.178076 -1.908157 -2.524505 0
M  V30 50 H 2.440382 -0.724770 -3.912422 0
M  V30 51 H 2.656002 -0.913558 -0.235005 0
M  V30 52 H 0.928494 -1.123031 -0.630806 0
M  V30 53 H -1.333305 -0.807978 -0.279678 0
M  V30 54 H -2.596068 0.471024 -0.527842 0
M  V30 55 H -2.479071 -3.318645 1.935962 0
M  V30 56 H -5.902432 -4.861601 -0.804394 0
M  V30 57 H -5.599569 -7.212281 -1.430048 0
M  V30 58 H -2.011714 -7.342750 0.831926 0
M  V30 59 H -3.774213 1.048065 3.981177 0
M  V30 60 H -2.552284 2.485322 -0.584717 0
M  V30 61 H -3.988699 1.738449 0.184192 0
M  V30 62 H -3.412493 3.396668 0.652371 0
M  V30 63 H -1.354338 3.746138 1.734799 0
M  V30 64 H -1.035201 2.514200 3.100059 0
M  V30 65 H -2.621524 3.225368 2.833956 0
M  V30 END ATOM
M  V30 BEGIN BOND
M  V30 1 1 1 2
M  V30 2 1 2 3
M  V30 3 1 2 4
M  V30 4 1 4 5
M  V30 5 1 5 6
M  V30 6 1 6 7
M  V30 7 1 6 8
M  V30 8 1 8 9
M  V30 9 1 8 10
M  V30 10 1 10 11
M  V30 11 1 11 12
M  V30 12 2 12 13
M  V30 13 1 12 14
M  V30 14 1 14 15
M  V30 15 1 15 16
M  V30 16 1 16 17
M  V30 17 1 17 18
M  V30 18 1 18 19
M  V30 19 2 19 20
M  V30 20 1 19 21
M  V30 21 2 21 22
M  V30 22 1 22 23
M  V30 23 2 23 24
M  V30 24 1 24 25
M  V30 25 1 24 26
M  V30 26 2 26 27
M  V30 27 2 17 28
M  V30 28 1 28 29
M  V30 29 1 29 30
M  V30 30 1 30 31
M  V30 31 1 31 32
M  V30 32 1 31 33
M  V30 33 1 11 4
M  V30 34 1 31 14
M  V30 35 2 30 16
M  V30 36 1 27 21
M  V30 37 1 1 34
M  V30 38 1 1 35
M  V30 39 1 1 36
M  V30 40 1 2 37
M  V30 41 1 3 38
M  V30 42 1 3 39
M  V30 43 1 3 40
M  V30 44 1 4 41 CFG=1
M  V30 45 1 5 42
M  V30 46 1 5 43
M  V30 47 1 7 44
M  V30 48 1 7 45
M  V30 49 1 7 46
M  V30 50 1 8 47
M  V30 51 1 9 48
M  V30 52 1 9 49
M  V30 53 1 9 50
M  V30 54 1 10 51
M  V30 55 1 10 52
M  V30 56 1 15 53
M  V30 57 1 15 54
M  V30 58 1 18 55
M  V30 59 1 22 56
M  V30 60 1 23 57
M  V30 61 1 26 58
M  V30 62 1 29 59
M  V30 63 1 32 60
M  V30 64 1 32 61
M  V30 65 1 32 62
M  V30 66 1 33 63
M  V30 67 1 33 64
M  V30 68 1 33 65
M  V30 END BOND
M  V30 END CTAB
M  END
>  <Dataset>  (400) 
ChEMBL_Kinases

>  <Ligand_Instance>  (400) 
nan

>  <PDB_ID>  (400) 
nan

>  <Standardized_SMILES>  (400) 
CC(C)[C@H]1CN(C)C(C)CN1C(=O)N1Cc2c(NC(=O)c3ccc(Cl)cn3)n[nH]c2C1(C)C

>  <Name>  (400) 
nan

>  <Pocket>  (400) 
nan

>  <ATP_Site>  (400) 
nan

>  <Peripheral>  (400) 
nan

>  <Num_H_Atoms_ProtBoundConf>  (400) 
nan

>  <Num_Resolved_Atoms>  (400) 
nan

>  <Num_Not_Resolved_Atoms>  (400) 
nan

$$$$
CHEMBL411098
     RDKit          3D

  0  0  0  0  0  0  0  0  0  0999 V3000
M  V30 BEGIN CTAB
M  V30 COUNTS 66 70 0 0 0
M  V30 BEGIN ATOM
M  V30 1 C 4.163832 -5.947987 -1.374002 0
M  V30 2 O 3.031092 -5.176788 -1.719331 0
M  V30 3 C 2.657164 -4.000644 -1.079800 0
M  V30 4 C 3.405848 -3.483684 -0.013701 0
M  V30 5 C 2.924855 -2.298190 0.545141 0
M  V30 6 C 1.798733 -1.609366 0.141385 0
M  V30 7 C 1.112324 -2.179609 -0.916323 0
M  V30 8 C 1.502598 -3.358267 -1.546530 0
M  V30 9 O 0.846596 -3.850014 -2.513047 0
M  V30 10 C 0.133019 -4.324887 -3.514870 0
M  V30 11 C -1.303748 -4.681223 -3.243256 0
M  V30 12 N -2.126226 -3.627291 -2.795137 0
M  V30 13 C -2.396250 -2.593187 -3.755971 0
M  V30 14 C -3.108104 -1.465540 -3.025020 0
M  V30 15 O -4.218646 -1.850573 -2.362067 0
M  V30 16 C -4.489765 -3.192560 -2.261613 0
M  V30 17 C -3.291912 -4.084011 -2.096736 0
M  V30 18 N 1.243973 -0.403443 0.650949 0
M  V30 19 C 1.653962 0.275247 1.856998 0
M  V30 20 C 0.663154 1.171891 2.196136 0
M  V30 21 C 0.810997 1.954615 3.326049 0
M  V30 22 C -0.113374 2.947121 3.859101 0
M  V30 23 C -0.234248 3.221744 5.226856 0
M  V30 24 C -1.145186 4.180455 5.642093 0
M  V30 25 C -1.938154 4.871548 4.715949 0
M  V30 26 N -2.826535 5.819096 5.355244 0 CHG=1 VAL=4
M  V30 27 O -3.158209 6.888158 4.794393 0
M  V30 28 O -3.301186 5.515498 6.608920 0 CHG=-1 VAL=1
M  V30 29 C -1.812674 4.593064 3.344546 0
M  V30 30 O -2.706676 5.414348 2.684004 0
M  V30 31 C -2.886224 5.440249 1.278612 0
M  V30 32 C -0.901892 3.638788 2.972990 0
M  V30 33 C 1.972401 1.801056 4.082257 0
M  V30 34 C 2.979921 0.913356 3.768247 0
M  V30 35 C 2.804599 0.137949 2.625917 0
M  V30 36 C 3.903438 -0.778688 2.359513 0
M  V30 37 O 4.995670 -0.441694 2.884282 0
M  V30 38 N 3.835137 -1.970017 1.587128 0
M  V30 39 H 3.998796 -7.033491 -1.587718 0
M  V30 40 H 4.301829 -5.905290 -0.253126 0
M  V30 41 H 5.100715 -5.548000 -1.820539 0
M  V30 42 H 4.281343 -3.969673 0.338457 0
M  V30 43 H 0.228151 -1.665734 -1.260531 0
M  V30 44 H 0.236730 -3.675135 -4.420987 0
M  V30 45 H 0.599126 -5.301114 -3.880505 0
M  V30 46 H -1.763470 -5.130341 -4.153009 0
M  V30 47 H -1.316232 -5.475258 -2.469744 0
M  V30 48 H -1.428510 -2.152438 -4.080089 0
M  V30 49 H -3.028248 -2.938251 -4.600205 0
M  V30 50 H -3.398384 -0.734951 -3.836059 0
M  V30 51 H -2.362566 -0.913587 -2.395545 0
M  V30 52 H -5.131248 -3.350694 -1.360026 0
M  V30 53 H -5.103646 -3.498542 -3.130617 0
M  V30 54 H -3.563414 -5.067034 -2.553745 0
M  V30 55 H -3.076223 -4.324191 -1.032966 0
M  V30 56 H 0.474031 -0.006291 0.073955 0
M  V30 57 H -0.248924 1.324136 1.645436 0
M  V30 58 H 0.413032 2.653127 5.899869 0
M  V30 59 H -1.147110 4.300257 6.712694 0
M  V30 60 H -2.278553 4.669933 0.748370 0
M  V30 61 H -3.960955 5.296585 1.081998 0
M  V30 62 H -2.500063 6.432283 0.927070 0
M  V30 63 H -0.916091 3.534591 1.883570 0
M  V30 64 H 2.216388 2.359603 5.001800 0
M  V30 65 H 3.883377 0.749084 4.299009 0
M  V30 66 H 4.566594 -2.670403 1.851109 0
M  V30 END ATOM
M  V30 BEGIN BOND
M  V30 1 1 1 2
M  V30 2 1 2 3
M  V30 3 2 3 4
M  V30 4 1 4 5
M  V30 5 2 5 6
M  V30 6 1 6 7
M  V30 7 2 7 8
M  V30 8 1 8 9
M  V30 9 1 9 10
M  V30 10 1 10 11
M  V30 11 1 11 12
M  V30 12 1 12 13
M  V30 13 1 13 14
M  V30 14 1 14 15
M  V30 15 1 15 16
M  V30 16 1 16 17
M  V30 17 1 6 18
M  V30 18 1 18 19
M  V30 19 2 19 20
M  V30 20 1 20 21
M  V30 21 1 21 22
M  V30 22 2 22 23
M  V30 23 1 23 24
M  V30 24 2 24 25
M  V30 25 1 25 26
M  V30 26 2 26 27
M  V30 27 1 26 28
M  V30 28 1 25 29
M  V30 29 1 29 30
M  V30 30 1 30 31
M  V30 31 2 29 32
M  V30 32 2 21 33
M  V30 33 1 33 34
M  V30 34 2 34 35
M  V30 35 1 35 36
M  V30 36 2 36 37
M  V30 37 1 36 38
M  V30 38 1 8 3
M  V30 39 1 17 12
M  V30 40 1 35 19
M  V30 41 1 38 5
M  V30 42 1 32 22
M  V30 43 1 1 39
M  V30 44 1 1 40
M  V30 45 1 1 41
M  V30 46 1 4 42
M  V30 47 1 7 43
M  V30 48 1 10 44
M  V30 49 1 10 45
M  V30 50 1 11 46
M  V30 51 1 11 47
M  V30 52 1 13 48
M  V30 53 1 13 49
M  V30 54 1 14 50
M  V30 55 1 14 51
M  V30 56 1 16 52
M  V30 57 1 16 53
M  V30 58 1 17 54
M  V30 59 1 17 55
M  V30 60 1 18 56
M  V30 61 1 20 57
M  V30 62 1 23 58
M  V30 63 1 24 59
M  V30 64 1 31 60
M  V30 65 1 31 61
M  V30 66 1 31 62
M  V30 67 1 32 63
M  V30 68 1 33 64
M  V30 69 1 34 65
M  V30 70 1 38 66
M  V30 END BOND
M  V30 END CTAB
M  END
>  <Dataset>  (401) 
ChEMBL_Kinases

>  <Ligand_Instance>  (401) 
nan

>  <PDB_ID>  (401) 
nan

>  <Standardized_SMILES>  (401) 
COc1cc2c(cc1OCCN1CCOCC1)Nc1cc(-c3ccc([N+](=O)[O-])c(OC)c3)ccc1C(=O)N2

>  <Name>  (401) 
nan

>  <Pocket>  (401) 
nan

>  <ATP_Site>  (401) 
nan

>  <Peripheral>  (401) 
nan

>  <Num_H_Atoms_ProtBoundConf>  (401) 
nan

>  <Num_Resolved_Atoms>  (401) 
nan

>  <Num_Not_Resolved_Atoms>  (401) 
nan

$$$$
CHEMBL4793858
     RDKit          3D

  0  0  0  0  0  0  0  0  0  0999 V3000
M  V30 BEGIN CTAB
M  V30 COUNTS 59 64 0 0 0
M  V30 BEGIN ATOM
M  V30 1 C 1.951488 -0.865638 5.533570 0
M  V30 2 N 2.252876 -1.427647 4.247589 0
M  V30 3 C 3.609035 -1.165245 3.804311 0
M  V30 4 C 3.668989 0.155943 3.114864 0
M  V30 5 C 2.816825 0.498946 2.156310 0
M  V30 6 C 2.830589 1.757220 1.459294 0
M  V30 7 C 3.902570 2.614389 1.539284 0
M  V30 8 O 5.080029 2.405201 2.239527 0
M  V30 9 C 3.982339 3.843171 0.922251 0
M  V30 10 C 2.924087 4.294749 0.148593 0
M  V30 11 O 2.896820 5.509512 -0.516472 0
M  V30 12 C 1.835202 3.424380 0.068378 0
M  V30 13 C 0.763282 3.878561 -0.709174 0
M  V30 14 O 0.791538 4.988987 -1.292198 0
M  V30 15 C -0.306862 3.018854 -0.779339 0
M  V30 16 C -0.386640 1.796990 -0.162332 0
M  V30 17 C -1.504759 0.875926 -0.212545 0
M  V30 18 C -1.581521 -0.127629 0.729819 0
M  V30 19 C -2.569307 -1.088667 0.762959 0
M  V30 20 C -3.577067 -1.095419 -0.187115 0
M  V30 21 S -4.874032 -2.320831 -0.179678 0
M  V30 22 C -4.390750 -3.750950 -1.166295 0
M  V30 23 N -5.152870 -4.829324 -1.348459 0
M  V30 24 C -4.492220 -5.703573 -2.133614 0
M  V30 25 C -4.721515 -6.949931 -2.668995 0
M  V30 26 C -3.813205 -7.615988 -3.469108 0
M  V30 27 C -2.589589 -7.015381 -3.766146 0
M  V30 28 C -2.353666 -5.770672 -3.234922 0
M  V30 29 C -3.262334 -5.112346 -2.438668 0
M  V30 30 N -3.228777 -3.907218 -1.827164 0
M  V30 31 C -3.541865 -0.109351 -1.151058 0
M  V30 32 C -2.527062 0.817952 -1.125996 0
M  V30 33 Cl -2.588529 1.965032 -2.425666 0
M  V30 34 O 0.657020 1.456435 0.538989 0
M  V30 35 C 1.735033 2.171716 0.689877 0
M  V30 36 C 1.961868 -0.664226 1.944046 0
M  V30 37 C 1.280630 -1.098354 3.221242 0
M  V30 38 H 2.521891 0.059635 5.774480 0
M  V30 39 H 2.199070 -1.603244 6.342809 0
M  V30 40 H 0.860253 -0.667177 5.611296 0
M  V30 41 H 4.231138 -1.187781 4.716599 0
M  V30 42 H 3.955606 -1.977458 3.166630 0
M  V30 43 H 4.455550 0.797351 3.484577 0
M  V30 44 H 5.833065 1.901132 1.764219 0
M  V30 45 H 4.799569 4.552340 0.953539 0
M  V30 46 H 3.533396 5.579479 -1.324140 0
M  V30 47 H -1.104825 3.398145 -1.356150 0
M  V30 48 H -0.912587 -0.268331 1.541362 0
M  V30 49 H -2.647328 -1.880988 1.490503 0
M  V30 50 H -5.670597 -7.440059 -2.451291 0
M  V30 51 H -4.050603 -8.597487 -3.862368 0
M  V30 52 H -1.852026 -7.502984 -4.388091 0
M  V30 53 H -1.404297 -5.270264 -3.447439 0
M  V30 54 H -2.469052 -3.193636 -1.834005 0
M  V30 55 H -4.323953 -0.118280 -1.884174 0
M  V30 56 H 2.649959 -1.545465 1.688476 0
M  V30 57 H 1.291107 -0.613719 1.087918 0
M  V30 58 H 0.623942 -0.298688 3.602455 0
M  V30 59 H 0.671941 -1.993032 3.006381 0
M  V30 END ATOM
M  V30 BEGIN BOND
M  V30 1 1 1 2
M  V30 2 1 2 3
M  V30 3 1 3 4
M  V30 4 2 4 5
M  V30 5 1 5 6
M  V30 6 2 6 7
M  V30 7 1 7 8
M  V30 8 1 7 9
M  V30 9 2 9 10
M  V30 10 1 10 11
M  V30 11 1 10 12
M  V30 12 1 12 13
M  V30 13 2 13 14
M  V30 14 1 13 15
M  V30 15 2 15 16
M  V30 16 1 16 17
M  V30 17 2 17 18
M  V30 18 1 18 19
M  V30 19 2 19 20
M  V30 20 1 20 21
M  V30 21 1 21 22
M  V30 22 2 22 23
M  V30 23 1 23 24
M  V30 24 2 24 25
M  V30 25 1 25 26
M  V30 26 2 26 27
M  V30 27 1 27 28
M  V30 28 2 28 29
M  V30 29 1 29 30
M  V30 30 1 20 31
M  V30 31 2 31 32
M  V30 32 1 32 33
M  V30 33 1 16 34
M  V30 34 1 34 35
M  V30 35 1 5 36
M  V30 36 1 36 37
M  V30 37 1 37 2
M  V30 38 1 35 6
M  V30 39 2 35 12
M  V30 40 1 32 17
M  V30 41 1 30 22
M  V30 42 1 29 24
M  V30 43 1 1 38
M  V30 44 1 1 39
M  V30 45 1 1 40
M  V30 46 1 3 41
M  V30 47 1 3 42
M  V30 48 1 4 43
M  V30 49 1 8 44
M  V30 50 1 9 45
M  V30 51 1 11 46
M  V30 52 1 15 47
M  V30 53 1 18 48
M  V30 54 1 19 49
M  V30 55 1 25 50
M  V30 56 1 26 51
M  V30 57 1 27 52
M  V30 58 1 28 53
M  V30 59 1 30 54
M  V30 60 1 31 55
M  V30 61 1 36 56
M  V30 62 1 36 57
M  V30 63 1 37 58
M  V30 64 1 37 59
M  V30 END BOND
M  V30 END CTAB
M  END
>  <Dataset>  (402) 
ChEMBL_Kinases

>  <Ligand_Instance>  (402) 
nan

>  <PDB_ID>  (402) 
nan

>  <Standardized_SMILES>  (402) 
CN1CC=C(c2c(O)cc(O)c3c(=O)cc(-c4ccc(Sc5nc6ccccc6[nH]5)cc4Cl)oc23)CC1

>  <Name>  (402) 
nan

>  <Pocket>  (402) 
nan

>  <ATP_Site>  (402) 
nan

>  <Peripheral>  (402) 
nan

>  <Num_H_Atoms_ProtBoundConf>  (402) 
nan

>  <Num_Resolved_Atoms>  (402) 
nan

>  <Num_Not_Resolved_Atoms>  (402) 
nan

$$$$
CHEMBL411
     RDKit          3D

  0  0  0  0  0  0  0  0  0  0999 V3000
M  V30 BEGIN CTAB
M  V30 COUNTS 40 41 0 0 0
M  V30 BEGIN ATOM
M  V30 1 C -1.988887 -1.693224 1.920908 0
M  V30 2 C -1.664906 -0.548705 0.977471 0
M  V30 3 C -0.237614 -0.178381 1.139600 0
M  V30 4 C 0.598986 -0.322938 0.134026 0
M  V30 5 C 2.026127 0.061472 0.305644 0
M  V30 6 C 2.940759 -1.130937 0.121668 0
M  V30 7 C 0.346441 -0.882274 -1.174750 0
M  V30 8 C -0.286597 -2.075896 -1.433935 0
M  V30 9 C -0.516634 -2.550521 -2.721041 0
M  V30 10 C -0.108177 -1.824797 -3.816816 0
M  V30 11 O -0.336487 -2.297877 -5.091440 0
M  V30 12 C 0.532404 -0.619033 -3.587053 0
M  V30 13 C 0.743107 -0.179360 -2.292047 0
M  V30 14 C 0.092231 0.286826 2.473116 0
M  V30 15 C 1.133422 -0.105652 3.246167 0
M  V30 16 C 1.415314 0.387310 4.503085 0
M  V30 17 C 0.588355 1.357823 5.042984 0
M  V30 18 O 0.848866 1.871093 6.305145 0
M  V30 19 C -0.485753 1.782325 4.281354 0
M  V30 20 C -0.738655 1.268164 3.027051 0
M  V30 21 H -1.247407 -1.779304 2.754318 0
M  V30 22 H -2.007254 -2.666583 1.408631 0
M  V30 23 H -3.021818 -1.591262 2.366530 0
M  V30 24 H -1.879315 -0.854127 -0.038225 0
M  V30 25 H -2.332246 0.287009 1.320882 0
M  V30 26 H 2.301691 0.750014 -0.561374 0
M  V30 27 H 2.235164 0.664998 1.187594 0
M  V30 28 H 3.197574 -1.254171 -0.959215 0
M  V30 29 H 3.889589 -1.019110 0.648060 0
M  V30 30 H 2.432420 -2.068128 0.456421 0
M  V30 31 H -0.616661 -2.697860 -0.640002 0
M  V30 32 H -1.026267 -3.509748 -2.876403 0
M  V30 33 H -0.640664 -1.650143 -5.787227 0
M  V30 34 H 0.830957 -0.094031 -4.482618 0
M  V30 35 H 1.249911 0.772518 -2.287047 0
M  V30 36 H 1.792894 -0.857143 2.890387 0
M  V30 37 H 2.265171 0.028652 5.067271 0
M  V30 38 H 0.575269 2.832765 6.532355 0
M  V30 39 H -1.093146 2.544995 4.767050 0
M  V30 40 H -1.604688 1.706794 2.577302 0
M  V30 END ATOM
M  V30 BEGIN BOND
M  V30 1 1 1 2
M  V30 2 1 2 3
M  V30 3 2 3 4
M  V30 4 1 4 5
M  V30 5 1 5 6
M  V30 6 1 4 7
M  V30 7 2 7 8
M  V30 8 1 8 9
M  V30 9 2 9 10
M  V30 10 1 10 11
M  V30 11 1 10 12
M  V30 12 2 12 13
M  V30 13 1 3 14
M  V30 14 2 14 15
M  V30 15 1 15 16
M  V30 16 2 16 17
M  V30 17 1 17 18
M  V30 18 1 17 19
M  V30 19 2 19 20
M  V30 20 1 13 7
M  V30 21 1 20 14
M  V30 22 1 1 21
M  V30 23 1 1 22
M  V30 24 1 1 23
M  V30 25 1 2 24
M  V30 26 1 2 25
M  V30 27 1 5 26
M  V30 28 1 5 27
M  V30 29 1 6 28
M  V30 30 1 6 29
M  V30 31 1 6 30
M  V30 32 1 8 31
M  V30 33 1 9 32
M  V30 34 1 11 33
M  V30 35 1 12 34
M  V30 36 1 13 35
M  V30 37 1 15 36
M  V30 38 1 16 37
M  V30 39 1 18 38
M  V30 40 1 19 39
M  V30 41 1 20 40
M  V30 END BOND
M  V30 END CTAB
M  END
>  <Dataset>  (403) 
ChEMBL_Kinases

>  <Ligand_Instance>  (403) 
nan

>  <PDB_ID>  (403) 
nan

>  <Standardized_SMILES>  (403) 
CC/C(=C(/CC)c1ccc(O)cc1)c1ccc(O)cc1

>  <Name>  (403) 
DIETHYLSTILBESTROL

>  <Pocket>  (403) 
nan

>  <ATP_Site>  (403) 
nan

>  <Peripheral>  (403) 
nan

>  <Num_H_Atoms_ProtBoundConf>  (403) 
nan

>  <Num_Resolved_Atoms>  (403) 
nan

>  <Num_Not_Resolved_Atoms>  (403) 
nan

$$$$
CHEMBL4793886
     RDKit          3D

  0  0  0  0  0  0  0  0  0  0999 V3000
M  V30 BEGIN CTAB
M  V30 COUNTS 39 41 0 0 0
M  V30 BEGIN ATOM
M  V30 1 O -1.181844 -1.501505 1.388760 0
M  V30 2 C -0.955793 -2.742680 1.529087 0
M  V30 3 N 0.410400 -2.997122 1.384608 0
M  V30 4 C 1.150051 -1.827836 1.127357 0
M  V30 5 C 1.723475 -1.000242 2.100474 0
M  V30 6 C 2.437488 0.138507 1.704052 0
M  V30 7 C 2.594244 0.473865 0.349052 0
M  V30 8 O 3.338734 1.636287 0.305212 0
M  V30 9 C 2.940684 2.843158 -0.238646 0
M  V30 10 C 3.104115 3.437656 -1.468644 0
M  V30 11 C 2.576307 4.675078 -1.711352 0
M  V30 12 C 1.868242 5.382155 -0.763840 0
M  V30 13 O 1.410363 6.618774 -1.192372 0
M  V30 14 C 1.691014 4.814145 0.468630 0
M  V30 15 C 2.222649 3.548594 0.738215 0
M  V30 16 C 2.021272 -0.355351 -0.591100 0
M  V30 17 Cl 2.302165 0.187615 -2.210483 0
M  V30 18 C 1.319090 -1.475195 -0.201005 0
M  V30 19 C -2.060704 -3.642850 1.797408 0
M  V30 20 C -3.328764 -3.101136 1.889716 0
M  V30 21 C -4.439369 -3.875714 2.141611 0
M  V30 22 Cl -6.007171 -3.103061 2.241649 0
M  V30 23 C -4.350096 -5.239584 2.316665 0
M  V30 24 C -3.092508 -5.798951 2.228148 0
M  V30 25 Cl -2.914940 -7.527758 2.441581 0
M  V30 26 C -2.003220 -4.992846 1.974735 0
M  V30 27 O -0.792684 -5.622985 1.902084 0
M  V30 28 H 0.716343 -3.989477 1.480391 0
M  V30 29 H 1.548226 -1.339759 3.089475 0
M  V30 30 H 2.796291 0.637449 2.593762 0
M  V30 31 H 3.669777 2.811426 -2.124842 0
M  V30 32 H 2.793805 5.008711 -2.738285 0
M  V30 33 H 0.444827 6.769971 -1.505803 0
M  V30 34 H 1.131900 5.407454 1.170488 0
M  V30 35 H 1.987473 3.250653 1.764806 0
M  V30 36 H 0.933156 -2.018188 -1.064047 0
M  V30 37 H -3.479723 -2.017476 1.761137 0
M  V30 38 H -5.257162 -5.793718 2.511647 0
M  V30 39 H -0.681151 -6.318868 1.155783 0
M  V30 END ATOM
M  V30 BEGIN BOND
M  V30 1 2 1 2
M  V30 2 1 2 3
M  V30 3 1 3 4
M  V30 4 2 4 5
M  V30 5 1 5 6
M  V30 6 2 6 7
M  V30 7 1 7 8
M  V30 8 1 8 9
M  V30 9 2 9 10
M  V30 10 1 10 11
M  V30 11 2 11 12
M  V30 12 1 12 13
M  V30 13 1 12 14
M  V30 14 2 14 15
M  V30 15 1 7 16
M  V30 16 1 16 17
M  V30 17 2 16 18
M  V30 18 1 2 19
M  V30 19 2 19 20
M  V30 20 1 20 21
M  V30 21 1 21 22
M  V30 22 2 21 23
M  V30 23 1 23 24
M  V30 24 1 24 25
M  V30 25 2 24 26
M  V30 26 1 26 27
M  V30 27 1 18 4
M  V30 28 1 26 19
M  V30 29 1 15 9
M  V30 30 1 3 28
M  V30 31 1 5 29
M  V30 32 1 6 30
M  V30 33 1 10 31
M  V30 34 1 11 32
M  V30 35 1 13 33
M  V30 36 1 14 34
M  V30 37 1 15 35
M  V30 38 1 18 36
M  V30 39 1 20 37
M  V30 40 1 23 38
M  V30 41 1 27 39
M  V30 END BOND
M  V30 END CTAB
M  END
>  <Dataset>  (404) 
ChEMBL_Kinases

>  <Ligand_Instance>  (404) 
nan

>  <PDB_ID>  (404) 
nan

>  <Standardized_SMILES>  (404) 
O=C(Nc1ccc(Oc2ccc(O)cc2)c(Cl)c1)c1cc(Cl)cc(Cl)c1O

>  <Name>  (404) 
nan

>  <Pocket>  (404) 
nan

>  <ATP_Site>  (404) 
nan

>  <Peripheral>  (404) 
nan

>  <Num_H_Atoms_ProtBoundConf>  (404) 
nan

>  <Num_Resolved_Atoms>  (404) 
nan

>  <Num_Not_Resolved_Atoms>  (404) 
nan

$$$$
CHEMBL4109262
     RDKit          3D

  0  0  0  0  0  0  0  0  0  0999 V3000
M  V30 BEGIN CTAB
M  V30 COUNTS 49 53 0 0 0
M  V30 BEGIN ATOM
M  V30 1 C 4.614964 1.960246 -5.670218 0
M  V30 2 C 4.150577 1.628164 -4.291383 0
M  V30 3 C 3.978545 2.465306 -3.220057 0
M  V30 4 N 3.543891 1.668698 -2.213092 0
M  V30 5 C 3.456133 0.416485 -2.646919 0
M  V30 6 C 3.045401 -0.864011 -2.003462 0 CFG=2
M  V30 7 C 4.242188 -1.556455 -1.374897 0
M  V30 8 O 2.484107 -1.739718 -2.930938 0
M  V30 9 C 2.053904 -0.497329 -0.974913 0
M  V30 10 C 1.242446 -0.206814 -0.110058 0
M  V30 11 C 0.298959 0.120816 0.924371 0
M  V30 12 C 0.202536 1.401417 1.453800 0
M  V30 13 C -0.706897 1.704887 2.446822 0
M  V30 14 C -1.537199 0.710403 2.921436 0
M  V30 15 C -1.441460 -0.586408 2.387164 0
M  V30 16 C -0.523213 -0.864283 1.394214 0
M  V30 17 C -2.252642 -1.773069 2.777816 0
M  V30 18 N -2.144808 -3.009042 2.252734 0
M  V30 19 C -3.051945 -3.828488 2.861939 0
M  V30 20 C -3.265073 -5.246754 2.588954 0
M  V30 21 N -2.467749 -5.879939 1.594013 0
M  V30 22 O -4.133012 -5.918720 3.209896 0
M  V30 23 C -3.718944 -3.043949 3.780760 0
M  V30 24 N -3.235352 -1.787341 3.734292 0
M  V30 25 C -3.675164 -0.639902 4.554066 0
M  V30 26 C -3.895235 0.588176 3.687238 0
M  V30 27 C -2.500778 1.132966 4.007942 0
M  V30 28 C -2.473995 0.101721 5.117609 0
M  V30 29 O 3.831026 0.432366 -3.907273 0
M  V30 30 H 5.574095 1.452160 -5.906808 0
M  V30 31 H 3.873031 1.552287 -6.388706 0
M  V30 32 H 4.727105 3.055928 -5.808476 0
M  V30 33 H 4.161868 3.527656 -3.220714 0
M  V30 34 H 4.302276 -1.175779 -0.323839 0
M  V30 35 H 4.125199 -2.649355 -1.304646 0
M  V30 36 H 5.172080 -1.356367 -1.941378 0
M  V30 37 H 1.530011 -1.474962 -3.086389 0
M  V30 38 H 0.856340 2.160288 1.071848 0
M  V30 39 H -0.810459 2.686112 2.881532 0
M  V30 40 H -0.487381 -1.874294 1.015992 0
M  V30 41 H -1.592713 -6.408049 1.504071 0
M  V30 42 H -2.587423 -5.983173 0.552257 0
M  V30 43 H -4.506415 -3.373364 4.439254 0
M  V30 44 H -4.467998 -0.908616 5.243032 0
M  V30 45 H -3.958494 0.361721 2.611634 0
M  V30 46 H -4.727362 1.232287 4.033293 0
M  V30 47 H -2.434977 2.177670 4.279731 0
M  V30 48 H -2.716309 0.529723 6.117068 0
M  V30 49 H -1.560786 -0.528754 5.124983 0
M  V30 END ATOM
M  V30 BEGIN BOND
M  V30 1 1 1 2
M  V30 2 2 2 3
M  V30 3 1 3 4
M  V30 4 2 4 5
M  V30 5 1 5 6
M  V30 6 1 6 7
M  V30 7 1 6 8
M  V30 8 1 6 9 CFG=1
M  V30 9 3 9 10
M  V30 10 1 10 11
M  V30 11 1 11 12
M  V30 12 2 12 13
M  V30 13 1 13 14
M  V30 14 2 14 15
M  V30 15 1 15 16
M  V30 16 1 15 17
M  V30 17 2 17 18
M  V30 18 1 18 19
M  V30 19 1 19 20
M  V30 20 1 20 21
M  V30 21 2 20 22
M  V30 22 2 19 23
M  V30 23 1 23 24
M  V30 24 1 24 25
M  V30 25 1 25 26
M  V30 26 1 26 27
M  V30 27 1 27 28
M  V30 28 1 5 29
M  V30 29 1 29 2
M  V30 30 2 16 11
M  V30 31 1 24 17
M  V30 32 1 28 25
M  V30 33 1 27 14
M  V30 34 1 1 30
M  V30 35 1 1 31
M  V30 36 1 1 32
M  V30 37 1 3 33
M  V30 38 1 7 34
M  V30 39 1 7 35
M  V30 40 1 7 36
M  V30 41 1 8 37
M  V30 42 1 12 38
M  V30 43 1 13 39
M  V30 44 1 16 40
M  V30 45 1 21 41
M  V30 46 1 21 42
M  V30 47 1 23 43
M  V30 48 1 25 44
M  V30 49 1 26 45
M  V30 50 1 26 46
M  V30 51 1 27 47
M  V30 52 1 28 48
M  V30 53 1 28 49
M  V30 END BOND
M  V30 END CTAB
M  END
>  <Dataset>  (405) 
ChEMBL_Kinases

>  <Ligand_Instance>  (405) 
nan

>  <PDB_ID>  (405) 
nan

>  <Standardized_SMILES>  (405) 
Cc1cnc([C@](C)(O)C#Cc2ccc3c(c2)-c2nc(C(N)=O)cn2C2CC3C2)o1

>  <Name>  (405) 
nan

>  <Pocket>  (405) 
nan

>  <ATP_Site>  (405) 
nan

>  <Peripheral>  (405) 
nan

>  <Num_H_Atoms_ProtBoundConf>  (405) 
nan

>  <Num_Resolved_Atoms>  (405) 
nan

>  <Num_Not_Resolved_Atoms>  (405) 
nan

$$$$
CHEMBL41092
     RDKit          3D

  0  0  0  0  0  0  0  0  0  0999 V3000
M  V30 BEGIN CTAB
M  V30 COUNTS 29 31 0 0 0
M  V30 BEGIN ATOM
M  V30 1 C -2.776541 -3.957903 1.965389 0
M  V30 2 C -1.650670 -2.999494 1.767206 0
M  V30 3 C -0.493666 -3.094696 2.512772 0
M  V30 4 C 0.598715 -2.241305 2.387723 0
M  V30 5 O 1.733923 -2.389896 3.167739 0
M  V30 6 C 0.465970 -1.247390 1.438306 0
M  V30 7 C -0.659148 -1.088235 0.654778 0
M  V30 8 C -1.699049 -1.976499 0.840497 0
M  V30 9 C -0.747335 -0.019920 -0.334526 0
M  V30 10 O -1.766362 0.134071 -1.052823 0
M  V30 11 C 0.381058 0.891231 -0.489727 0
M  V30 12 C 0.337471 1.929256 -1.426891 0
M  V30 13 C 1.372686 2.820824 -1.618177 0
M  V30 14 C 2.474828 2.623550 -0.814291 0
M  V30 15 C 2.619838 1.639828 0.133169 0
M  V30 16 O 3.765247 1.506753 0.905383 0
M  V30 17 C 1.539052 0.767981 0.281057 0
M  V30 18 C 1.584275 -0.314115 1.257892 0
M  V30 19 O 2.617383 -0.446424 1.965190 0
M  V30 20 H -3.252708 -4.248528 1.006405 0
M  V30 21 H -3.595288 -3.500623 2.589616 0
M  V30 22 H -2.411258 -4.808124 2.548572 0
M  V30 23 H -0.454568 -3.894561 3.238083 0
M  V30 24 H 2.412976 -3.107421 2.962997 0
M  V30 25 H -2.574830 -1.846705 0.225416 0
M  V30 26 H -0.564966 2.036038 -2.037011 0
M  V30 27 H 1.318145 3.616358 -2.348493 0
M  V30 28 H 3.311200 3.309959 -0.939039 0
M  V30 29 H 3.836518 1.853589 1.861483 0
M  V30 END ATOM
M  V30 BEGIN BOND
M  V30 1 1 1 2
M  V30 2 2 2 3
M  V30 3 1 3 4
M  V30 4 1 4 5
M  V30 5 2 4 6
M  V30 6 1 6 7
M  V30 7 2 7 8
M  V30 8 1 7 9
M  V30 9 2 9 10
M  V30 10 1 9 11
M  V30 11 2 11 12
M  V30 12 1 12 13
M  V30 13 2 13 14
M  V30 14 1 14 15
M  V30 15 1 15 16
M  V30 16 2 15 17
M  V30 17 1 17 18
M  V30 18 2 18 19
M  V30 19 1 8 2
M  V30 20 1 17 11
M  V30 21 1 18 6
M  V30 22 1 1 20
M  V30 23 1 1 21
M  V30 24 1 1 22
M  V30 25 1 3 23
M  V30 26 1 5 24
M  V30 27 1 8 25
M  V30 28 1 12 26
M  V30 29 1 13 27
M  V30 30 1 14 28
M  V30 31 1 16 29
M  V30 END BOND
M  V30 END CTAB
M  END
>  <Dataset>  (406) 
ChEMBL_Kinases

>  <Ligand_Instance>  (406) 
nan

>  <PDB_ID>  (406) 
nan

>  <Standardized_SMILES>  (406) 
Cc1cc(O)c2c(c1)C(=O)c1cccc(O)c1C2=O

>  <Name>  (406) 
CHRYSOPHANOL

>  <Pocket>  (406) 
nan

>  <ATP_Site>  (406) 
nan

>  <Peripheral>  (406) 
nan

>  <Num_H_Atoms_ProtBoundConf>  (406) 
nan

>  <Num_Resolved_Atoms>  (406) 
nan

>  <Num_Not_Resolved_Atoms>  (406) 
nan

$$$$
CHEMBL410828
     RDKit          3D

  0  0  0  0  0  0  0  0  0  0999 V3000
M  V30 BEGIN CTAB
M  V30 COUNTS 73 77 0 0 0
M  V30 BEGIN ATOM
M  V30 1 C 4.008646 0.510599 2.228848 0
M  V30 2 S 3.150655 -0.467755 1.025749 0
M  V30 3 O 1.962044 -1.074854 1.718339 0
M  V30 4 O 4.006127 -1.594836 0.536725 0
M  V30 5 N 2.665225 0.542982 -0.291410 0
M  V30 6 C 3.877095 1.083602 -0.881938 0
M  V30 7 C 3.591043 1.828131 -2.139066 0
M  V30 8 N 2.520918 1.417941 -2.937407 0
M  V30 9 S 2.694580 1.688537 -4.610688 0
M  V30 10 C 4.099405 0.775089 -5.219834 0
M  V30 11 O 2.974558 3.152379 -4.824000 0
M  V30 12 O 1.515066 1.223679 -5.399209 0
M  V30 13 C 1.672955 0.365168 -2.549627 0
M  V30 14 C 0.267885 0.919739 -2.475102 0
M  V30 15 N -0.700405 -0.058194 -2.086930 0
M  V30 16 C -0.944826 -1.104356 -3.039722 0
M  V30 17 C -1.414950 -2.291488 -2.184332 0
M  V30 18 C -2.638227 -1.817150 -1.474267 0
M  V30 19 C -2.602812 -1.964039 -0.001918 0
M  V30 20 C -3.454693 -2.809006 0.697435 0
M  V30 21 C -3.157720 -2.705057 2.060855 0
M  V30 22 C -3.757849 -3.377068 3.205949 0
M  V30 23 C -3.230550 -4.273025 4.099408 0
M  V30 24 C -3.998811 -4.783073 5.122949 0
M  V30 25 N -5.286931 -4.426948 5.286927 0
M  V30 26 C -5.819883 -3.550195 4.420344 0
M  V30 27 C -5.096452 -2.997320 3.363825 0
M  V30 28 C -2.128106 -1.797061 2.171627 0
M  V30 29 C -1.382223 -1.263796 3.304255 0
M  V30 30 C -1.595784 0.110571 3.470994 0
M  V30 31 C -1.007258 0.852371 4.463531 0
M  V30 32 C -0.156423 0.208951 5.348272 0
M  V30 33 F 0.499778 0.791817 6.377761 0
M  V30 34 C 0.063341 -1.147624 5.194973 0
M  V30 35 C -0.525216 -1.874873 4.207007 0
M  V30 36 N -1.830630 -1.384383 0.935237 0
M  V30 37 C -3.063907 -0.407297 -1.878198 0
M  V30 38 C -1.958199 0.589775 -1.820098 0
M  V30 39 C 2.103251 -0.322804 -1.310823 0
M  V30 40 H 4.820517 1.118779 1.772597 0
M  V30 41 H 4.398356 -0.178625 3.020054 0
M  V30 42 H 3.254436 1.169031 2.714212 0
M  V30 43 H 4.349641 1.718150 -0.133836 0
M  V30 44 H 4.569756 0.232904 -1.072623 0
M  V30 45 H 4.535455 1.785222 -2.757124 0
M  V30 46 H 3.496975 2.921965 -1.905586 0
M  V30 47 H 3.794532 -0.177982 -5.704718 0
M  V30 48 H 4.610830 1.351255 -6.041179 0
M  V30 49 H 4.821285 0.607205 -4.397514 0
M  V30 50 H 1.722016 -0.413990 -3.373189 0
M  V30 51 H 0.267164 1.697405 -1.683934 0
M  V30 52 H 0.072833 1.424040 -3.429858 0
M  V30 53 H -1.752939 -0.804076 -3.734086 0
M  V30 54 H -0.075412 -1.383554 -3.642009 0
M  V30 55 H -1.576942 -3.134124 -2.887414 0
M  V30 56 H -0.587174 -2.586029 -1.512918 0
M  V30 57 H -3.474693 -2.483573 -1.831942 0
M  V30 58 H -4.242723 -3.471400 0.335272 0
M  V30 59 H -2.207579 -4.502704 3.896755 0
M  V30 60 H -3.487859 -5.491547 5.785059 0
M  V30 61 H -6.872967 -3.286410 4.588743 0
M  V30 62 H -5.645541 -2.297655 2.732497 0
M  V30 63 H -2.243309 0.717813 2.835238 0
M  V30 64 H -1.155372 1.906534 4.610420 0
M  V30 65 H 0.707526 -1.784484 5.817283 0
M  V30 66 H -0.422474 -2.926346 3.997873 0
M  V30 67 H -1.102868 -0.694334 0.605840 0
M  V30 68 H -3.568127 -0.483261 -2.865176 0
M  V30 69 H -3.866176 -0.131301 -1.137968 0
M  V30 70 H -2.160848 1.425183 -2.536240 0
M  V30 71 H -1.907016 1.075534 -0.811041 0
M  V30 72 H 1.330710 -0.942405 -0.823318 0
M  V30 73 H 2.918005 -1.051978 -1.583482 0
M  V30 END ATOM
M  V30 BEGIN BOND
M  V30 1 1 1 2
M  V30 2 2 2 3
M  V30 3 2 2 4
M  V30 4 1 2 5
M  V30 5 1 5 6
M  V30 6 1 6 7
M  V30 7 1 7 8
M  V30 8 1 8 9
M  V30 9 1 9 10
M  V30 10 2 9 11
M  V30 11 2 9 12
M  V30 12 1 8 13
M  V30 13 1 13 14
M  V30 14 1 14 15
M  V30 15 1 15 16
M  V30 16 1 16 17
M  V30 17 1 17 18
M  V30 18 1 18 19
M  V30 19 2 19 20
M  V30 20 1 20 21
M  V30 21 1 21 22
M  V30 22 2 22 23
M  V30 23 1 23 24
M  V30 24 2 24 25
M  V30 25 1 25 26
M  V30 26 2 26 27
M  V30 27 2 21 28
M  V30 28 1 28 29
M  V30 29 2 29 30
M  V30 30 1 30 31
M  V30 31 2 31 32
M  V30 32 1 32 33
M  V30 33 1 32 34
M  V30 34 2 34 35
M  V30 35 1 28 36
M  V30 36 1 18 37
M  V30 37 1 37 38
M  V30 38 1 13 39
M  V30 39 1 39 5
M  V30 40 1 38 15
M  V30 41 1 36 19
M  V30 42 1 27 22
M  V30 43 1 35 29
M  V30 44 1 1 40
M  V30 45 1 1 41
M  V30 46 1 1 42
M  V30 47 1 6 43
M  V30 48 1 6 44
M  V30 49 1 7 45
M  V30 50 1 7 46
M  V30 51 1 10 47
M  V30 52 1 10 48
M  V30 53 1 10 49
M  V30 54 1 13 50
M  V30 55 1 14 51
M  V30 56 1 14 52
M  V30 57 1 16 53
M  V30 58 1 16 54
M  V30 59 1 17 55
M  V30 60 1 17 56
M  V30 61 1 18 57
M  V30 62 1 20 58
M  V30 63 1 23 59
M  V30 64 1 24 60
M  V30 65 1 26 61
M  V30 66 1 27 62
M  V30 67 1 30 63
M  V30 68 1 31 64
M  V30 69 1 34 65
M  V30 70 1 35 66
M  V30 71 1 36 67
M  V30 72 1 37 68
M  V30 73 1 37 69
M  V30 74 1 38 70
M  V30 75 1 38 71
M  V30 76 1 39 72
M  V30 77 1 39 73
M  V30 END BOND
M  V30 END CTAB
M  END
>  <Dataset>  (407) 
ChEMBL_Kinases

>  <Ligand_Instance>  (407) 
nan

>  <PDB_ID>  (407) 
nan

>  <Standardized_SMILES>  (407) 
CS(=O)(=O)N1CCN(S(C)(=O)=O)C(CN2CCC(c3cc(-c4ccncc4)c(-c4ccc(F)cc4)[nH]3)CC2)C1

>  <Name>  (407) 
nan

>  <Pocket>  (407) 
nan

>  <ATP_Site>  (407) 
nan

>  <Peripheral>  (407) 
nan

>  <Num_H_Atoms_ProtBoundConf>  (407) 
nan

>  <Num_Resolved_Atoms>  (407) 
nan

>  <Num_Not_Resolved_Atoms>  (407) 
nan

$$$$
CHEMBL4105353
     RDKit          3D

  0  0  0  0  0  0  0  0  0  0999 V3000
M  V30 BEGIN CTAB
M  V30 COUNTS 47 50 0 0 0
M  V30 BEGIN ATOM
M  V30 1 N 1.321166 -4.965235 3.929865 0
M  V30 2 C 0.426540 -4.212882 3.118877 0
M  V30 3 O -0.710887 -4.750923 3.178725 0
M  V30 4 C 0.857107 -3.029351 2.380996 0
M  V30 5 C 2.154479 -2.563029 2.420288 0
M  V30 6 C 2.450560 -1.436183 1.684427 0
M  V30 7 C 1.566779 -0.723781 0.906063 0
M  V30 8 N 1.912503 0.438643 0.166327 0
M  V30 9 C 3.203067 1.057177 0.127895 0 CFG=1
M  V30 10 C 3.151210 2.227214 -0.873386 0
M  V30 11 C 2.291845 3.347142 -0.414102 0
M  V30 12 C 1.634476 3.202057 0.903285 0
M  V30 13 N 2.314866 2.415555 1.867312 0
M  V30 14 C 3.525297 1.784851 1.434932 0
M  V30 15 C 0.289578 -1.242808 0.911000 0
M  V30 16 C -0.873112 -0.815591 0.258868 0
M  V30 17 C -1.910704 -1.668684 0.577762 0
M  V30 18 C -3.284002 -1.549103 0.088527 0
M  V30 19 C -3.657694 -0.529882 -0.764738 0
M  V30 20 C -4.936660 -0.367017 -1.257953 0
M  V30 21 C -5.896364 -1.284788 -0.869010 0
M  V30 22 Cl -7.508188 -1.076897 -1.492510 0
M  V30 23 C -5.533839 -2.316415 -0.009957 0
M  V30 24 C -4.239405 -2.461615 0.474894 0
M  V30 25 N -1.385907 -2.579740 1.396292 0
M  V30 26 C -0.078445 -2.364343 1.621803 0
M  V30 27 H 1.382480 -4.711951 4.945671 0
M  V30 28 H 1.873556 -5.738217 3.459090 0
M  V30 29 H 2.895163 -3.080368 3.014667 0
M  V30 30 H 3.482328 -1.124948 1.752492 0
M  V30 31 H 1.113959 0.860241 -0.398307 0
M  V30 32 H 4.041325 0.412983 -0.134275 0
M  V30 33 H 2.863372 1.815257 -1.862963 0
M  V30 34 H 4.200356 2.583854 -0.959452 0
M  V30 35 H 1.459944 3.455567 -1.171420 0
M  V30 36 H 2.820231 4.337012 -0.484011 0
M  V30 37 H 1.517394 4.223784 1.353152 0
M  V30 38 H 0.563910 2.847902 0.829057 0
M  V30 39 H 2.468398 2.846021 2.794349 0
M  V30 40 H 4.278927 2.595064 1.205957 0
M  V30 41 H 3.919907 1.152201 2.218404 0
M  V30 42 H -0.932716 0.039086 -0.382336 0
M  V30 43 H -2.896695 0.190000 -1.067412 0
M  V30 44 H -5.188959 0.446832 -1.925789 0
M  V30 45 H -6.354059 -2.986116 0.238772 0
M  V30 46 H -4.022951 -3.287232 1.140834 0
M  V30 47 H -1.980049 -3.355614 1.788636 0
M  V30 END ATOM
M  V30 BEGIN BOND
M  V30 1 1 1 2
M  V30 2 2 2 3
M  V30 3 1 2 4
M  V30 4 2 4 5
M  V30 5 1 5 6
M  V30 6 2 6 7
M  V30 7 1 7 8
M  V30 8 1 8 9
M  V30 9 1 9 10
M  V30 10 1 10 11
M  V30 11 1 11 12
M  V30 12 1 12 13
M  V30 13 1 13 14
M  V30 14 1 7 15
M  V30 15 1 15 16
M  V30 16 2 16 17
M  V30 17 1 17 18
M  V30 18 2 18 19
M  V30 19 1 19 20
M  V30 20 2 20 21
M  V30 21 1 21 22
M  V30 22 1 21 23
M  V30 23 2 23 24
M  V30 24 1 17 25
M  V30 25 1 25 26
M  V30 26 1 26 4
M  V30 27 1 14 9
M  V30 28 2 26 15
M  V30 29 1 24 18
M  V30 30 1 1 27
M  V30 31 1 1 28
M  V30 32 1 5 29
M  V30 33 1 6 30
M  V30 34 1 8 31
M  V30 35 1 9 32 CFG=3
M  V30 36 1 10 33
M  V30 37 1 10 34
M  V30 38 1 11 35
M  V30 39 1 11 36
M  V30 40 1 12 37
M  V30 41 1 12 38
M  V30 42 1 13 39
M  V30 43 1 14 40
M  V30 44 1 14 41
M  V30 45 1 16 42
M  V30 46 1 19 43
M  V30 47 1 20 44
M  V30 48 1 23 45
M  V30 49 1 24 46
M  V30 50 1 25 47
M  V30 END BOND
M  V30 END CTAB
M  END
>  <Dataset>  (408) 
ChEMBL_Kinases

>  <Ligand_Instance>  (408) 
nan

>  <PDB_ID>  (408) 
nan

>  <Standardized_SMILES>  (408) 
NC(=O)c1ccc(N[C@H]2CCCNC2)c2cc(-c3ccc(Cl)cc3)[nH]c12

>  <Name>  (408) 
nan

>  <Pocket>  (408) 
nan

>  <ATP_Site>  (408) 
nan

>  <Peripheral>  (408) 
nan

>  <Num_H_Atoms_ProtBoundConf>  (408) 
nan

>  <Num_Resolved_Atoms>  (408) 
nan

>  <Num_Not_Resolved_Atoms>  (408) 
nan

$$$$
CHEMBL4793909
     RDKit          3D

  0  0  0  0  0  0  0  0  0  0999 V3000
M  V30 BEGIN CTAB
M  V30 COUNTS 72 77 0 0 0
M  V30 BEGIN ATOM
M  V30 1 C 5.680887 -2.647774 0.471385 0
M  V30 2 N 5.284626 -2.140066 -0.800502 0
M  V30 3 C 5.431130 -3.252085 -1.752314 0
M  V30 4 C 3.893593 -1.784316 -0.819037 0 CFG=1
M  V30 5 C 3.476287 -0.739697 0.154570 0
M  V30 6 C 2.887916 0.489557 -0.484021 0
M  V30 7 C 1.734468 0.259822 -1.384024 0 CFG=1
M  V30 8 C 1.760469 1.336400 -2.442941 0
M  V30 9 C 1.963217 -1.109561 -2.019603 0 CFG=1
M  V30 10 C 1.105366 -1.125624 -3.251904 0
M  V30 11 C -0.302864 -1.183886 -2.756675 0
M  V30 12 C -0.677654 -0.166815 -1.721600 0 CFG=2
M  V30 13 C 0.421262 0.111207 -0.692493 0 CFG=2
M  V30 14 C -0.004009 1.245531 0.147754 0
M  V30 15 C -1.193474 0.810777 1.013082 0
M  V30 16 C -2.256352 0.301751 0.137309 0 CFG=2
M  V30 17 C -2.999237 1.400495 -0.593035 0
M  V30 18 C -3.295958 -0.564679 0.745541 0
M  V30 19 C -3.860242 -0.736985 2.076801 0
M  V30 20 C -4.853391 -1.655437 2.330345 0
M  V30 21 C -5.408955 -1.838903 3.600823 0
M  V30 22 C -4.980408 -1.096488 4.674211 0
M  V30 23 C -5.534744 -1.288851 5.909946 0
M  V30 24 C -5.061979 -0.508129 6.963037 0
M  V30 25 N -4.094228 0.398140 6.754793 0
M  V30 26 C -3.569431 0.563425 5.527408 0
M  V30 27 C -3.993685 -0.177826 4.443519 0
M  V30 28 C -3.482575 -0.032492 3.194534 0
M  V30 29 C -3.806462 -1.367220 -0.218894 0
M  V30 30 C -3.080133 -1.021093 -1.500438 0
M  V30 31 C -1.748778 -0.722879 -0.890165 0 CFG=1
M  V30 32 C 3.404080 -1.442065 -2.212326 0
M  V30 33 H 6.106959 -1.813139 1.066866 0
M  V30 34 H 6.519294 -3.386482 0.349907 0
M  V30 35 H 4.887225 -3.196011 1.008363 0
M  V30 36 H 5.441688 -2.920795 -2.792798 0
M  V30 37 H 6.300978 -3.902639 -1.475679 0
M  V30 38 H 4.522843 -3.904415 -1.593165 0
M  V30 39 H 3.328373 -2.719717 -0.538370 0
M  V30 40 H 2.769883 -1.090879 0.935102 0
M  V30 41 H 4.382155 -0.362075 0.713989 0
M  V30 42 H 2.717858 1.238901 0.312511 0
M  V30 43 H 3.727073 0.921434 -1.095570 0
M  V30 44 H 2.634741 1.181155 -3.105181 0
M  V30 45 H 1.951020 2.316195 -1.933202 0
M  V30 46 H 0.853154 1.430736 -3.034418 0
M  V30 47 H 1.541651 -1.923030 -1.367319 0
M  V30 48 H 1.299284 -2.076394 -3.787900 0
M  V30 49 H 1.313925 -0.320609 -3.972899 0
M  V30 50 H -0.506195 -2.235857 -2.437601 0
M  V30 51 H -0.963932 -1.015274 -3.631764 0
M  V30 52 H -0.900041 0.762754 -2.243762 0
M  V30 53 H 0.512213 -0.799222 -0.063187 0
M  V30 54 H 0.778764 1.716478 0.752258 0
M  V30 55 H -0.412906 2.050171 -0.525813 0
M  V30 56 H -0.863341 0.091911 1.755950 0
M  V30 57 H -1.565553 1.790683 1.445932 0
M  V30 58 H -2.935747 2.290998 0.099268 0
M  V30 59 H -4.068488 1.176604 -0.664229 0
M  V30 60 H -2.533103 1.733941 -1.519166 0
M  V30 61 H -5.273166 -2.290482 1.593465 0
M  V30 62 H -6.185078 -2.564597 3.771831 0
M  V30 63 H -6.300511 -1.996146 6.108463 0
M  V30 64 H -5.484848 -0.641344 7.951973 0
M  V30 65 H -2.785697 1.305643 5.386763 0
M  V30 66 H -2.715080 0.713604 3.127867 0
M  V30 67 H -4.562433 -2.141529 -0.271990 0
M  V30 68 H -2.961069 -1.930953 -2.120922 0
M  V30 69 H -3.553428 -0.216297 -2.055745 0
M  V30 70 H -1.392873 -1.621755 -0.383466 0
M  V30 71 H 3.461647 -2.312160 -2.873457 0
M  V30 72 H 3.956293 -0.571776 -2.627357 0
M  V30 END ATOM
M  V30 BEGIN BOND
M  V30 1 1 1 2
M  V30 2 1 2 3
M  V30 3 1 2 4
M  V30 4 1 4 5
M  V30 5 1 5 6
M  V30 6 1 6 7
M  V30 7 1 7 8 CFG=3
M  V30 8 1 7 9
M  V30 9 1 9 10
M  V30 10 1 10 11
M  V30 11 1 11 12
M  V30 12 1 12 13
M  V30 13 1 13 14
M  V30 14 1 14 15
M  V30 15 1 15 16
M  V30 16 1 16 17 CFG=3
M  V30 17 1 16 18
M  V30 18 1 18 19
M  V30 19 2 19 20
M  V30 20 1 20 21
M  V30 21 2 21 22
M  V30 22 1 22 23
M  V30 23 2 23 24
M  V30 24 1 24 25
M  V30 25 2 25 26
M  V30 26 1 26 27
M  V30 27 2 27 28
M  V30 28 2 18 29
M  V30 29 1 29 30
M  V30 30 1 30 31
M  V30 31 1 9 32
M  V30 32 1 32 4
M  V30 33 1 13 7
M  V30 34 1 31 16
M  V30 35 1 31 12
M  V30 36 1 28 19
M  V30 37 1 27 22
M  V30 38 1 1 33
M  V30 39 1 1 34
M  V30 40 1 1 35
M  V30 41 1 3 36
M  V30 42 1 3 37
M  V30 43 1 3 38
M  V30 44 1 4 39 CFG=1
M  V30 45 1 5 40
M  V30 46 1 5 41
M  V30 47 1 6 42
M  V30 48 1 6 43
M  V30 49 1 8 44
M  V30 50 1 8 45
M  V30 51 1 8 46
M  V30 52 1 9 47 CFG=1
M  V30 53 1 10 48
M  V30 54 1 10 49
M  V30 55 1 11 50
M  V30 56 1 11 51
M  V30 57 1 12 52 CFG=3
M  V30 58 1 13 53 CFG=1
M  V30 59 1 14 54
M  V30 60 1 14 55
M  V30 61 1 15 56
M  V30 62 1 15 57
M  V30 63 1 17 58
M  V30 64 1 17 59
M  V30 65 1 17 60
M  V30 66 1 20 61
M  V30 67 1 21 62
M  V30 68 1 23 63
M  V30 69 1 24 64
M  V30 70 1 26 65
M  V30 71 1 28 66
M  V30 72 1 29 67
M  V30 73 1 30 68
M  V30 74 1 30 69
M  V30 75 1 31 70 CFG=1
M  V30 76 1 32 71
M  V30 77 1 32 72
M  V30 END BOND
M  V30 END CTAB
M  END
>  <Dataset>  (409) 
ChEMBL_Kinases

>  <Ligand_Instance>  (409) 
nan

>  <PDB_ID>  (409) 
nan

>  <Standardized_SMILES>  (409) 
CN(C)[C@H]1CC[C@@]2(C)[C@@H](CC[C@@H]3[C@@H]2CC[C@]2(C)C(c4ccc5ccncc5c4)=CC[C@@H]32)C1

>  <Name>  (409) 
nan

>  <Pocket>  (409) 
nan

>  <ATP_Site>  (409) 
nan

>  <Peripheral>  (409) 
nan

>  <Num_H_Atoms_ProtBoundConf>  (409) 
nan

>  <Num_Resolved_Atoms>  (409) 
nan

>  <Num_Not_Resolved_Atoms>  (409) 
nan

$$$$
CHEMBL410668
     RDKit          3D

  0  0  0  0  0  0  0  0  0  0999 V3000
M  V30 BEGIN CTAB
M  V30 COUNTS 45 48 0 0 0
M  V30 BEGIN ATOM
M  V30 1 C 3.687248 -4.532451 4.245929 0
M  V30 2 N 3.389763 -3.327167 3.501125 0
M  V30 3 C 4.279086 -2.879899 2.484661 0
M  V30 4 O 5.320367 -3.511972 2.219893 0
M  V30 5 C 4.021444 -1.670958 1.707450 0
M  V30 6 C 4.938285 -1.312361 0.741115 0
M  V30 7 C 4.741073 -0.164157 -0.032172 0
M  V30 8 C 3.640183 0.647226 0.133688 0
M  V30 9 C 3.434565 1.866896 -0.690630 0
M  V30 10 C 2.729441 0.278585 1.103543 0
M  V30 11 N 1.561030 1.048284 1.352888 0
M  V30 12 C 0.409295 1.481445 0.644160 0
M  V30 13 N 0.247776 2.623404 -0.077708 0
M  V30 14 C -0.953421 2.829281 -0.675189 0
M  V30 15 N -1.993683 1.966046 -0.592978 0
M  V30 16 C -1.865727 0.826768 0.113969 0
M  V30 17 C -0.647688 0.588414 0.736858 0
M  V30 18 C -0.868978 -0.644233 1.358333 0
M  V30 19 N -2.122691 -1.057620 1.096459 0
M  V30 20 N -2.733391 -0.161889 0.337242 0
M  V30 21 C -4.075331 -0.326104 -0.103248 0
M  V30 22 C -5.160789 -0.383223 0.777911 0
M  V30 23 C -6.438673 -0.545493 0.262300 0
M  V30 24 C -6.611661 -0.647213 -1.110896 0
M  V30 25 C -5.524384 -0.589004 -1.977365 0
M  V30 26 C -4.231553 -0.425854 -1.472372 0
M  V30 27 C 2.921263 -0.854317 1.868570 0
M  V30 28 H 4.749089 -4.796694 4.212733 0
M  V30 29 H 3.354249 -4.461204 5.305198 0
M  V30 30 H 3.081715 -5.346317 3.806085 0
M  V30 31 H 2.517284 -2.799569 3.724562 0
M  V30 32 H 5.827322 -1.869699 0.528816 0
M  V30 33 H 5.468084 0.114056 -0.793512 0
M  V30 34 H 4.337172 1.982030 -1.349049 0
M  V30 35 H 3.364084 2.752962 -0.043957 0
M  V30 36 H 2.565165 1.724929 -1.366776 0
M  V30 37 H 1.445097 1.442902 2.310721 0
M  V30 38 H -1.043595 3.762461 -1.248429 0
M  V30 39 H -0.130471 -1.164325 1.952245 0
M  V30 40 H -4.961385 -0.297441 1.846421 0
M  V30 41 H -7.293184 -0.591612 0.937202 0
M  V30 42 H -7.627728 -0.772236 -1.455017 0
M  V30 43 H -5.705504 -0.673467 -3.055147 0
M  V30 44 H -3.409401 -0.383909 -2.161206 0
M  V30 45 H 2.197990 -1.118305 2.615720 0
M  V30 END ATOM
M  V30 BEGIN BOND
M  V30 1 1 1 2
M  V30 2 1 2 3
M  V30 3 2 3 4
M  V30 4 1 3 5
M  V30 5 2 5 6
M  V30 6 1 6 7
M  V30 7 2 7 8
M  V30 8 1 8 9
M  V30 9 1 8 10
M  V30 10 1 10 11
M  V30 11 1 11 12
M  V30 12 2 12 13
M  V30 13 1 13 14
M  V30 14 2 14 15
M  V30 15 1 15 16
M  V30 16 2 16 17
M  V30 17 1 17 18
M  V30 18 2 18 19
M  V30 19 1 19 20
M  V30 20 1 20 21
M  V30 21 2 21 22
M  V30 22 1 22 23
M  V30 23 2 23 24
M  V30 24 1 24 25
M  V30 25 2 25 26
M  V30 26 2 10 27
M  V30 27 1 27 5
M  V30 28 1 17 12
M  V30 29 1 26 21
M  V30 30 1 20 16
M  V30 31 1 1 28
M  V30 32 1 1 29
M  V30 33 1 1 30
M  V30 34 1 2 31
M  V30 35 1 6 32
M  V30 36 1 7 33
M  V30 37 1 9 34
M  V30 38 1 9 35
M  V30 39 1 9 36
M  V30 40 1 11 37
M  V30 41 1 14 38
M  V30 42 1 18 39
M  V30 43 1 22 40
M  V30 44 1 23 41
M  V30 45 1 24 42
M  V30 46 1 25 43
M  V30 47 1 26 44
M  V30 48 1 27 45
M  V30 END BOND
M  V30 END CTAB
M  END
>  <Dataset>  (410) 
ChEMBL_Kinases

>  <Ligand_Instance>  (410) 
nan

>  <PDB_ID>  (410) 
nan

>  <Standardized_SMILES>  (410) 
CNC(=O)c1ccc(C)c(Nc2ncnc3c2cnn3-c2ccccc2)c1

>  <Name>  (410) 
nan

>  <Pocket>  (410) 
nan

>  <ATP_Site>  (410) 
nan

>  <Peripheral>  (410) 
nan

>  <Num_H_Atoms_ProtBoundConf>  (410) 
nan

>  <Num_Resolved_Atoms>  (410) 
nan

>  <Num_Not_Resolved_Atoms>  (410) 
nan

$$$$
CHEMBL410667
     RDKit          3D

  0  0  0  0  0  0  0  0  0  0999 V3000
M  V30 BEGIN CTAB
M  V30 COUNTS 54 57 0 0 0
M  V30 BEGIN ATOM
M  V30 1 C 2.519340 -3.607056 2.361707 0
M  V30 2 C 3.431889 -2.926513 1.371667 0
M  V30 3 C 4.235233 -1.817671 1.970411 0
M  V30 4 C 3.419972 -0.708863 2.558794 0
M  V30 5 N 2.552427 -0.033756 1.656315 0
M  V30 6 C 3.098301 0.628488 0.521870 0
M  V30 7 O 4.338918 0.621994 0.310860 0
M  V30 8 C 2.272948 1.340496 -0.446020 0
M  V30 9 C 2.900322 1.950833 -1.511410 0
M  V30 10 C 2.165715 2.650224 -2.476012 0
M  V30 11 C 0.792127 2.744428 -2.381249 0
M  V30 12 C -0.047267 3.474351 -3.374921 0
M  V30 13 C 0.149352 2.130536 -1.307569 0
M  V30 14 N -1.282861 2.202979 -1.169254 0
M  V30 15 C -1.842629 1.544031 -0.041228 0
M  V30 16 N -2.062844 2.079130 1.188171 0
M  V30 17 C -2.605306 1.308616 2.152746 0
M  V30 18 N -2.950392 0.009040 1.966585 0
M  V30 19 C -2.737314 -0.547095 0.739113 0
M  V30 20 C -2.180428 0.213199 -0.281548 0
M  V30 21 C -2.102826 -0.636461 -1.368053 0
M  V30 22 N -2.595667 -1.829594 -0.978911 0
M  V30 23 N -2.985020 -1.800027 0.289121 0
M  V30 24 C -3.547994 -2.904357 0.989236 0
M  V30 25 C -3.240990 -4.185563 0.571844 0
M  V30 26 C -3.718491 -5.337397 1.161450 0
M  V30 27 C -4.569221 -5.186586 2.253654 0
M  V30 28 C -4.882388 -3.890012 2.679216 0
M  V30 29 C -4.390697 -2.751046 2.071190 0
M  V30 30 C 0.899861 1.444780 -0.367075 0
M  V30 31 H 2.100745 -2.951969 3.133310 0
M  V30 32 H 1.629155 -3.962517 1.770728 0
M  V30 33 H 2.985089 -4.455364 2.883968 0
M  V30 34 H 4.155081 -3.712362 1.057680 0
M  V30 35 H 2.887687 -2.631770 0.450435 0
M  V30 36 H 4.936426 -1.456444 1.203085 0
M  V30 37 H 4.829935 -2.250337 2.803378 0
M  V30 38 H 2.886162 -1.094552 3.450629 0
M  V30 39 H 4.151099 0.033702 2.967547 0
M  V30 40 H 1.524061 -0.027276 1.829590 0
M  V30 41 H 3.969552 1.945404 -1.691687 0
M  V30 42 H 2.575686 3.153202 -3.335237 0
M  V30 43 H 0.623295 3.802395 -4.188329 0
M  V30 44 H -0.530653 4.325671 -2.846203 0
M  V30 45 H -0.811490 2.744869 -3.719800 0
M  V30 46 H -1.812362 2.729244 -1.898465 0
M  V30 47 H -2.761531 1.781048 3.117008 0
M  V30 48 H -1.710314 -0.358407 -2.342113 0
M  V30 49 H -2.572474 -4.328872 -0.286923 0
M  V30 50 H -3.433783 -6.309420 0.778386 0
M  V30 51 H -4.972224 -6.058383 2.753198 0
M  V30 52 H -5.548517 -3.837239 3.533336 0
M  V30 53 H -4.650846 -1.762371 2.422912 0
M  V30 54 H 0.407106 0.977168 0.451563 0
M  V30 END ATOM
M  V30 BEGIN BOND
M  V30 1 1 1 2
M  V30 2 1 2 3
M  V30 3 1 3 4
M  V30 4 1 4 5
M  V30 5 1 5 6
M  V30 6 2 6 7
M  V30 7 1 6 8
M  V30 8 2 8 9
M  V30 9 1 9 10
M  V30 10 2 10 11
M  V30 11 1 11 12
M  V30 12 1 11 13
M  V30 13 1 13 14
M  V30 14 1 14 15
M  V30 15 2 15 16
M  V30 16 1 16 17
M  V30 17 2 17 18
M  V30 18 1 18 19
M  V30 19 2 19 20
M  V30 20 1 20 21
M  V30 21 2 21 22
M  V30 22 1 22 23
M  V30 23 1 23 24
M  V30 24 2 24 25
M  V30 25 1 25 26
M  V30 26 2 26 27
M  V30 27 1 27 28
M  V30 28 2 28 29
M  V30 29 2 13 30
M  V30 30 1 30 8
M  V30 31 1 20 15
M  V30 32 1 29 24
M  V30 33 1 23 19
M  V30 34 1 1 31
M  V30 35 1 1 32
M  V30 36 1 1 33
M  V30 37 1 2 34
M  V30 38 1 2 35
M  V30 39 1 3 36
M  V30 40 1 3 37
M  V30 41 1 4 38
M  V30 42 1 4 39
M  V30 43 1 5 40
M  V30 44 1 9 41
M  V30 45 1 10 42
M  V30 46 1 12 43
M  V30 47 1 12 44
M  V30 48 1 12 45
M  V30 49 1 14 46
M  V30 50 1 17 47
M  V30 51 1 21 48
M  V30 52 1 25 49
M  V30 53 1 26 50
M  V30 54 1 27 51
M  V30 55 1 28 52
M  V30 56 1 29 53
M  V30 57 1 30 54
M  V30 END BOND
M  V30 END CTAB
M  END
>  <Dataset>  (411) 
ChEMBL_Kinases

>  <Ligand_Instance>  (411) 
nan

>  <PDB_ID>  (411) 
nan

>  <Standardized_SMILES>  (411) 
CCCCNC(=O)c1ccc(C)c(Nc2ncnc3c2cnn3-c2ccccc2)c1

>  <Name>  (411) 
nan

>  <Pocket>  (411) 
nan

>  <ATP_Site>  (411) 
nan

>  <Peripheral>  (411) 
nan

>  <Num_H_Atoms_ProtBoundConf>  (411) 
nan

>  <Num_Resolved_Atoms>  (411) 
nan

>  <Num_Not_Resolved_Atoms>  (411) 
nan

$$$$
CHEMBL4105654
     RDKit          3D

  0  0  0  0  0  0  0  0  0  0999 V3000
M  V30 BEGIN CTAB
M  V30 COUNTS 37 39 0 0 0
M  V30 BEGIN ATOM
M  V30 1 C -3.673131 -3.879496 -3.758270 0
M  V30 2 C -2.605881 -3.413227 -2.780747 0
M  V30 3 O -2.197161 -2.089389 -3.057925 0
M  V30 4 C -1.261245 -1.380236 -2.373838 0
M  V30 5 C -0.482322 -1.708163 -1.273924 0
M  V30 6 C 0.433709 -0.853177 -0.695441 0
M  V30 7 C 1.139257 -1.424802 0.455943 0
M  V30 8 C 1.460452 -0.769831 1.545231 0
M  V30 9 O 1.192402 0.551483 1.788512 0
M  V30 10 C 1.650066 0.967883 3.024711 0
M  V30 11 C 1.578417 2.209545 3.640422 0
M  V30 12 C 2.137274 2.326320 4.909175 0
M  V30 13 C 2.728358 1.227398 5.493934 0
M  V30 14 N 3.326561 1.268225 6.806018 0
M  V30 15 C 2.816620 -0.024281 4.907346 0
M  V30 16 C 2.247916 -0.118785 3.630928 0
M  V30 17 C 2.157437 -1.276629 2.721392 0
M  V30 18 O 2.586973 -2.429900 2.926109 0
M  V30 19 C 0.579473 0.397013 -1.246348 0
M  V30 20 C -0.166720 0.780581 -2.340257 0
M  V30 21 C -1.079469 -0.097855 -2.900994 0
M  V30 22 O -1.724349 0.501210 -3.999575 0
M  V30 23 H -3.607013 -4.964962 -3.841664 0
M  V30 24 H -3.511050 -3.454349 -4.776609 0
M  V30 25 H -4.694188 -3.615226 -3.425946 0
M  V30 26 H -3.055620 -3.476500 -1.781410 0
M  V30 27 H -1.761499 -4.134686 -2.845739 0
M  V30 28 H -0.677877 -2.711943 -0.923284 0
M  V30 29 H 1.439487 -2.467914 0.446840 0
M  V30 30 H 1.113991 3.024852 3.152404 0
M  V30 31 H 2.121420 3.261113 5.452602 0
M  V30 32 H 4.080275 2.014406 6.795807 0
M  V30 33 H 3.080484 0.673101 7.650538 0
M  V30 34 H 3.275077 -0.882708 5.357501 0
M  V30 35 H 1.326773 1.000486 -0.719810 0
M  V30 36 H 0.051494 1.781780 -2.662150 0
M  V30 37 H -2.428746 1.232241 -3.858511 0
M  V30 END ATOM
M  V30 BEGIN BOND
M  V30 1 1 1 2
M  V30 2 1 2 3
M  V30 3 1 3 4
M  V30 4 2 4 5
M  V30 5 1 5 6
M  V30 6 1 6 7
M  V30 7 2 7 8
M  V30 8 1 8 9
M  V30 9 1 9 10
M  V30 10 2 10 11
M  V30 11 1 11 12
M  V30 12 2 12 13
M  V30 13 1 13 14
M  V30 14 1 13 15
M  V30 15 2 15 16
M  V30 16 1 16 17
M  V30 17 2 17 18
M  V30 18 2 6 19
M  V30 19 1 19 20
M  V30 20 2 20 21
M  V30 21 1 21 22
M  V30 22 1 21 4
M  V30 23 1 17 8
M  V30 24 1 16 10
M  V30 25 1 1 23
M  V30 26 1 1 24
M  V30 27 1 1 25
M  V30 28 1 2 26
M  V30 29 1 2 27
M  V30 30 1 5 28
M  V30 31 1 7 29
M  V30 32 1 11 30
M  V30 33 1 12 31
M  V30 34 1 14 32
M  V30 35 1 14 33
M  V30 36 1 15 34
M  V30 37 1 19 35
M  V30 38 1 20 36
M  V30 39 1 22 37
M  V30 END BOND
M  V30 END CTAB
M  END
>  <Dataset>  (412) 
ChEMBL_Kinases

>  <Ligand_Instance>  (412) 
nan

>  <PDB_ID>  (412) 
nan

>  <Standardized_SMILES>  (412) 
CCOc1cc(/C=C2\Oc3ccc(N)cc3C2=O)ccc1O

>  <Name>  (412) 
nan

>  <Pocket>  (412) 
nan

>  <ATP_Site>  (412) 
nan

>  <Peripheral>  (412) 
nan

>  <Num_H_Atoms_ProtBoundConf>  (412) 
nan

>  <Num_Resolved_Atoms>  (412) 
nan

>  <Num_Not_Resolved_Atoms>  (412) 
nan

$$$$
CHEMBL4105646
     RDKit          3D

  0  0  0  0  0  0  0  0  0  0999 V3000
M  V30 BEGIN CTAB
M  V30 COUNTS 49 53 0 0 0
M  V30 BEGIN ATOM
M  V30 1 C 1.535016 -6.975714 2.174247 0
M  V30 2 C 2.502408 -6.206133 2.997542 0
M  V30 3 N 3.211956 -6.688068 4.043579 0
M  V30 4 N 3.975405 -5.735577 4.547461 0
M  V30 5 C 3.770715 -4.599915 3.824553 0
M  V30 6 C 2.845225 -4.879173 2.843803 0
M  V30 7 C 2.390327 -3.961691 1.916050 0
M  V30 8 C 2.600098 -2.656763 1.613577 0
M  V30 9 C 1.937215 -2.064080 0.576147 0
M  V30 10 N 2.013449 -0.798085 0.131179 0
M  V30 11 C 1.290066 -0.361254 -0.912707 0
M  V30 12 C 1.489648 1.053024 -1.286563 0
M  V30 13 N 0.653026 1.990091 -0.613186 0
M  V30 14 C 0.747804 2.009241 0.811198 0
M  V30 15 C -0.628808 2.410970 1.295322 0
M  V30 16 C -1.529082 1.767951 0.263031 0
M  V30 17 C -2.822539 2.437307 0.106074 0
M  V30 18 C -4.030000 1.778718 0.251164 0
M  V30 19 C -5.274766 2.377329 0.110488 0
M  V30 20 C -5.294908 3.723875 -0.195512 0
M  V30 21 C -4.091335 4.405565 -0.345863 0
M  V30 22 C -2.875470 3.773937 -0.197795 0
M  V30 23 C -0.713154 2.001449 -0.998391 0
M  V30 24 N 0.430199 -1.120231 -1.613038 0
M  V30 25 C 0.294267 -2.401812 -1.232145 0
M  V30 26 O -0.457615 -3.261025 -1.761514 0
M  V30 27 C 1.019420 -2.865455 -0.174722 0
M  V30 28 S 1.130880 -4.480462 0.640172 0
M  V30 29 H 0.513986 -6.556062 2.201366 0
M  V30 30 H 1.449532 -8.001819 2.568444 0
M  V30 31 H 1.851392 -6.968136 1.099149 0
M  V30 32 H 4.607236 -5.866636 5.352964 0
M  V30 33 H 4.258102 -3.675970 4.012761 0
M  V30 34 H 3.311668 -2.156135 2.246737 0
M  V30 35 H 2.572616 1.326726 -1.123075 0
M  V30 36 H 1.318907 1.153477 -2.390327 0
M  V30 37 H 1.051298 1.050208 1.270576 0
M  V30 38 H 1.490578 2.788269 1.108275 0
M  V30 39 H -0.803209 1.886221 2.276459 0
M  V30 40 H -0.761926 3.495879 1.390073 0
M  V30 41 H -1.615471 0.704853 0.504979 0
M  V30 42 H -3.928681 0.713522 0.493556 0
M  V30 43 H -6.169658 1.758498 0.247715 0
M  V30 44 H -6.266445 4.212535 -0.310175 0
M  V30 45 H -4.217513 5.471895 -0.588603 0
M  V30 46 H -2.016102 4.402897 -0.337441 0
M  V30 47 H -1.035326 1.278573 -1.744087 0
M  V30 48 H -1.000748 3.005514 -1.422516 0
M  V30 49 H -0.136780 -0.805775 -2.425383 0
M  V30 END ATOM
M  V30 BEGIN BOND
M  V30 1 1 1 2
M  V30 2 2 2 3
M  V30 3 1 3 4
M  V30 4 1 4 5
M  V30 5 2 5 6
M  V30 6 1 6 7
M  V30 7 2 7 8
M  V30 8 1 8 9
M  V30 9 1 9 10
M  V30 10 2 10 11
M  V30 11 1 11 12
M  V30 12 1 12 13
M  V30 13 1 13 14
M  V30 14 1 14 15
M  V30 15 1 15 16
M  V30 16 1 16 17
M  V30 17 2 17 18
M  V30 18 1 18 19
M  V30 19 2 19 20
M  V30 20 1 20 21
M  V30 21 2 21 22
M  V30 22 1 16 23
M  V30 23 1 11 24
M  V30 24 1 24 25
M  V30 25 2 25 26
M  V30 26 1 25 27
M  V30 27 1 27 28
M  V30 28 1 6 2
M  V30 29 1 28 7
M  V30 30 2 27 9
M  V30 31 1 23 13
M  V30 32 1 22 17
M  V30 33 1 1 29
M  V30 34 1 1 30
M  V30 35 1 1 31
M  V30 36 1 4 32
M  V30 37 1 5 33
M  V30 38 1 8 34
M  V30 39 1 12 35
M  V30 40 1 12 36
M  V30 41 1 14 37
M  V30 42 1 14 38
M  V30 43 1 15 39
M  V30 44 1 15 40
M  V30 45 1 16 41
M  V30 46 1 18 42
M  V30 47 1 19 43
M  V30 48 1 20 44
M  V30 49 1 21 45
M  V30 50 1 22 46
M  V30 51 1 23 47
M  V30 52 1 23 48
M  V30 53 1 24 49
M  V30 END BOND
M  V30 END CTAB
M  END
>  <Dataset>  (413) 
ChEMBL_Kinases

>  <Ligand_Instance>  (413) 
nan

>  <PDB_ID>  (413) 
nan

>  <Standardized_SMILES>  (413) 
Cc1n[nH]cc1-c1cc2nc(CN3CCC(c4ccccc4)C3)[nH]c(=O)c2s1

>  <Name>  (413) 
nan

>  <Pocket>  (413) 
nan

>  <ATP_Site>  (413) 
nan

>  <Peripheral>  (413) 
nan

>  <Num_H_Atoms_ProtBoundConf>  (413) 
nan

>  <Num_Resolved_Atoms>  (413) 
nan

>  <Num_Not_Resolved_Atoms>  (413) 
nan

$$$$
CHEMBL4105643
     RDKit          3D

  0  0  0  0  0  0  0  0  0  0999 V3000
M  V30 BEGIN CTAB
M  V30 COUNTS 67 71 0 0 0
M  V30 BEGIN ATOM
M  V30 1 C 3.819155 -5.246288 4.138189 0
M  V30 2 N 4.612899 -6.293069 3.557169 0
M  V30 3 C 4.113631 -7.594493 3.904643 0
M  V30 4 C 4.836842 -6.141110 2.158185 0
M  V30 5 C 5.728374 -5.030091 1.735482 0
M  V30 6 N 5.315345 -3.708882 2.096258 0
M  V30 7 C 4.509543 -3.019301 1.255668 0
M  V30 8 C 4.234109 -1.784147 1.751544 0
M  V30 9 C 3.429973 -0.666956 1.244872 0
M  V30 10 C 2.290012 -0.844854 0.460380 0
M  V30 11 C 1.571577 0.254372 0.013992 0
M  V30 12 N 1.935643 1.512552 0.312659 0
M  V30 13 C 1.413615 2.714020 0.006310 0
M  V30 14 C 0.226636 3.012428 -0.792325 0
M  V30 15 C 0.412316 4.027074 -1.708519 0
M  V30 16 C -0.673173 4.358256 -2.494815 0
M  V30 17 C -1.846213 3.659007 -2.307352 0
M  V30 18 C -2.910746 4.104005 -3.191018 0
M  V30 19 N -4.172374 3.435785 -3.083174 0
M  V30 20 O -3.616781 4.656883 -4.025916 0
M  V30 21 C -2.064211 2.646664 -1.407387 0
M  V30 22 O -3.266352 1.991806 -1.276439 0
M  V30 23 C -3.495529 0.950008 -0.353003 0
M  V30 24 C -4.892924 0.455835 -0.461221 0
M  V30 25 C -5.217569 -0.581048 -1.338937 0
M  V30 26 C -6.530710 -1.040061 -1.433102 0
M  V30 27 C -7.492607 -0.447037 -0.642362 0
M  V30 28 C -8.930541 -0.829507 -0.633682 0
M  V30 29 F -9.398474 -1.039774 0.648034 0
M  V30 30 F -9.628117 0.201353 -1.258372 0
M  V30 31 F -9.129701 -1.960443 -1.414307 0
M  V30 32 C -7.155704 0.577869 0.221019 0
M  V30 33 C -5.868116 1.058410 0.341374 0
M  V30 34 C -0.967172 2.339755 -0.640175 0
M  V30 35 C 2.203338 3.696169 0.585063 0
M  V30 36 N 3.206763 3.046387 1.242293 0
M  V30 37 C 3.024402 1.704768 1.062822 0
M  V30 38 C 3.775319 0.642313 1.532408 0
M  V30 39 C 4.897918 -1.710890 2.948042 0
M  V30 40 N 5.516478 -2.875982 3.094448 0
M  V30 41 H 4.414120 -4.658484 4.894857 0
M  V30 42 H 2.947390 -5.703407 4.696874 0
M  V30 43 H 3.357611 -4.559805 3.425849 0
M  V30 44 H 4.673241 -8.032606 4.774696 0
M  V30 45 H 3.049364 -7.539002 4.152367 0
M  V30 46 H 4.206272 -8.309119 3.052736 0
M  V30 47 H 5.228302 -7.137712 1.791448 0
M  V30 48 H 3.867057 -6.003647 1.592803 0
M  V30 49 H 6.768902 -5.149787 2.146917 0
M  V30 50 H 5.889267 -5.123754 0.623143 0
M  V30 51 H 4.081693 -3.310942 0.295696 0
M  V30 52 H 1.985594 -1.871435 0.212338 0
M  V30 53 H 0.695362 0.075610 -0.591400 0
M  V30 54 H 1.347773 4.553092 -1.827661 0
M  V30 55 H -0.573153 5.147653 -3.226547 0
M  V30 56 H -4.821286 2.596819 -3.098938 0
M  V30 57 H -4.764130 2.576067 -3.111387 0
M  V30 58 H -3.322653 1.258636 0.695098 0
M  V30 59 H -2.753617 0.156898 -0.585078 0
M  V30 60 H -4.434438 -1.036233 -1.956848 0
M  V30 61 H -6.825713 -1.834980 -2.094327 0
M  V30 62 H -7.900268 1.065305 0.860331 0
M  V30 63 H -5.621505 1.865634 1.025398 0
M  V30 64 H -1.054938 1.546343 0.103612 0
M  V30 65 H 2.135528 4.767032 0.582974 0
M  V30 66 H 4.657671 0.848465 2.142550 0
M  V30 67 H 4.960442 -0.918643 3.678528 0
M  V30 END ATOM
M  V30 BEGIN BOND
M  V30 1 1 1 2
M  V30 2 1 2 3
M  V30 3 1 2 4
M  V30 4 1 4 5
M  V30 5 1 5 6
M  V30 6 1 6 7
M  V30 7 2 7 8
M  V30 8 1 8 9
M  V30 9 1 9 10
M  V30 10 2 10 11
M  V30 11 1 11 12
M  V30 12 1 12 13
M  V30 13 1 13 14
M  V30 14 2 14 15
M  V30 15 1 15 16
M  V30 16 2 16 17
M  V30 17 1 17 18
M  V30 18 1 18 19
M  V30 19 2 18 20
M  V30 20 1 17 21
M  V30 21 1 21 22
M  V30 22 1 22 23
M  V30 23 1 23 24
M  V30 24 2 24 25
M  V30 25 1 25 26
M  V30 26 2 26 27
M  V30 27 1 27 28
M  V30 28 1 28 29
M  V30 29 1 28 30
M  V30 30 1 28 31
M  V30 31 1 27 32
M  V30 32 2 32 33
M  V30 33 2 21 34
M  V30 34 2 13 35
M  V30 35 1 35 36
M  V30 36 2 36 37
M  V30 37 1 37 38
M  V30 38 1 8 39
M  V30 39 2 39 40
M  V30 40 1 40 6
M  V30 41 2 38 9
M  V30 42 1 37 12
M  V30 43 1 34 14
M  V30 44 1 33 24
M  V30 45 1 1 41
M  V30 46 1 1 42
M  V30 47 1 1 43
M  V30 48 1 3 44
M  V30 49 1 3 45
M  V30 50 1 3 46
M  V30 51 1 4 47
M  V30 52 1 4 48
M  V30 53 1 5 49
M  V30 54 1 5 50
M  V30 55 1 7 51
M  V30 56 1 10 52
M  V30 57 1 11 53
M  V30 58 1 15 54
M  V30 59 1 16 55
M  V30 60 1 19 56
M  V30 61 1 19 57
M  V30 62 1 23 58
M  V30 63 1 23 59
M  V30 64 1 25 60
M  V30 65 1 26 61
M  V30 66 1 32 62
M  V30 67 1 33 63
M  V30 68 1 34 64
M  V30 69 1 35 65
M  V30 70 1 38 66
M  V30 71 1 39 67
M  V30 END BOND
M  V30 END CTAB
M  END
>  <Dataset>  (414) 
ChEMBL_Kinases

>  <Ligand_Instance>  (414) 
nan

>  <PDB_ID>  (414) 
nan

>  <Standardized_SMILES>  (414) 
CN(C)CCn1cc(-c2ccn3c(-c4ccc(C(N)=O)c(OCc5ccc(C(F)(F)F)cc5)c4)cnc3c2)cn1

>  <Name>  (414) 
nan

>  <Pocket>  (414) 
nan

>  <ATP_Site>  (414) 
nan

>  <Peripheral>  (414) 
nan

>  <Num_H_Atoms_ProtBoundConf>  (414) 
nan

>  <Num_Resolved_Atoms>  (414) 
nan

>  <Num_Not_Resolved_Atoms>  (414) 
nan

$$$$
CHEMBL4793954
     RDKit          3D

  0  0  0  0  0  0  0  0  0  0999 V3000
M  V30 BEGIN CTAB
M  V30 COUNTS 52 54 0 0 0
M  V30 BEGIN ATOM
M  V30 1 C 1.379033 -4.420873 2.826508 0
M  V30 2 C 2.494216 -3.439227 3.069199 0
M  V30 3 C 2.584408 -3.151639 4.542547 0
M  V30 4 O 3.699414 -3.991931 2.668388 0
M  V30 5 C 2.234943 -2.240913 2.273021 0
M  V30 6 C 2.040782 -1.245792 1.618886 0
M  V30 7 C 1.816504 -0.029280 0.846974 0
M  V30 8 C 2.637819 1.069159 1.032616 0
M  V30 9 N 2.422607 2.193849 0.318971 0
M  V30 10 C 1.402244 2.267593 -0.588024 0
M  V30 11 N 1.239096 3.506156 -1.316208 0
M  V30 12 C 0.438475 4.207871 -0.375542 0
M  V30 13 C 1.234143 4.953954 0.505052 0
M  V30 14 N 0.642528 5.698449 1.488139 0
M  V30 15 C -0.715229 5.695634 1.587042 0
M  V30 16 C -1.268280 6.496655 2.640563 0
M  V30 17 N -1.737621 7.160895 3.493431 0
M  V30 18 C -1.499884 4.961665 0.720929 0
M  V30 19 N -0.901836 4.219593 -0.259675 0
M  V30 20 C 0.557498 1.174518 -0.796150 0
M  V30 21 C 0.759573 0.007641 -0.074911 0
M  V30 22 N -0.096203 -1.129826 -0.286598 0
M  V30 23 C -1.195134 -1.083099 -1.246966 0
M  V30 24 C -1.839868 -2.439975 -1.247863 0 CFG=2
M  V30 25 C -2.994884 -2.555252 -2.189164 0
M  V30 26 N -3.662077 -3.821441 -1.961397 0
M  V30 27 C -2.860711 -4.713133 -1.156180 0
M  V30 28 C -2.501625 -4.086650 0.178029 0
M  V30 29 O -2.305169 -2.706811 0.045427 0
M  V30 30 H 1.001478 -4.891397 3.763117 0
M  V30 31 H 0.506508 -3.935042 2.346623 0
M  V30 32 H 1.753229 -5.246922 2.189805 0
M  V30 33 H 3.650541 -2.983164 4.807058 0
M  V30 34 H 2.017642 -2.234828 4.831628 0
M  V30 35 H 2.212386 -4.065761 5.074527 0
M  V30 36 H 3.766624 -4.936278 2.901007 0
M  V30 37 H 3.426326 0.950531 1.763582 0
M  V30 38 H 1.590330 3.820650 -2.251929 0
M  V30 39 H 2.320882 5.005772 0.489025 0
M  V30 40 H -2.575605 4.969634 0.812419 0
M  V30 41 H -0.246401 1.250315 -1.519220 0
M  V30 42 H 0.119912 -1.983582 0.287998 0
M  V30 43 H -1.929090 -0.317225 -0.863029 0
M  V30 44 H -0.876364 -0.756718 -2.250411 0
M  V30 45 H -1.041877 -3.179341 -1.469819 0
M  V30 46 H -2.667757 -2.480480 -3.252758 0
M  V30 47 H -3.681401 -1.688239 -2.008756 0
M  V30 48 H -3.838742 -4.269175 -2.879974 0
M  V30 49 H -1.920096 -5.005775 -1.673712 0
M  V30 50 H -3.455243 -5.616209 -0.929165 0
M  V30 51 H -3.237691 -4.330148 0.960654 0
M  V30 52 H -1.536012 -4.530951 0.497976 0
M  V30 END ATOM
M  V30 BEGIN BOND
M  V30 1 1 1 2
M  V30 2 1 2 3
M  V30 3 1 2 4
M  V30 4 1 2 5
M  V30 5 3 5 6
M  V30 6 1 6 7
M  V30 7 2 7 8
M  V30 8 1 8 9
M  V30 9 2 9 10
M  V30 10 1 10 11
M  V30 11 1 11 12
M  V30 12 2 12 13
M  V30 13 1 13 14
M  V30 14 2 14 15
M  V30 15 1 15 16
M  V30 16 3 16 17
M  V30 17 1 15 18
M  V30 18 2 18 19
M  V30 19 1 10 20
M  V30 20 2 20 21
M  V30 21 1 21 22
M  V30 22 1 22 23
M  V30 23 1 23 24
M  V30 24 1 24 25
M  V30 25 1 25 26
M  V30 26 1 26 27
M  V30 27 1 27 28
M  V30 28 1 28 29
M  V30 29 1 21 7
M  V30 30 1 29 24
M  V30 31 1 19 12
M  V30 32 1 1 30
M  V30 33 1 1 31
M  V30 34 1 1 32
M  V30 35 1 3 33
M  V30 36 1 3 34
M  V30 37 1 3 35
M  V30 38 1 4 36
M  V30 39 1 8 37
M  V30 40 1 11 38
M  V30 41 1 13 39
M  V30 42 1 18 40
M  V30 43 1 20 41
M  V30 44 1 22 42
M  V30 45 1 23 43
M  V30 46 1 23 44
M  V30 47 1 24 45 CFG=3
M  V30 48 1 25 46
M  V30 49 1 25 47
M  V30 50 1 26 48
M  V30 51 1 27 49
M  V30 52 1 27 50
M  V30 53 1 28 51
M  V30 54 1 28 52
M  V30 END BOND
M  V30 END CTAB
M  END
>  <Dataset>  (415) 
ChEMBL_Kinases

>  <Ligand_Instance>  (415) 
nan

>  <PDB_ID>  (415) 
nan

>  <Standardized_SMILES>  (415) 
CC(C)(O)C#Cc1cnc(Nc2cnc(C#N)cn2)cc1NC[C@@H]1CNCCO1

>  <Name>  (415) 
nan

>  <Pocket>  (415) 
nan

>  <ATP_Site>  (415) 
nan

>  <Peripheral>  (415) 
nan

>  <Num_H_Atoms_ProtBoundConf>  (415) 
nan

>  <Num_Resolved_Atoms>  (415) 
nan

>  <Num_Not_Resolved_Atoms>  (415) 
nan

$$$$
CHEMBL4105537
     RDKit          3D

  0  0  0  0  0  0  0  0  0  0999 V3000
M  V30 BEGIN CTAB
M  V30 COUNTS 63 67 0 0 0
M  V30 BEGIN ATOM
M  V30 1 O 1.221917 2.728994 5.650116 0
M  V30 2 C 0.381123 1.827227 5.419812 0
M  V30 3 N 0.660179 0.770833 4.522504 0
M  V30 4 C 1.851198 0.554496 3.775182 0
M  V30 5 C 1.825613 1.165799 2.529274 0
M  V30 6 C 2.919687 1.036299 1.697007 0
M  V30 7 C 4.052896 0.305570 2.075897 0
M  V30 8 C 5.167166 0.218451 1.128164 0
M  V30 9 N 5.064469 -0.923397 0.242113 0
M  V30 10 C 3.825488 -0.829188 -0.489064 0
M  V30 11 N 3.354872 -0.401452 -1.466380 0
M  V30 12 C 2.108330 -0.482795 -1.884058 0
M  V30 13 C 1.561530 0.033682 -3.051590 0
M  V30 14 C 0.243427 -0.149529 -3.317271 0
M  V30 15 C -0.661944 -0.832027 -2.506092 0
M  V30 16 O -1.937773 -0.934996 -2.891427 0
M  V30 17 C -3.055491 -1.527775 -2.357317 0
M  V30 18 C -3.060629 -2.998949 -2.169055 0
M  V30 19 N -2.902255 -3.802176 -3.340085 0
M  V30 20 C -4.010758 -3.754616 -4.241911 0
M  V30 21 C -3.725773 -3.186655 -5.590815 0
M  V30 22 O -2.558697 -3.809104 -6.055237 0
M  V30 23 C -1.499467 -3.302110 -5.287412 0
M  V30 24 C -1.615702 -3.919125 -3.901598 0
M  V30 25 C -0.116865 -1.338395 -1.356895 0
M  V30 26 C 1.241076 -1.162995 -1.059711 0
M  V30 27 S 2.273183 -1.657060 0.289441 0
M  V30 28 C 4.047032 -0.287924 3.316539 0
M  V30 29 C 2.970609 -0.179997 4.176086 0
M  V30 30 C -0.894560 1.919362 6.119694 0
M  V30 31 C -1.097013 2.968637 6.976302 0
M  V30 32 C -2.286408 3.128187 7.681262 0
M  V30 33 C -3.282272 2.193902 7.501728 0
M  V30 34 C -3.133841 1.107634 6.645358 0
M  V30 35 Cl -4.410782 -0.073742 6.427684 0
M  V30 36 C -1.933705 1.021326 5.988043 0
M  V30 37 H -0.029821 0.013905 4.321598 0
M  V30 38 H 0.998914 1.753371 2.140224 0
M  V30 39 H 2.915554 1.512943 0.710582 0
M  V30 40 H 5.157140 1.125299 0.489737 0
M  V30 41 H 6.162546 0.209154 1.632121 0
M  V30 42 H 5.797701 -1.689873 0.164053 0
M  V30 43 H 2.149757 0.598080 -3.794378 0
M  V30 44 H -0.158777 0.272557 -4.251297 0
M  V30 45 H -4.000149 -1.161207 -2.865078 0
M  V30 46 H -3.177112 -1.089223 -1.315694 0
M  V30 47 H -2.392468 -3.296054 -1.370949 0
M  V30 48 H -4.108636 -3.247366 -1.796879 0
M  V30 49 H -4.358331 -4.813698 -4.405891 0
M  V30 50 H -4.849179 -3.267745 -3.704437 0
M  V30 51 H -4.530684 -3.508003 -6.290841 0
M  V30 52 H -3.603908 -2.094323 -5.626804 0
M  V30 53 H -0.527517 -3.636211 -5.717821 0
M  V30 54 H -1.624681 -2.213392 -5.291245 0
M  V30 55 H -1.435436 -5.023589 -4.085035 0
M  V30 56 H -0.829946 -3.627671 -3.209683 0
M  V30 57 H -0.699058 -1.881078 -0.633497 0
M  V30 58 H 4.899140 -0.857791 3.643525 0
M  V30 59 H 2.898939 -0.619374 5.161361 0
M  V30 60 H -0.384190 3.759250 7.192577 0
M  V30 61 H -2.477748 3.948682 8.366904 0
M  V30 62 H -4.233321 2.291202 8.043502 0
M  V30 63 H -1.800053 0.183199 5.317350 0
M  V30 END ATOM
M  V30 BEGIN BOND
M  V30 1 2 1 2
M  V30 2 1 2 3
M  V30 3 1 3 4
M  V30 4 2 4 5
M  V30 5 1 5 6
M  V30 6 2 6 7
M  V30 7 1 7 8
M  V30 8 1 8 9
M  V30 9 1 9 10
M  V30 10 2 10 11
M  V30 11 1 11 12
M  V30 12 2 12 13
M  V30 13 1 13 14
M  V30 14 2 14 15
M  V30 15 1 15 16
M  V30 16 1 16 17
M  V30 17 1 17 18
M  V30 18 1 18 19
M  V30 19 1 19 20
M  V30 20 1 20 21
M  V30 21 1 21 22
M  V30 22 1 22 23
M  V30 23 1 23 24
M  V30 24 1 15 25
M  V30 25 2 25 26
M  V30 26 1 26 27
M  V30 27 1 7 28
M  V30 28 2 28 29
M  V30 29 1 2 30
M  V30 30 2 30 31
M  V30 31 1 31 32
M  V30 32 2 32 33
M  V30 33 1 33 34
M  V30 34 1 34 35
M  V30 35 2 34 36
M  V30 36 1 29 4
M  V30 37 1 36 30
M  V30 38 1 27 10
M  V30 39 1 26 12
M  V30 40 1 24 19
M  V30 41 1 3 37
M  V30 42 1 5 38
M  V30 43 1 6 39
M  V30 44 1 8 40
M  V30 45 1 8 41
M  V30 46 1 9 42
M  V30 47 1 13 43
M  V30 48 1 14 44
M  V30 49 1 17 45
M  V30 50 1 17 46
M  V30 51 1 18 47
M  V30 52 1 18 48
M  V30 53 1 20 49
M  V30 54 1 20 50
M  V30 55 1 21 51
M  V30 56 1 21 52
M  V30 57 1 23 53
M  V30 58 1 23 54
M  V30 59 1 24 55
M  V30 60 1 24 56
M  V30 61 1 25 57
M  V30 62 1 28 58
M  V30 63 1 29 59
M  V30 64 1 31 60
M  V30 65 1 32 61
M  V30 66 1 33 62
M  V30 67 1 36 63
M  V30 END BOND
M  V30 END CTAB
M  END
>  <Dataset>  (416) 
ChEMBL_Kinases

>  <Ligand_Instance>  (416) 
nan

>  <PDB_ID>  (416) 
nan

>  <Standardized_SMILES>  (416) 
O=C(Nc1ccc(CNc2nc3ccc(OCCN4CCOCC4)cc3s2)cc1)c1cccc(Cl)c1

>  <Name>  (416) 
nan

>  <Pocket>  (416) 
nan

>  <ATP_Site>  (416) 
nan

>  <Peripheral>  (416) 
nan

>  <Num_H_Atoms_ProtBoundConf>  (416) 
nan

>  <Num_Resolved_Atoms>  (416) 
nan

>  <Num_Not_Resolved_Atoms>  (416) 
nan

$$$$
CHEMBL47940
     RDKit          3D

  0  0  0  0  0  0  0  0  0  0999 V3000
M  V30 BEGIN CTAB
M  V30 COUNTS 50 54 0 0 0
M  V30 BEGIN ATOM
M  V30 1 N 1.473372 -1.242671 3.097715 0
M  V30 2 C 1.315309 -2.397612 2.287191 0
M  V30 3 N 1.898537 -3.551547 2.676379 0
M  V30 4 C 1.740983 -4.643463 1.876956 0
M  V30 5 N 1.044601 -4.646754 0.728965 0
M  V30 6 C 0.445936 -3.521907 0.300147 0
M  V30 7 C 0.603223 -2.415009 1.107279 0
M  V30 8 C -0.049769 -1.330340 0.562960 0
M  V30 9 C -0.282426 0.064151 0.909883 0
M  V30 10 C 0.027102 0.982868 -0.100609 0
M  V30 11 C -0.122731 2.334274 0.003090 0
M  V30 12 C -0.614439 2.838931 1.186824 0
M  V30 13 O -0.797527 4.192543 1.378099 0
M  V30 14 C 0.267477 4.931519 1.907880 0
M  V30 15 C 1.285575 5.575505 1.236990 0
M  V30 16 C 2.242770 6.252505 1.955019 0
M  V30 17 C 2.210385 6.304810 3.348725 0
M  V30 18 C 1.183416 5.653957 4.001765 0
M  V30 19 C 0.212794 4.968464 3.292600 0
M  V30 20 C -0.934370 1.974694 2.212272 0
M  V30 21 C -0.771277 0.613454 2.075215 0
M  V30 22 C -0.603709 -1.852345 -0.613625 0
M  V30 23 N -0.289478 -3.151854 -0.735478 0
M  V30 24 C -0.671434 -4.027031 -1.801158 0
M  V30 25 C -2.138164 -4.407207 -1.793394 0
M  V30 26 C -2.162520 -5.638398 -2.671884 0
M  V30 27 C -0.725844 -6.079092 -2.867938 0
M  V30 28 C -0.012542 -5.363402 -1.712753 0
M  V30 29 H 2.064403 -0.590507 2.535735 0
M  V30 30 H 1.051400 -1.133051 4.062623 0
M  V30 31 H 2.246611 -5.535919 2.267898 0
M  V30 32 H 0.420990 0.649833 -1.064128 0
M  V30 33 H 0.126303 3.015411 -0.797450 0
M  V30 34 H 1.227538 5.480099 0.168644 0
M  V30 35 H 3.023836 6.743830 1.388857 0
M  V30 36 H 2.984274 6.849440 3.877953 0
M  V30 37 H 1.210021 5.728859 5.079142 0
M  V30 38 H -0.532710 4.503967 3.916984 0
M  V30 39 H -1.322449 2.335365 3.154549 0
M  V30 40 H -1.014257 -0.107448 2.841493 0
M  V30 41 H -1.214054 -1.328230 -1.366251 0
M  V30 42 H -0.482445 -3.570359 -2.793533 0
M  V30 43 H -2.766002 -3.584555 -2.175378 0
M  V30 44 H -2.369525 -4.681007 -0.732177 0
M  V30 45 H -2.660957 -5.398094 -3.627829 0
M  V30 46 H -2.657143 -6.449307 -2.101131 0
M  V30 47 H -0.582393 -7.159960 -2.860588 0
M  V30 48 H -0.363515 -5.579380 -3.796265 0
M  V30 49 H -0.332235 -5.872782 -0.775765 0
M  V30 50 H 1.068581 -5.376686 -1.883232 0
M  V30 END ATOM
M  V30 BEGIN BOND
M  V30 1 1 1 2
M  V30 2 2 2 3
M  V30 3 1 3 4
M  V30 4 2 4 5
M  V30 5 1 5 6
M  V30 6 2 6 7
M  V30 7 1 7 8
M  V30 8 1 8 9
M  V30 9 2 9 10
M  V30 10 1 10 11
M  V30 11 2 11 12
M  V30 12 1 12 13
M  V30 13 1 13 14
M  V30 14 2 14 15
M  V30 15 1 15 16
M  V30 16 2 16 17
M  V30 17 1 17 18
M  V30 18 2 18 19
M  V30 19 1 12 20
M  V30 20 2 20 21
M  V30 21 2 8 22
M  V30 22 1 22 23
M  V30 23 1 23 24
M  V30 24 1 24 25
M  V30 25 1 25 26
M  V30 26 1 26 27
M  V30 27 1 27 28
M  V30 28 1 7 2
M  V30 29 1 21 9
M  V30 30 1 28 24
M  V30 31 1 23 6
M  V30 32 1 19 14
M  V30 33 1 1 29
M  V30 34 1 1 30
M  V30 35 1 4 31
M  V30 36 1 10 32
M  V30 37 1 11 33
M  V30 38 1 15 34
M  V30 39 1 16 35
M  V30 40 1 17 36
M  V30 41 1 18 37
M  V30 42 1 19 38
M  V30 43 1 20 39
M  V30 44 1 21 40
M  V30 45 1 22 41
M  V30 46 1 24 42
M  V30 47 1 25 43
M  V30 48 1 25 44
M  V30 49 1 26 45
M  V30 50 1 26 46
M  V30 51 1 27 47
M  V30 52 1 27 48
M  V30 53 1 28 49
M  V30 54 1 28 50
M  V30 END BOND
M  V30 END CTAB
M  END
>  <Dataset>  (417) 
ChEMBL_Kinases

>  <Ligand_Instance>  (417) 
nan

>  <PDB_ID>  (417) 
nan

>  <Standardized_SMILES>  (417) 
Nc1ncnc2c1c(-c1ccc(Oc3ccccc3)cc1)cn2C1CCCC1

>  <Name>  (417) 
nan

>  <Pocket>  (417) 
nan

>  <ATP_Site>  (417) 
nan

>  <Peripheral>  (417) 
nan

>  <Num_H_Atoms_ProtBoundConf>  (417) 
nan

>  <Num_Resolved_Atoms>  (417) 
nan

>  <Num_Not_Resolved_Atoms>  (417) 
nan

$$$$
CHEMBL4105386
     RDKit          3D

  0  0  0  0  0  0  0  0  0  0999 V3000
M  V30 BEGIN CTAB
M  V30 COUNTS 36 38 0 0 0
M  V30 BEGIN ATOM
M  V30 1 C 1.130369 -2.172193 2.569735 0
M  V30 2 C 1.875703 -3.296624 1.931952 0
M  V30 3 C 2.221798 -4.361205 2.968181 0
M  V30 4 N 3.097323 -2.920282 1.273345 0
M  V30 5 C 4.208018 -3.703661 1.154508 0
M  V30 6 N 5.152432 -3.030858 0.482515 0
M  V30 7 N 4.700677 -1.833108 0.155965 0
M  V30 8 C 3.429722 -1.771876 0.648094 0
M  V30 9 C 2.576497 -0.618913 0.504319 0
M  V30 10 N 1.345406 -0.375070 -0.001067 0
M  V30 11 C 0.950212 0.865403 0.080588 0
M  V30 12 C -0.383257 1.014309 -0.490990 0
M  V30 13 O -1.091586 0.118214 -0.999124 0
M  V30 14 N -1.069224 2.255883 -0.540719 0
M  V30 15 C -2.363521 2.209902 -1.135459 0
M  V30 16 C -3.383823 1.950979 -0.215086 0
M  V30 17 C -4.702234 1.880906 -0.676001 0
M  V30 18 C -4.923807 2.073248 -2.026936 0
M  V30 19 C -3.882448 2.330696 -2.923768 0
M  V30 20 N -2.621792 2.392652 -2.451554 0
M  V30 21 C 1.696477 1.922423 0.639782 0
M  V30 22 S 3.265800 0.983221 1.152155 0
M  V30 23 H 0.195174 -1.928945 2.024390 0
M  V30 24 H 1.746306 -1.263202 2.758803 0
M  V30 25 H 0.796538 -2.502247 3.574994 0
M  V30 26 H 1.162297 -3.809065 1.232853 0
M  V30 27 H 1.271242 -4.718182 3.452314 0
M  V30 28 H 2.660293 -5.244942 2.455707 0
M  V30 29 H 2.944110 -3.996219 3.729562 0
M  V30 30 H 4.383485 -4.701879 1.508635 0
M  V30 31 H -0.625704 3.132913 -0.156305 0
M  V30 32 H -3.213326 1.800598 0.839222 0
M  V30 33 H -5.525666 1.680923 0.010711 0
M  V30 34 H -5.956870 2.020970 -2.404467 0
M  V30 35 H -4.078231 2.479667 -3.986594 0
M  V30 36 H 1.225278 3.008693 0.654725 0
M  V30 END ATOM
M  V30 BEGIN BOND
M  V30 1 1 1 2
M  V30 2 1 2 3
M  V30 3 1 2 4
M  V30 4 1 4 5
M  V30 5 2 5 6
M  V30 6 1 6 7
M  V30 7 2 7 8
M  V30 8 1 8 9
M  V30 9 2 9 10
M  V30 10 1 10 11
M  V30 11 1 11 12
M  V30 12 2 12 13
M  V30 13 1 12 14
M  V30 14 1 14 15
M  V30 15 2 15 16
M  V30 16 1 16 17
M  V30 17 2 17 18
M  V30 18 1 18 19
M  V30 19 2 19 20
M  V30 20 2 11 21
M  V30 21 1 21 22
M  V30 22 1 8 4
M  V30 23 1 22 9
M  V30 24 1 20 15
M  V30 25 1 1 23
M  V30 26 1 1 24
M  V30 27 1 1 25
M  V30 28 1 2 26
M  V30 29 1 3 27
M  V30 30 1 3 28
M  V30 31 1 3 29
M  V30 32 1 5 30
M  V30 33 1 14 31
M  V30 34 1 16 32
M  V30 35 1 17 33
M  V30 36 1 18 34
M  V30 37 1 19 35
M  V30 38 1 21 36
M  V30 END BOND
M  V30 END CTAB
M  END
>  <Dataset>  (418) 
ChEMBL_Kinases

>  <Ligand_Instance>  (418) 
nan

>  <PDB_ID>  (418) 
nan

>  <Standardized_SMILES>  (418) 
CC(C)n1cnnc1-c1nc(C(=O)Nc2ccccn2)cs1

>  <Name>  (418) 
nan

>  <Pocket>  (418) 
nan

>  <ATP_Site>  (418) 
nan

>  <Peripheral>  (418) 
nan

>  <Num_H_Atoms_ProtBoundConf>  (418) 
nan

>  <Num_Resolved_Atoms>  (418) 
nan

>  <Num_Not_Resolved_Atoms>  (418) 
nan

$$$$
CHEMBL4794004
     RDKit          3D

  0  0  0  0  0  0  0  0  0  0999 V3000
M  V30 BEGIN CTAB
M  V30 COUNTS 51 55 0 0 0
M  V30 BEGIN ATOM
M  V30 1 C 6.083691 -2.502166 6.758275 0
M  V30 2 C 5.616363 -1.293106 6.038964 0
M  V30 3 C 6.112125 -0.065087 6.436121 0
M  V30 4 C 5.685062 1.084862 5.772209 0
M  V30 5 C 4.776705 0.917507 4.740968 0
M  V30 6 N 4.280240 -0.279340 4.338450 0
M  V30 7 C 3.360362 -0.285092 3.270285 0
M  V30 8 C 3.475267 0.335725 2.043131 0
M  V30 9 C 2.470744 0.227242 1.100959 0
M  V30 10 C 1.310812 -0.506590 1.348300 0
M  V30 11 C 0.304575 -0.563424 0.290937 0
M  V30 12 C -1.033802 -0.385603 0.581675 0
M  V30 13 C -1.963209 -0.447003 -0.454661 0
M  V30 14 C -1.617178 -0.678983 -1.775572 0
M  V30 15 C -2.288346 -0.789306 -2.965932 0
M  V30 16 C -3.735751 -0.664375 -3.102875 0
M  V30 17 O -4.412927 -0.441305 -2.064178 0
M  V30 18 N -4.424521 -0.777638 -4.325041 0
M  V30 19 C -5.841016 -0.605688 -4.126221 0
M  V30 20 C -6.367536 0.686542 -4.216221 0
M  V30 21 C -7.746105 0.803036 -4.015963 0
M  V30 22 N -8.536178 -0.257085 -3.750834 0
M  V30 23 C -8.018189 -1.488932 -3.667557 0
M  V30 24 C -6.648497 -1.691835 -3.854894 0
M  V30 25 N -1.375811 -1.023836 -3.922897 0
M  V30 26 N -0.151843 -1.067892 -3.394662 0
M  V30 27 C -0.263013 -0.858889 -2.069642 0
M  V30 28 C 0.644886 -0.794473 -1.027568 0
M  V30 29 C 1.210475 -1.121814 2.580293 0
M  V30 30 Cl -0.240570 -2.046702 2.904692 0
M  V30 31 C 2.206592 -1.021076 3.529583 0
M  V30 32 C 4.702174 -1.395894 4.991534 0
M  V30 33 O 4.247574 -2.490391 4.622750 0
M  V30 34 H 7.036110 -2.830844 6.286434 0
M  V30 35 H 6.287389 -2.237010 7.811288 0
M  V30 36 H 5.341596 -3.323138 6.681297 0
M  V30 37 H 6.827514 0.068799 7.247987 0
M  V30 38 H 6.052292 2.049474 6.058386 0
M  V30 39 H 4.471776 1.837159 4.252550 0
M  V30 40 H 4.392854 0.891093 1.902633 0
M  V30 41 H 2.672201 0.757588 0.174005 0
M  V30 42 H -1.391708 -0.201605 1.573221 0
M  V30 43 H -3.005934 -0.304649 -0.202566 0
M  V30 44 H -3.827910 -0.964499 -5.175243 0
M  V30 45 H -5.767610 1.560392 -4.426725 0
M  V30 46 H -8.191614 1.804877 -4.079892 0
M  V30 47 H -8.671041 -2.323053 -3.454074 0
M  V30 48 H -6.234347 -2.697720 -3.785511 0
M  V30 49 H 0.716296 -1.236549 -3.940336 0
M  V30 50 H 1.696641 -0.938404 -1.284137 0
M  V30 51 H 2.020042 -1.550007 4.470938 0
M  V30 END ATOM
M  V30 BEGIN BOND
M  V30 1 1 1 2
M  V30 2 2 2 3
M  V30 3 1 3 4
M  V30 4 2 4 5
M  V30 5 1 5 6
M  V30 6 1 6 7
M  V30 7 2 7 8
M  V30 8 1 8 9
M  V30 9 2 9 10
M  V30 10 1 10 11
M  V30 11 2 11 12
M  V30 12 1 12 13
M  V30 13 2 13 14
M  V30 14 1 14 15
M  V30 15 1 15 16
M  V30 16 2 16 17
M  V30 17 1 16 18
M  V30 18 1 18 19
M  V30 19 2 19 20
M  V30 20 1 20 21
M  V30 21 2 21 22
M  V30 22 1 22 23
M  V30 23 2 23 24
M  V30 24 2 15 25
M  V30 25 1 25 26
M  V30 26 1 26 27
M  V30 27 2 27 28
M  V30 28 1 10 29
M  V30 29 1 29 30
M  V30 30 2 29 31
M  V30 31 1 6 32
M  V30 32 2 32 33
M  V30 33 1 32 2
M  V30 34 1 31 7
M  V30 35 1 28 11
M  V30 36 1 27 14
M  V30 37 1 24 19
M  V30 38 1 1 34
M  V30 39 1 1 35
M  V30 40 1 1 36
M  V30 41 1 3 37
M  V30 42 1 4 38
M  V30 43 1 5 39
M  V30 44 1 8 40
M  V30 45 1 9 41
M  V30 46 1 12 42
M  V30 47 1 13 43
M  V30 48 1 18 44
M  V30 49 1 20 45
M  V30 50 1 21 46
M  V30 51 1 23 47
M  V30 52 1 24 48
M  V30 53 1 26 49
M  V30 54 1 28 50
M  V30 55 1 31 51
M  V30 END BOND
M  V30 END CTAB
M  END
>  <Dataset>  (419) 
ChEMBL_Kinases

>  <Ligand_Instance>  (419) 
nan

>  <PDB_ID>  (419) 
nan

>  <Standardized_SMILES>  (419) 
Cc1cccn(-c2ccc(-c3ccc4c(C(=O)Nc5ccncc5)n[nH]c4c3)c(Cl)c2)c1=O

>  <Name>  (419) 
nan

>  <Pocket>  (419) 
nan

>  <ATP_Site>  (419) 
nan

>  <Peripheral>  (419) 
nan

>  <Num_H_Atoms_ProtBoundConf>  (419) 
nan

>  <Num_Resolved_Atoms>  (419) 
nan

>  <Num_Not_Resolved_Atoms>  (419) 
nan

$$$$
CHEMBL4794035
     RDKit          3D

  0  0  0  0  0  0  0  0  0  0999 V3000
M  V30 BEGIN CTAB
M  V30 COUNTS 33 35 0 0 0
M  V30 BEGIN ATOM
M  V30 1 N 3.600227 -6.506853 -0.962116 0
M  V30 2 C 3.043723 -5.760134 -0.283254 0
M  V30 3 C 2.362328 -4.830713 0.578926 0
M  V30 4 C 2.305407 -5.134446 1.922943 0
M  V30 5 C 1.667315 -4.287970 2.810098 0
M  V30 6 C 1.094122 -3.133770 2.293557 0
M  V30 7 C 1.128840 -2.793092 0.955438 0
M  V30 8 C 1.775586 -3.663837 0.098895 0
M  V30 9 N 0.518134 -1.591954 0.500578 0
M  V30 10 C -0.135773 -0.725462 1.413012 0
M  V30 11 C -0.677791 0.368316 0.917249 0
M  V30 12 C -0.679425 0.788735 -0.474269 0
M  V30 13 O -0.268871 0.410681 -1.594611 0
M  V30 14 C -1.330460 2.036098 -0.859296 0
M  V30 15 C -1.004230 3.076015 0.019596 0
M  V30 16 C -1.498683 4.354624 -0.131824 0
M  V30 17 C -2.342436 4.613203 -1.185648 0
M  V30 18 C -2.681158 3.608618 -2.067225 0
M  V30 19 C -2.178453 2.321501 -1.908080 0
M  V30 20 Cl -2.502272 0.937880 -2.926211 0
M  V30 21 C -0.175040 -1.080565 2.825670 0
M  V30 22 O -0.775863 -0.250301 3.550257 0
M  V30 23 N 0.448531 -2.293485 3.245050 0
M  V30 24 H 2.758381 -6.045582 2.327887 0
M  V30 25 H 1.620726 -4.523432 3.866344 0
M  V30 26 H 1.823711 -3.433027 -0.950768 0
M  V30 27 H 0.584490 -1.404821 -0.509528 0
M  V30 28 H -1.168884 1.011837 1.626148 0
M  V30 29 H -0.344874 2.985689 0.889328 0
M  V30 30 H -1.263031 5.173396 0.531018 0
M  V30 31 H -2.802943 5.573082 -1.422097 0
M  V30 32 H -3.333846 3.687784 -2.932424 0
M  V30 33 H 0.373488 -2.470085 4.270464 0
M  V30 END ATOM
M  V30 BEGIN BOND
M  V30 1 3 1 2
M  V30 2 1 2 3
M  V30 3 2 3 4
M  V30 4 1 4 5
M  V30 5 2 5 6
M  V30 6 1 6 7
M  V30 7 2 7 8
M  V30 8 1 7 9
M  V30 9 1 9 10
M  V30 10 2 10 11
M  V30 11 1 11 12
M  V30 12 2 12 13
M  V30 13 1 12 14
M  V30 14 2 14 15
M  V30 15 1 15 16
M  V30 16 2 16 17
M  V30 17 1 17 18
M  V30 18 2 18 19
M  V30 19 1 19 20
M  V30 20 1 10 21
M  V30 21 2 21 22
M  V30 22 1 21 23
M  V30 23 1 8 3
M  V30 24 1 19 14
M  V30 25 1 23 6
M  V30 26 1 4 24
M  V30 27 1 5 25
M  V30 28 1 8 26
M  V30 29 1 9 27
M  V30 30 1 11 28
M  V30 31 1 15 29
M  V30 32 1 16 30
M  V30 33 1 17 31
M  V30 34 1 18 32
M  V30 35 1 23 33
M  V30 END BOND
M  V30 END CTAB
M  END
>  <Dataset>  (420) 
ChEMBL_Kinases

>  <Ligand_Instance>  (420) 
nan

>  <PDB_ID>  (420) 
nan

>  <Standardized_SMILES>  (420) 
N#Cc1ccc2c(c1)N/C(=C\C(=O)c1ccccc1Cl)C(=O)N2

>  <Name>  (420) 
nan

>  <Pocket>  (420) 
nan

>  <ATP_Site>  (420) 
nan

>  <Peripheral>  (420) 
nan

>  <Num_H_Atoms_ProtBoundConf>  (420) 
nan

>  <Num_Resolved_Atoms>  (420) 
nan

>  <Num_Not_Resolved_Atoms>  (420) 
nan

$$$$
CHEMBL410707
     RDKit          3D

  0  0  0  0  0  0  0  0  0  0999 V3000
M  V30 BEGIN CTAB
M  V30 COUNTS 51 54 0 0 0
M  V30 BEGIN ATOM
M  V30 1 C -3.183962 1.458899 -1.248914 0
M  V30 2 O -1.887854 1.566249 -0.824446 0
M  V30 3 C -1.130690 0.945769 0.087746 0
M  V30 4 O -2.312046 0.596544 -0.056543 0
M  V30 5 C -0.191147 0.388063 1.013682 0
M  V30 6 C 1.004845 1.059856 0.899958 0
M  V30 7 C 1.300675 2.162887 -0.032152 0
M  V30 8 C 1.043272 3.416983 0.496994 0
M  V30 9 C 1.301670 4.485793 -0.335062 0
M  V30 10 C 1.783690 4.430718 -1.622618 0
M  V30 11 C 2.017595 3.134646 -2.083928 0
M  V30 12 C 1.788271 2.003573 -1.321435 0
M  V30 13 C 2.075723 0.712211 1.732478 0
M  V30 14 C 3.311366 1.316762 1.701492 0
M  V30 15 C 4.335422 0.938421 2.542841 0
M  V30 16 Br 6.028971 1.808314 2.453633 0
M  V30 17 C 4.089710 -0.081740 3.436641 0
M  V30 18 C 2.842638 -0.663926 3.440421 0
M  V30 19 C 1.794708 -0.309660 2.611662 0
M  V30 20 C 0.559218 -0.912540 2.639196 0
M  V30 21 O 0.501313 -1.819204 3.508010 0
M  V30 22 N -0.462756 -0.592123 1.853106 0
M  V30 23 C -1.706016 -1.293567 1.979686 0
M  V30 24 C -1.790939 -2.559047 1.217965 0
M  V30 25 C -2.138554 -2.790714 -0.087659 0
M  V30 26 C -2.206147 -3.995855 -0.746073 0
M  V30 27 C -1.884030 -5.138834 -0.008467 0
M  V30 28 O -1.946120 -6.359316 -0.655209 0
M  V30 29 C -1.646248 -7.588990 -0.033377 0
M  V30 30 C -1.524348 -4.997944 1.310764 0
M  V30 31 C -1.483968 -3.760312 1.883677 0
M  V30 32 H -3.952517 1.780087 -0.486492 0
M  V30 33 H -3.478425 0.527036 -1.777626 0
M  V30 34 H -3.303624 2.256118 -2.057815 0
M  V30 35 H 0.659631 3.587323 1.504135 0
M  V30 36 H 1.113758 5.486074 0.040999 0
M  V30 37 H 1.959813 5.315790 -2.211920 0
M  V30 38 H 2.401846 3.003346 -3.095446 0
M  V30 39 H 1.965334 1.002605 -1.665250 0
M  V30 40 H 3.458462 2.119154 0.976999 0
M  V30 41 H 4.863401 -0.405435 4.112611 0
M  V30 42 H 2.690260 -1.471376 4.167102 0
M  V30 43 H -2.609844 -0.659003 1.840420 0
M  V30 44 H -1.779327 -1.587379 3.076137 0
M  V30 45 H -2.394693 -1.945491 -0.687533 0
M  V30 46 H -2.491069 -4.061052 -1.773738 0
M  V30 47 H -1.349019 -8.350099 -0.817379 0
M  V30 48 H -0.762018 -7.518289 0.654180 0
M  V30 49 H -2.541829 -8.010957 0.456836 0
M  V30 50 H -1.297230 -5.925076 1.793034 0
M  V30 51 H -1.189468 -3.831998 2.921340 0
M  V30 END ATOM
M  V30 BEGIN BOND
M  V30 1 1 1 2
M  V30 2 1 2 3
M  V30 3 2 3 4
M  V30 4 1 3 5
M  V30 5 2 5 6
M  V30 6 1 6 7
M  V30 7 2 7 8
M  V30 8 1 8 9
M  V30 9 2 9 10
M  V30 10 1 10 11
M  V30 11 2 11 12
M  V30 12 1 6 13
M  V30 13 2 13 14
M  V30 14 1 14 15
M  V30 15 1 15 16
M  V30 16 2 15 17
M  V30 17 1 17 18
M  V30 18 2 18 19
M  V30 19 1 19 20
M  V30 20 2 20 21
M  V30 21 1 20 22
M  V30 22 1 22 23
M  V30 23 1 23 24
M  V30 24 2 24 25
M  V30 25 1 25 26
M  V30 26 2 26 27
M  V30 27 1 27 28
M  V30 28 1 28 29
M  V30 29 1 27 30
M  V30 30 2 30 31
M  V30 31 1 22 5
M  V30 32 1 31 24
M  V30 33 1 12 7
M  V30 34 1 19 13
M  V30 35 1 1 32
M  V30 36 1 1 33
M  V30 37 1 1 34
M  V30 38 1 8 35
M  V30 39 1 9 36
M  V30 40 1 10 37
M  V30 41 1 11 38
M  V30 42 1 12 39
M  V30 43 1 14 40
M  V30 44 1 17 41
M  V30 45 1 18 42
M  V30 46 1 23 43
M  V30 47 1 23 44
M  V30 48 1 25 45
M  V30 49 1 26 46
M  V30 50 1 29 47
M  V30 51 1 29 48
M  V30 52 1 29 49
M  V30 53 1 30 50
M  V30 54 1 31 51
M  V30 END BOND
M  V30 END CTAB
M  END
>  <Dataset>  (421) 
ChEMBL_Kinases

>  <Ligand_Instance>  (421) 
nan

>  <PDB_ID>  (421) 
nan

>  <Standardized_SMILES>  (421) 
COC(=O)c1c(-c2ccccc2)c2cc(Br)ccc2c(=O)n1Cc1ccc(OC)cc1

>  <Name>  (421) 
nan

>  <Pocket>  (421) 
nan

>  <ATP_Site>  (421) 
nan

>  <Peripheral>  (421) 
nan

>  <Num_H_Atoms_ProtBoundConf>  (421) 
nan

>  <Num_Resolved_Atoms>  (421) 
nan

>  <Num_Not_Resolved_Atoms>  (421) 
nan

$$$$
CHEMBL4791275
     RDKit          3D

  0  0  0  0  0  0  0  0  0  0999 V3000
M  V30 BEGIN CTAB
M  V30 COUNTS 47 50 0 0 0
M  V30 BEGIN ATOM
M  V30 1 O 2.044835 -2.115218 2.444516 0
M  V30 2 N 1.777305 -2.106447 1.247142 0 CHG=1 VAL=4
M  V30 3 O 0.856061 -3.017232 0.727659 0 CHG=-1 VAL=1
M  V30 4 C 2.192291 -1.347302 0.143306 0
M  V30 5 C 3.457739 -1.562830 -0.392743 0
M  V30 6 C 4.239118 -2.528135 0.205398 0
M  V30 7 C 5.508366 -2.724386 -0.355506 0
M  V30 8 N 5.932377 -1.996407 -1.428422 0
M  V30 9 C 5.124227 -1.057923 -1.979137 0
M  V30 10 C 3.848089 -0.804067 -1.478780 0
M  V30 11 C 3.047936 0.156373 -2.058505 0
M  V30 12 C 1.781293 0.389655 -1.541261 0
M  V30 13 C 0.906288 1.324886 -2.047268 0
M  V30 14 N -0.305987 1.461822 -1.453288 0
M  V30 15 C -0.674410 0.709672 -0.386513 0
M  V30 16 N -1.986540 1.124925 -0.030489 0
M  V30 17 C -1.855070 2.268807 0.842727 0
M  V30 18 C -1.062972 1.922470 2.045412 0
M  V30 19 C -1.583446 0.962938 3.037800 0
M  V30 20 N -1.928732 -0.316300 2.469197 0
M  V30 21 C -1.877264 -1.336122 3.566047 0
M  V30 22 C -2.208377 -2.649057 2.913651 0
M  V30 23 O -2.600767 -2.514962 1.581574 0
M  V30 24 C -3.657031 -1.611069 1.456012 0
M  V30 25 C -3.395886 -0.333497 2.201721 0
M  V30 26 N 0.194055 -0.198518 0.090755 0
M  V30 27 C 1.412898 -0.380961 -0.456198 0
M  V30 28 H 3.932000 -3.121058 1.055925 0
M  V30 29 H 6.200733 -3.449902 0.027774 0
M  V30 30 H 5.484827 -0.498075 -2.829244 0
M  V30 31 H 3.369084 0.742201 -2.910518 0
M  V30 32 H 1.281772 1.878489 -2.895939 0
M  V30 33 H -2.722968 0.535536 -0.470535 0
M  V30 34 H -2.856981 2.704729 1.096064 0
M  V30 35 H -1.254412 3.052467 0.287309 0
M  V30 36 H -0.039052 1.577034 1.641104 0
M  V30 37 H -0.773335 2.904848 2.546082 0
M  V30 38 H -2.500490 1.437918 3.505978 0
M  V30 39 H -0.808366 0.808939 3.836738 0
M  V30 40 H -0.883453 -1.267095 4.005912 0
M  V30 41 H -2.671930 -1.105652 4.303094 0
M  V30 42 H -2.975884 -3.230833 3.496497 0
M  V30 43 H -1.296079 -3.275585 2.925815 0
M  V30 44 H -3.767995 -1.381379 0.387123 0
M  V30 45 H -4.625295 -2.077139 1.755253 0
M  V30 46 H -3.921376 -0.480571 3.206785 0
M  V30 47 H -3.767110 0.579744 1.785573 0
M  V30 END ATOM
M  V30 BEGIN BOND
M  V30 1 2 1 2
M  V30 2 1 2 3
M  V30 3 1 2 4
M  V30 4 2 4 5
M  V30 5 1 5 6
M  V30 6 2 6 7
M  V30 7 1 7 8
M  V30 8 2 8 9
M  V30 9 1 9 10
M  V30 10 2 10 11
M  V30 11 1 11 12
M  V30 12 2 12 13
M  V30 13 1 13 14
M  V30 14 2 14 15
M  V30 15 1 15 16
M  V30 16 1 16 17
M  V30 17 1 17 18
M  V30 18 1 18 19
M  V30 19 1 19 20
M  V30 20 1 20 21
M  V30 21 1 21 22
M  V30 22 1 22 23
M  V30 23 1 23 24
M  V30 24 1 24 25
M  V30 25 1 15 26
M  V30 26 2 26 27
M  V30 27 1 27 4
M  V30 28 1 10 5
M  V30 29 1 27 12
M  V30 30 1 25 20
M  V30 31 1 6 28
M  V30 32 1 7 29
M  V30 33 1 9 30
M  V30 34 1 11 31
M  V30 35 1 13 32
M  V30 36 1 16 33
M  V30 37 1 17 34
M  V30 38 1 17 35
M  V30 39 1 18 36
M  V30 40 1 18 37
M  V30 41 1 19 38
M  V30 42 1 19 39
M  V30 43 1 21 40
M  V30 44 1 21 41
M  V30 45 1 22 42
M  V30 46 1 22 43
M  V30 47 1 24 44
M  V30 48 1 24 45
M  V30 49 1 25 46
M  V30 50 1 25 47
M  V30 END BOND
M  V30 END CTAB
M  END
>  <Dataset>  (422) 
ChEMBL_Kinases

>  <Ligand_Instance>  (422) 
nan

>  <PDB_ID>  (422) 
nan

>  <Standardized_SMILES>  (422) 
O=[N+]([O-])c1c2ccncc2cc2cnc(NCCCN3CCOCC3)nc12

>  <Name>  (422) 
nan

>  <Pocket>  (422) 
nan

>  <ATP_Site>  (422) 
nan

>  <Peripheral>  (422) 
nan

>  <Num_H_Atoms_ProtBoundConf>  (422) 
nan

>  <Num_Resolved_Atoms>  (422) 
nan

>  <Num_Not_Resolved_Atoms>  (422) 
nan

$$$$
CHEMBL4791276
     RDKit          3D

  0  0  0  0  0  0  0  0  0  0999 V3000
M  V30 BEGIN CTAB
M  V30 COUNTS 37 39 0 0 0
M  V30 BEGIN ATOM
M  V30 1 C -0.207276 -1.326701 4.042021 0
M  V30 2 C -0.905742 -1.720356 2.767387 0
M  V30 3 N -0.185986 -1.487526 1.564330 0
M  V30 4 C 0.625134 -2.404291 0.945780 0
M  V30 5 C 0.876772 -3.751245 1.436374 0
M  V30 6 N 1.715057 -4.678261 0.768681 0
M  V30 7 O 0.573993 -4.489512 2.371416 0
M  V30 8 C 1.194894 -1.933551 -0.194233 0
M  V30 9 C 0.732691 -0.635761 -0.330907 0
M  V30 10 C -0.089609 -0.440729 0.762796 0
M  V30 11 C -0.675038 0.890803 0.804660 0
M  V30 12 C -1.484879 1.232265 1.833064 0
M  V30 13 C -2.039252 2.518184 1.894992 0
M  V30 14 N -1.719718 3.378591 0.883003 0
M  V30 15 C -0.913015 3.031163 -0.136014 0
M  V30 16 C -0.362463 1.772839 -0.209456 0
M  V30 17 O 0.448968 1.517097 -1.291758 0
M  V30 18 C 1.082536 0.276753 -1.424746 0
M  V30 19 C 0.541769 -0.338787 -2.716559 0
M  V30 20 C 2.583235 0.409382 -1.583064 0
M  V30 21 H 0.482511 -2.097819 4.445003 0
M  V30 22 H -0.960596 -1.150614 4.838028 0
M  V30 23 H 0.459033 -0.430219 3.893632 0
M  V30 24 H -2.000436 -1.547974 2.745127 0
M  V30 25 H -0.959841 -2.869582 2.893434 0
M  V30 26 H 1.393731 -5.437330 0.098919 0
M  V30 27 H 2.758696 -4.876591 0.731342 0
M  V30 28 H 1.878828 -2.490743 -0.853488 0
M  V30 29 H -1.769429 0.642036 2.649748 0
M  V30 30 H -2.698231 2.903527 2.665489 0
M  V30 31 H -0.746153 3.809083 -0.864405 0
M  V30 32 H 0.374829 0.439911 -3.485955 0
M  V30 33 H -0.444755 -0.805897 -2.503304 0
M  V30 34 H 1.209885 -1.103281 -3.133599 0
M  V30 35 H 3.000818 -0.599459 -1.672410 0
M  V30 36 H 3.045969 0.868655 -0.695398 0
M  V30 37 H 2.780721 0.969518 -2.496960 0
M  V30 END ATOM
M  V30 BEGIN BOND
M  V30 1 1 1 2
M  V30 2 1 2 3
M  V30 3 1 3 4
M  V30 4 1 4 5
M  V30 5 1 5 6
M  V30 6 2 5 7
M  V30 7 2 4 8
M  V30 8 1 8 9
M  V30 9 2 9 10
M  V30 10 1 10 11
M  V30 11 2 11 12
M  V30 12 1 12 13
M  V30 13 2 13 14
M  V30 14 1 14 15
M  V30 15 2 15 16
M  V30 16 1 16 17
M  V30 17 1 17 18
M  V30 18 1 18 19
M  V30 19 1 18 20
M  V30 20 1 10 3
M  V30 21 1 16 11
M  V30 22 1 18 9
M  V30 23 1 1 21
M  V30 24 1 1 22
M  V30 25 1 1 23
M  V30 26 1 2 24
M  V30 27 1 2 25
M  V30 28 1 6 26
M  V30 29 1 6 27
M  V30 30 1 8 28
M  V30 31 1 12 29
M  V30 32 1 13 30
M  V30 33 1 15 31
M  V30 34 1 19 32
M  V30 35 1 19 33
M  V30 36 1 19 34
M  V30 37 1 20 35
M  V30 38 1 20 36
M  V30 39 1 20 37
M  V30 END BOND
M  V30 END CTAB
M  END
>  <Dataset>  (423) 
ChEMBL_Kinases

>  <Ligand_Instance>  (423) 
nan

>  <PDB_ID>  (423) 
nan

>  <Standardized_SMILES>  (423) 
CCn1c(C(N)=O)cc2c1-c1ccncc1OC2(C)C

>  <Name>  (423) 
nan

>  <Pocket>  (423) 
nan

>  <ATP_Site>  (423) 
nan

>  <Peripheral>  (423) 
nan

>  <Num_H_Atoms_ProtBoundConf>  (423) 
nan

>  <Num_Resolved_Atoms>  (423) 
nan

>  <Num_Not_Resolved_Atoms>  (423) 
nan

$$$$
CHEMBL4791281
     RDKit          3D

  0  0  0  0  0  0  0  0  0  0999 V3000
M  V30 BEGIN CTAB
M  V30 COUNTS 108 114 0 0 0
M  V30 BEGIN ATOM
M  V30 1 C 2.697432 1.876837 2.332868 0
M  V30 2 C 4.048196 2.570546 2.177746 0
M  V30 3 C 4.530259 2.991601 3.584259 0
M  V30 4 C 4.979426 1.611309 1.583558 0
M  V30 5 C 5.923188 0.915839 2.357157 0
M  V30 6 C 6.685030 0.095395 1.577318 0
M  V30 7 N 6.224158 0.273909 0.331467 0
M  V30 8 N 6.619934 -0.292732 -0.794361 0
M  V30 9 C 6.017559 0.023264 -1.934985 0
M  V30 10 N 4.995451 0.921162 -1.977257 0
M  V30 11 C 4.576883 1.509670 -0.843951 0
M  V30 12 N 3.498963 2.430650 -0.922012 0
M  V30 13 C 2.979592 2.626130 -2.255889 0 CFG=1
M  V30 14 C 1.771695 3.532207 -2.307065 0
M  V30 15 C 1.499433 3.855147 -3.788583 0
M  V30 16 C 1.981372 2.735866 -4.643187 0 CFG=1
M  V30 17 N 1.586446 2.794430 -6.012525 0
M  V30 18 C 2.083157 1.637041 -6.743557 0
M  V30 19 C 1.564713 0.348891 -6.195991 0
M  V30 20 N 0.182317 0.578204 -5.746404 0
M  V30 21 C -0.688667 0.172643 -4.673881 0
M  V30 22 O -1.901149 0.545722 -4.584441 0
M  V30 23 C -0.150541 -0.710918 -3.633197 0
M  V30 24 C -1.118810 -0.990474 -2.534044 0
M  V30 25 C -2.355011 -1.667450 -2.941192 0
M  V30 26 O -2.866292 -2.152471 -3.991553 0
M  V30 27 N -3.263637 -1.839193 -1.833211 0
M  V30 28 C -4.545740 -2.498131 -2.011427 0
M  V30 29 C -5.347864 -2.555447 -0.726606 0
M  V30 30 C -5.656470 -1.152125 -0.225701 0
M  V30 31 C -6.434499 -1.277276 1.038908 0
M  V30 32 N -5.673508 -1.945005 2.041331 0
M  V30 33 C -4.580607 -1.441009 2.778232 0
M  V30 34 C -4.137753 -0.146074 2.628102 0
M  V30 35 C -3.093997 0.414675 3.336762 0
M  V30 36 C -2.417453 -0.339552 4.273473 0
M  V30 37 C -2.842103 -1.633479 4.439866 0
M  V30 38 C -3.879049 -2.162993 3.723589 0
M  V30 39 C -4.025569 -3.540390 4.176864 0
M  V30 40 O -4.874594 -4.384293 3.765483 0
M  V30 41 N -3.074460 -3.879917 5.184262 0
M  V30 42 C -2.871394 -5.122058 5.894483 0
M  V30 43 C -4.046648 -5.437695 6.784446 0
M  V30 44 C -4.246882 -6.904184 7.010141 0
M  V30 45 C -4.283682 -7.686958 5.760782 0
M  V30 46 O -5.081050 -8.590814 5.402191 0
M  V30 47 N -3.270496 -7.386724 4.804621 0
M  V30 48 C -2.470486 -6.225303 5.007184 0
M  V30 49 O -1.339791 -6.004380 4.460429 0
M  V30 50 C -2.331898 -2.654935 5.337347 0
M  V30 51 O -1.372865 -2.519902 6.150977 0
M  V30 52 C -0.392979 1.520197 -6.701446 0
M  V30 53 C 0.169084 2.882796 -6.257336 0
M  V30 54 C 3.518121 2.823547 -4.606574 0
M  V30 55 C 3.983199 3.216511 -3.220924 0
M  V30 56 C 5.216195 1.165114 0.311750 0
M  V30 57 H 1.856404 2.571297 2.348362 0
M  V30 58 H 2.713544 1.176751 3.194668 0
M  V30 59 H 2.577332 1.239629 1.430210 0
M  V30 60 H 3.889652 3.510309 1.668668 0
M  V30 61 H 4.618001 2.116316 4.234604 0
M  V30 62 H 5.417464 3.611412 3.464877 0
M  V30 63 H 3.721109 3.629735 4.018954 0
M  V30 64 H 6.091765 0.964410 3.431539 0
M  V30 65 H 7.487234 -0.562080 1.874114 0
M  V30 66 H 6.320644 -0.425856 -2.874106 0
M  V30 67 H 2.952028 3.020366 -0.286713 0
M  V30 68 H 2.712207 1.579287 -2.596965 0
M  V30 69 H 0.927121 2.963513 -1.860933 0
M  V30 70 H 1.939550 4.426565 -1.706442 0
M  V30 71 H 2.100996 4.765923 -4.046912 0
M  V30 72 H 0.419152 4.059854 -3.812750 0
M  V30 73 H 1.657801 1.734426 -4.270432 0
M  V30 74 H 3.186564 1.574591 -6.754460 0
M  V30 75 H 1.780417 1.730615 -7.803501 0
M  V30 76 H 2.169544 -0.118445 -5.411869 0
M  V30 77 H 1.445016 -0.365136 -7.064474 0
M  V30 78 H 0.730849 -0.199370 -3.160941 0
M  V30 79 H 0.234665 -1.676342 -4.036838 0
M  V30 80 H -1.353075 -0.055856 -1.985216 0
M  V30 81 H -0.601063 -1.642819 -1.774973 0
M  V30 82 H -3.070376 -1.510706 -0.848435 0
M  V30 83 H -5.120977 -1.998968 -2.803362 0
M  V30 84 H -4.303337 -3.548589 -2.272886 0
M  V30 85 H -4.772463 -3.089585 0.030109 0
M  V30 86 H -6.323115 -3.022746 -0.996704 0
M  V30 87 H -6.277206 -0.637933 -0.988613 0
M  V30 88 H -4.736176 -0.601572 -0.060466 0
M  V30 89 H -6.673204 -0.258318 1.449334 0
M  V30 90 H -7.390041 -1.815348 0.847358 0
M  V30 91 H -5.939195 -2.937237 2.279787 0
M  V30 92 H -4.576287 0.563196 1.944751 0
M  V30 93 H -2.747665 1.439587 3.213784 0
M  V30 94 H -1.606607 0.055262 4.841798 0
M  V30 95 H -2.010111 -4.949872 6.605558 0
M  V30 96 H -3.925393 -4.968323 7.796822 0
M  V30 97 H -4.945198 -4.962956 6.344147 0
M  V30 98 H -5.232558 -7.042501 7.497090 0
M  V30 99 H -3.486786 -7.280648 7.746807 0
M  V30 100 H -3.031614 -7.926318 3.947140 0
M  V30 101 H -1.489010 1.594463 -6.579007 0
M  V30 102 H -0.195391 1.290791 -7.744001 0
M  V30 103 H -0.027075 3.637869 -7.046950 0
M  V30 104 H -0.442188 3.177302 -5.400084 0
M  V30 105 H 3.782144 3.587045 -5.385993 0
M  V30 106 H 4.008109 1.894651 -4.883324 0
M  V30 107 H 5.025062 3.010827 -3.006143 0
M  V30 108 H 3.878326 4.339408 -3.146170 0
M  V30 END ATOM
M  V30 BEGIN BOND
M  V30 1 1 1 2
M  V30 2 1 2 3
M  V30 3 1 2 4
M  V30 4 1 4 5
M  V30 5 2 5 6
M  V30 6 1 6 7
M  V30 7 1 7 8
M  V30 8 2 8 9
M  V30 9 1 9 10
M  V30 10 2 10 11
M  V30 11 1 11 12
M  V30 12 1 12 13
M  V30 13 1 13 14
M  V30 14 1 14 15
M  V30 15 1 15 16
M  V30 16 1 16 17
M  V30 17 1 17 18
M  V30 18 1 18 19
M  V30 19 1 19 20
M  V30 20 1 20 21
M  V30 21 2 21 22
M  V30 22 1 21 23
M  V30 23 1 23 24
M  V30 24 1 24 25
M  V30 25 2 25 26
M  V30 26 1 25 27
M  V30 27 1 27 28
M  V30 28 1 28 29
M  V30 29 1 29 30
M  V30 30 1 30 31
M  V30 31 1 31 32
M  V30 32 1 32 33
M  V30 33 2 33 34
M  V30 34 1 34 35
M  V30 35 2 35 36
M  V30 36 1 36 37
M  V30 37 2 37 38
M  V30 38 1 38 39
M  V30 39 2 39 40
M  V30 40 1 39 41
M  V30 41 1 41 42
M  V30 42 1 42 43
M  V30 43 1 43 44
M  V30 44 1 44 45
M  V30 45 2 45 46
M  V30 46 1 45 47
M  V30 47 1 47 48
M  V30 48 2 48 49
M  V30 49 1 41 50
M  V30 50 2 50 51
M  V30 51 1 20 52
M  V30 52 1 52 53
M  V30 53 1 16 54
M  V30 54 1 54 55
M  V30 55 1 11 56
M  V30 56 2 56 4
M  V30 57 1 56 7
M  V30 58 1 55 13
M  V30 59 1 53 17
M  V30 60 1 38 33
M  V30 61 1 48 42
M  V30 62 1 50 37
M  V30 63 1 1 57
M  V30 64 1 1 58
M  V30 65 1 1 59
M  V30 66 1 2 60
M  V30 67 1 3 61
M  V30 68 1 3 62
M  V30 69 1 3 63
M  V30 70 1 5 64
M  V30 71 1 6 65
M  V30 72 1 9 66
M  V30 73 1 12 67
M  V30 74 1 13 68 CFG=3
M  V30 75 1 14 69
M  V30 76 1 14 70
M  V30 77 1 15 71
M  V30 78 1 15 72
M  V30 79 1 16 73 CFG=1
M  V30 80 1 18 74
M  V30 81 1 18 75
M  V30 82 1 19 76
M  V30 83 1 19 77
M  V30 84 1 23 78
M  V30 85 1 23 79
M  V30 86 1 24 80
M  V30 87 1 24 81
M  V30 88 1 27 82
M  V30 89 1 28 83
M  V30 90 1 28 84
M  V30 91 1 29 85
M  V30 92 1 29 86
M  V30 93 1 30 87
M  V30 94 1 30 88
M  V30 95 1 31 89
M  V30 96 1 31 90
M  V30 97 1 32 91
M  V30 98 1 34 92
M  V30 99 1 35 93
M  V30 100 1 36 94
M  V30 101 1 42 95
M  V30 102 1 43 96
M  V30 103 1 43 97
M  V30 104 1 44 98
M  V30 105 1 44 99
M  V30 106 1 47 100
M  V30 107 1 52 101
M  V30 108 1 52 102
M  V30 109 1 53 103
M  V30 110 1 53 104
M  V30 111 1 54 105
M  V30 112 1 54 106
M  V30 113 1 55 107
M  V30 114 1 55 108
M  V30 END BOND
M  V30 END CTAB
M  END
>  <Dataset>  (424) 
ChEMBL_Kinases

>  <Ligand_Instance>  (424) 
nan

>  <PDB_ID>  (424) 
nan

>  <Standardized_SMILES>  (424) 
CC(C)c1ccn2ncnc(N[C@H]3CC[C@@H](N4CCN(C(=O)CCC(=O)NCCCCNc5cccc6c5C(=O)N(C5CCC(=O)NC5=O)C6=O)CC4)CC3)c12

>  <Name>  (424) 
nan

>  <Pocket>  (424) 
nan

>  <ATP_Site>  (424) 
nan

>  <Peripheral>  (424) 
nan

>  <Num_H_Atoms_ProtBoundConf>  (424) 
nan

>  <Num_Resolved_Atoms>  (424) 
nan

>  <Num_Not_Resolved_Atoms>  (424) 
nan

$$$$
CHEMBL4791286
     RDKit          3D

  0  0  0  0  0  0  0  0  0  0999 V3000
M  V30 BEGIN CTAB
M  V30 COUNTS 73 79 0 0 0
M  V30 BEGIN ATOM
M  V30 1 C 0.603902 1.040222 5.853942 0
M  V30 2 N 1.129179 0.926819 4.481630 0
M  V30 3 C 1.296709 -0.405664 4.017811 0
M  V30 4 O 0.946864 -1.210835 4.914489 0
M  V30 5 C 1.817222 -0.428798 2.659201 0
M  V30 6 S 2.305987 0.699504 1.405455 0
M  V30 7 C 2.773748 -0.658597 0.163052 0
M  V30 8 C 3.281945 -0.325802 -1.156990 0
M  V30 9 C 3.602944 -1.358936 -2.013506 0
M  V30 10 C 4.072344 -0.985619 -3.234117 0
M  V30 11 N 4.220346 0.291592 -3.598812 0
M  V30 12 C 3.919976 1.322252 -2.796146 0
M  V30 13 N 4.111752 2.638903 -3.277073 0
M  V30 14 C 3.883748 3.870544 -2.654109 0
M  V30 15 O 3.440196 3.880371 -1.484776 0
M  V30 16 C 4.109871 5.198356 -3.226477 0
M  V30 17 C 5.302199 5.428412 -4.098831 0
M  V30 18 C 3.866031 5.465474 -4.665081 0
M  V30 19 C 3.447711 0.963127 -1.567837 0
M  V30 20 N 2.547050 -1.719793 0.734927 0
M  V30 21 C 2.070415 -1.771105 1.975803 0
M  V30 22 O 1.814676 -2.970100 2.619712 0
M  V30 23 C 2.024321 -4.230546 2.053607 0
M  V30 24 C 1.215845 -4.464615 0.796660 0
M  V30 25 C -0.235468 -4.373080 0.996561 0
M  V30 26 C -1.006541 -3.236919 0.880163 0
M  V30 27 N -2.273287 -3.629053 1.150537 0
M  V30 28 C -3.351792 -2.720660 1.126200 0
M  V30 29 C -3.949502 -2.555930 -0.107006 0
M  V30 30 C -5.024638 -1.694629 -0.289973 0
M  V30 31 N -5.466527 -1.016932 0.800584 0
M  V30 32 C -4.907150 -1.155007 2.012671 0
M  V30 33 C -5.366517 -0.456563 3.123256 0
M  V30 34 C -4.780092 -0.609921 4.361772 0
M  V30 35 C -3.722109 -1.477105 4.471876 0
M  V30 36 C -3.205942 -2.207049 3.421466 0
M  V30 37 C -3.838795 -2.010615 2.195722 0
M  V30 38 C -5.739142 -1.438238 -1.553531 0
M  V30 39 C -5.479593 -2.440092 -2.631490 0
M  V30 40 C -4.856314 -3.684614 -2.044436 0
M  V30 41 C -3.552234 -3.245198 -1.374796 0
M  V30 42 N -2.267640 -4.912815 1.411939 0
M  V30 43 N -1.048295 -5.399741 1.328289 0
M  V30 44 H 0.301417 2.074486 6.007034 0
M  V30 45 H 1.283238 0.604581 6.583131 0
M  V30 46 H -0.332642 0.416071 5.877764 0
M  V30 47 H 1.342601 1.800902 3.945449 0
M  V30 48 H 3.457432 -2.376588 -1.650131 0
M  V30 49 H 4.337223 -1.756858 -3.939833 0
M  V30 50 H 4.480464 2.777214 -4.246752 0
M  V30 51 H 3.860043 6.043395 -2.550622 0
M  V30 52 H 5.811919 6.426496 -4.057178 0
M  V30 53 H 5.946825 4.570955 -4.384315 0
M  V30 54 H 3.462005 6.450820 -4.970692 0
M  V30 55 H 3.606821 4.644783 -5.359362 0
M  V30 56 H 3.182592 1.709375 -0.862173 0
M  V30 57 H 3.098234 -4.237111 1.696730 0
M  V30 58 H 1.816179 -5.061528 2.722484 0
M  V30 59 H 1.479737 -5.483898 0.425051 0
M  V30 60 H 1.568267 -3.763749 0.025788 0
M  V30 61 H -0.673781 -2.222759 0.623293 0
M  V30 62 H -6.203449 0.221935 3.008499 0
M  V30 63 H -5.180806 -0.040498 5.187660 0
M  V30 64 H -3.252384 -1.607994 5.436225 0
M  V30 65 H -2.372832 -2.888669 3.513706 0
M  V30 66 H -5.386258 -0.429066 -1.909048 0
M  V30 67 H -6.842430 -1.375724 -1.361875 0
M  V30 68 H -4.726719 -2.033161 -3.346862 0
M  V30 69 H -6.435951 -2.683115 -3.162540 0
M  V30 70 H -4.571300 -4.342787 -2.898274 0
M  V30 71 H -5.535564 -4.195655 -1.338268 0
M  V30 72 H -3.074666 -2.524911 -2.057472 0
M  V30 73 H -2.938882 -4.153569 -1.176626 0
M  V30 END ATOM
M  V30 BEGIN BOND
M  V30 1 1 1 2
M  V30 2 1 2 3
M  V30 3 2 3 4
M  V30 4 1 3 5
M  V30 5 1 5 6
M  V30 6 1 6 7
M  V30 7 1 7 8
M  V30 8 2 8 9
M  V30 9 1 9 10
M  V30 10 2 10 11
M  V30 11 1 11 12
M  V30 12 1 12 13
M  V30 13 1 13 14
M  V30 14 2 14 15
M  V30 15 1 14 16
M  V30 16 1 16 17
M  V30 17 1 17 18
M  V30 18 2 12 19
M  V30 19 2 7 20
M  V30 20 1 20 21
M  V30 21 1 21 22
M  V30 22 1 22 23
M  V30 23 1 23 24
M  V30 24 1 24 25
M  V30 25 2 25 26
M  V30 26 1 26 27
M  V30 27 1 27 28
M  V30 28 2 28 29
M  V30 29 1 29 30
M  V30 30 2 30 31
M  V30 31 1 31 32
M  V30 32 2 32 33
M  V30 33 1 33 34
M  V30 34 2 34 35
M  V30 35 1 35 36
M  V30 36 2 36 37
M  V30 37 1 30 38
M  V30 38 1 38 39
M  V30 39 1 39 40
M  V30 40 1 40 41
M  V30 41 1 27 42
M  V30 42 2 42 43
M  V30 43 2 21 5
M  V30 44 1 43 25
M  V30 45 1 19 8
M  V30 46 1 37 28
M  V30 47 1 18 16
M  V30 48 1 41 29
M  V30 49 1 37 32
M  V30 50 1 1 44
M  V30 51 1 1 45
M  V30 52 1 1 46
M  V30 53 1 2 47
M  V30 54 1 9 48
M  V30 55 1 10 49
M  V30 56 1 13 50
M  V30 57 1 16 51
M  V30 58 1 17 52
M  V30 59 1 17 53
M  V30 60 1 18 54
M  V30 61 1 18 55
M  V30 62 1 19 56
M  V30 63 1 23 57
M  V30 64 1 23 58
M  V30 65 1 24 59
M  V30 66 1 24 60
M  V30 67 1 26 61
M  V30 68 1 33 62
M  V30 69 1 34 63
M  V30 70 1 35 64
M  V30 71 1 36 65
M  V30 72 1 38 66
M  V30 73 1 38 67
M  V30 74 1 39 68
M  V30 75 1 39 69
M  V30 76 1 40 70
M  V30 77 1 40 71
M  V30 78 1 41 72
M  V30 79 1 41 73
M  V30 END BOND
M  V30 END CTAB
M  END
>  <Dataset>  (425) 
ChEMBL_Kinases

>  <Ligand_Instance>  (425) 
nan

>  <PDB_ID>  (425) 
nan

>  <Standardized_SMILES>  (425) 
CNC(=O)c1sc(-c2ccnc(NC(=O)C3CC3)c2)nc1OCCc1cn(-c2c3c(nc4ccccc24)CCCC3)nn1

>  <Name>  (425) 
nan

>  <Pocket>  (425) 
nan

>  <ATP_Site>  (425) 
nan

>  <Peripheral>  (425) 
nan

>  <Num_H_Atoms_ProtBoundConf>  (425) 
nan

>  <Num_Resolved_Atoms>  (425) 
nan

>  <Num_Not_Resolved_Atoms>  (425) 
nan

$$$$
CHEMBL4791302
     RDKit          3D

  0  0  0  0  0  0  0  0  0  0999 V3000
M  V30 BEGIN CTAB
M  V30 COUNTS 36 38 0 0 0
M  V30 BEGIN ATOM
M  V30 1 O 2.608335 -1.063541 -3.867998 0
M  V30 2 C 2.391771 -1.187287 -2.611853 0
M  V30 3 N 2.802657 -2.261401 -1.791240 0
M  V30 4 C 2.463455 -2.158081 -0.563693 0
M  V30 5 N 2.727134 -3.066409 0.501142 0
M  V30 6 C 2.695308 -4.496511 0.236281 0
M  V30 7 C 3.029737 -5.153423 1.584908 0
M  V30 8 O 2.054544 -4.759060 2.523853 0
M  V30 9 S 1.523126 -0.638333 -0.254792 0
M  V30 10 C 1.646023 -0.106260 -1.987466 0
M  V30 11 C 1.122744 1.031258 -2.350162 0
M  V30 12 C 0.403271 1.895568 -1.380427 0
M  V30 13 C 0.318066 3.210211 -1.060166 0
M  V30 14 C -0.567410 3.366777 -0.018225 0
M  V30 15 C -0.995831 2.092867 0.256591 0
M  V30 16 C -1.955952 1.667626 1.287894 0
M  V30 17 C -2.220028 0.312218 1.406052 0
M  V30 18 C -3.129746 -0.166979 2.357109 0
M  V30 19 C -3.749535 0.776469 3.168418 0
M  V30 20 C -3.514986 2.153839 3.085797 0
M  V30 21 Cl -4.280203 3.362890 4.086249 0
M  V30 22 C -2.595195 2.558126 2.115064 0
M  V30 23 O -0.416521 1.232417 -0.552221 0
M  V30 24 H 2.936439 -2.637648 1.441101 0
M  V30 25 H 1.755364 -4.868243 -0.160130 0
M  V30 26 H 3.528234 -4.696522 -0.472802 0
M  V30 27 H 4.011774 -4.811180 1.947385 0
M  V30 28 H 2.979267 -6.256890 1.513846 0
M  V30 29 H 1.333150 -5.417438 2.624428 0
M  V30 30 H 1.281305 1.244935 -3.423056 0
M  V30 31 H 0.901604 3.901056 -1.610351 0
M  V30 32 H -0.850102 4.290820 0.461415 0
M  V30 33 H -1.763911 -0.474899 0.795817 0
M  V30 34 H -3.397379 -1.196486 2.525651 0
M  V30 35 H -4.483189 0.573504 3.961378 0
M  V30 36 H -2.379650 3.619140 2.019187 0
M  V30 END ATOM
M  V30 BEGIN BOND
M  V30 1 2 1 2
M  V30 2 1 2 3
M  V30 3 2 3 4
M  V30 4 1 4 5
M  V30 5 1 5 6
M  V30 6 1 6 7
M  V30 7 1 7 8
M  V30 8 1 4 9
M  V30 9 1 9 10
M  V30 10 2 10 11
M  V30 11 1 11 12
M  V30 12 2 12 13
M  V30 13 1 13 14
M  V30 14 2 14 15
M  V30 15 1 15 16
M  V30 16 2 16 17
M  V30 17 1 17 18
M  V30 18 2 18 19
M  V30 19 1 19 20
M  V30 20 1 20 21
M  V30 21 2 20 22
M  V30 22 1 15 23
M  V30 23 1 10 2
M  V30 24 1 23 12
M  V30 25 1 22 16
M  V30 26 1 5 24
M  V30 27 1 6 25
M  V30 28 1 6 26
M  V30 29 1 7 27
M  V30 30 1 7 28
M  V30 31 1 8 29
M  V30 32 1 11 30
M  V30 33 1 13 31
M  V30 34 1 14 32
M  V30 35 1 17 33
M  V30 36 1 18 34
M  V30 37 1 19 35
M  V30 38 1 22 36
M  V30 END BOND
M  V30 END CTAB
M  END
>  <Dataset>  (426) 
ChEMBL_Kinases

>  <Ligand_Instance>  (426) 
nan

>  <PDB_ID>  (426) 
nan

>  <Standardized_SMILES>  (426) 
O=C1N=C(NCCO)S/C1=C\c1ccc(-c2cccc(Cl)c2)o1

>  <Name>  (426) 
nan

>  <Pocket>  (426) 
nan

>  <ATP_Site>  (426) 
nan

>  <Peripheral>  (426) 
nan

>  <Num_H_Atoms_ProtBoundConf>  (426) 
nan

>  <Num_Resolved_Atoms>  (426) 
nan

>  <Num_Not_Resolved_Atoms>  (426) 
nan

$$$$
CHEMBL4791330
     RDKit          3D

  0  0  0  0  0  0  0  0  0  0999 V3000
M  V30 BEGIN CTAB
M  V30 COUNTS 63 67 0 0 0
M  V30 BEGIN ATOM
M  V30 1 C 1.297586 5.667007 1.595488 0
M  V30 2 N -0.124844 5.826004 1.838187 0
M  V30 3 C -0.474762 4.976943 2.925885 0
M  V30 4 C -0.898721 3.595901 2.619617 0
M  V30 5 N -0.763875 3.381069 1.180099 0
M  V30 6 C -0.035856 2.416853 0.462946 0
M  V30 7 O -0.029985 2.377187 -0.793799 0
M  V30 8 C 0.804666 1.337787 0.968277 0
M  V30 9 C 1.912214 1.572615 1.792545 0
M  V30 10 C 2.693796 0.526671 2.249246 0
M  V30 11 C 2.323864 -0.754451 1.850240 0
M  V30 12 C 1.230656 -1.039322 1.030922 0
M  V30 13 C 1.009665 -2.448067 0.714485 0
M  V30 14 C 1.364676 -3.401009 1.646944 0
M  V30 15 N 1.183480 -4.731790 1.402866 0
M  V30 16 C 0.645029 -5.088085 0.218535 0
M  V30 17 N 0.354750 -6.315441 -0.299475 0
M  V30 18 C -0.174485 -6.189213 -1.528931 0
M  V30 19 C -0.248138 -4.842188 -1.859847 0
M  V30 20 C -0.749723 -4.152900 -3.058315 0
M  V30 21 C -0.432988 -4.418721 -4.372504 0
M  V30 22 C -0.998044 -3.689436 -5.391602 0
M  V30 23 C -0.623555 -4.018876 -6.730612 0
M  V30 24 N -0.332031 -4.274093 -7.824273 0
M  V30 25 C -1.897170 -2.675815 -5.076151 0
M  V30 26 C -2.222564 -2.401122 -3.748073 0
M  V30 27 N -3.155250 -1.344755 -3.660889 0
M  V30 28 S -3.289994 0.199292 -4.383056 0
M  V30 29 C -1.936744 1.272422 -3.979078 0
M  V30 30 O -4.585457 0.810247 -3.938739 0
M  V30 31 O -3.291384 0.035431 -5.895837 0
M  V30 32 C -1.644939 -3.143073 -2.751711 0
M  V30 33 C 0.268943 -4.174148 -0.755248 0
M  V30 34 C 0.456481 -2.814795 -0.501114 0
M  V30 35 C 0.493544 0.045063 0.610009 0
M  V30 36 C -1.533090 4.358578 0.433678 0
M  V30 37 C -0.807345 5.660442 0.612974 0
M  V30 38 H 1.861489 6.621104 1.643380 0
M  V30 39 H 1.786529 4.979146 2.313313 0
M  V30 40 H 1.507053 5.214613 0.585900 0
M  V30 41 H -1.346137 5.484622 3.437778 0
M  V30 42 H 0.329341 4.969846 3.686939 0
M  V30 43 H -1.942479 3.332578 2.890373 0
M  V30 44 H -0.172949 2.869913 3.080344 0
M  V30 45 H 2.159332 2.597476 2.075802 0
M  V30 46 H 3.551414 0.678385 2.885343 0
M  V30 47 H 2.969456 -1.560660 2.232385 0
M  V30 48 H 1.791584 -3.197530 2.597831 0
M  V30 49 H 0.490248 -7.265820 0.125750 0
M  V30 50 H -0.508195 -6.964081 -2.202819 0
M  V30 51 H 0.276425 -5.227084 -4.482053 0
M  V30 52 H -2.282795 -2.164145 -5.949314 0
M  V30 53 H -3.858735 -1.708498 -2.982795 0
M  V30 54 H -1.255095 0.841523 -3.206714 0
M  V30 55 H -1.304830 1.525505 -4.853582 0
M  V30 56 H -2.341154 2.252657 -3.593043 0
M  V30 57 H -1.997833 -2.815460 -1.769242 0
M  V30 58 H 0.190659 -2.038471 -1.212117 0
M  V30 59 H -0.344541 -0.203519 -0.023912 0
M  V30 60 H -2.577965 4.433104 0.803094 0
M  V30 61 H -1.525969 4.120035 -0.641284 0
M  V30 62 H -1.606812 6.452095 0.566488 0
M  V30 63 H -0.134237 5.845993 -0.234502 0
M  V30 END ATOM
M  V30 BEGIN BOND
M  V30 1 1 1 2
M  V30 2 1 2 3
M  V30 3 1 3 4
M  V30 4 1 4 5
M  V30 5 1 5 6
M  V30 6 2 6 7
M  V30 7 1 6 8
M  V30 8 2 8 9
M  V30 9 1 9 10
M  V30 10 2 10 11
M  V30 11 1 11 12
M  V30 12 1 12 13
M  V30 13 2 13 14
M  V30 14 1 14 15
M  V30 15 2 15 16
M  V30 16 1 16 17
M  V30 17 1 17 18
M  V30 18 2 18 19
M  V30 19 1 19 20
M  V30 20 2 20 21
M  V30 21 1 21 22
M  V30 22 1 22 23
M  V30 23 3 23 24
M  V30 24 2 22 25
M  V30 25 1 25 26
M  V30 26 1 26 27
M  V30 27 1 27 28
M  V30 28 1 28 29
M  V30 29 2 28 30
M  V30 30 2 28 31
M  V30 31 2 26 32
M  V30 32 1 19 33
M  V30 33 2 33 34
M  V30 34 2 12 35
M  V30 35 1 5 36
M  V30 36 1 36 37
M  V30 37 1 37 2
M  V30 38 1 35 8
M  V30 39 1 34 13
M  V30 40 1 33 16
M  V30 41 1 32 20
M  V30 42 1 1 38
M  V30 43 1 1 39
M  V30 44 1 1 40
M  V30 45 1 3 41
M  V30 46 1 3 42
M  V30 47 1 4 43
M  V30 48 1 4 44
M  V30 49 1 9 45
M  V30 50 1 10 46
M  V30 51 1 11 47
M  V30 52 1 14 48
M  V30 53 1 17 49
M  V30 54 1 18 50
M  V30 55 1 21 51
M  V30 56 1 25 52
M  V30 57 1 27 53
M  V30 58 1 29 54
M  V30 59 1 29 55
M  V30 60 1 29 56
M  V30 61 1 32 57
M  V30 62 1 34 58
M  V30 63 1 35 59
M  V30 64 1 36 60
M  V30 65 1 36 61
M  V30 66 1 37 62
M  V30 67 1 37 63
M  V30 END BOND
M  V30 END CTAB
M  END
>  <Dataset>  (427) 
ChEMBL_Kinases

>  <Ligand_Instance>  (427) 
nan

>  <PDB_ID>  (427) 
nan

>  <Standardized_SMILES>  (427) 
CN1CCN(C(=O)c2cccc(-c3cnc4[nH]cc(-c5cc(C#N)cc(NS(C)(=O)=O)c5)c4c3)c2)CC1

>  <Name>  (427) 
nan

>  <Pocket>  (427) 
nan

>  <ATP_Site>  (427) 
nan

>  <Peripheral>  (427) 
nan

>  <Num_H_Atoms_ProtBoundConf>  (427) 
nan

>  <Num_Resolved_Atoms>  (427) 
nan

>  <Num_Not_Resolved_Atoms>  (427) 
nan

$$$$
CHEMBL4791349
     RDKit          3D

  0  0  0  0  0  0  0  0  0  0999 V3000
M  V30 BEGIN CTAB
M  V30 COUNTS 54 58 0 0 0
M  V30 BEGIN ATOM
M  V30 1 C -1.529387 -3.806488 2.626418 0
M  V30 2 C -0.339356 -4.710590 2.391859 0
M  V30 3 N 0.334449 -4.350674 1.152299 0
M  V30 4 C 1.347149 -3.453525 1.011025 0
M  V30 5 C 1.700441 -3.406087 -0.321746 0
M  V30 6 N 2.762415 -2.510881 -0.690384 0
M  V30 7 N 3.906176 -2.797367 -1.287912 0
M  V30 8 C 4.630402 -1.677047 -1.457582 0
M  V30 9 C 3.894360 -0.609820 -0.931526 0
M  V30 10 C 4.090398 0.757020 -0.806955 0
M  V30 11 C 3.120094 1.553163 -0.211388 0
M  V30 12 Cl 3.391025 3.277584 -0.065610 0
M  V30 13 C 1.924225 1.014771 0.279029 0
M  V30 14 C 0.904943 1.896277 0.911901 0
M  V30 15 C -0.093069 2.439888 -0.085926 0
M  V30 16 C -0.901605 1.275353 -0.547830 0
M  V30 17 N -1.541577 0.553465 0.468608 0
M  V30 18 C -2.861007 0.191330 0.240355 0
M  V30 19 C -2.961810 -0.686221 -0.996406 0
M  V30 20 C -3.763604 -0.169967 1.360516 0
M  V30 21 O -4.032797 1.170755 1.571152 0
M  V30 22 C -3.785386 1.390801 0.204240 0
M  V30 23 C -1.025887 0.491931 1.770528 0
M  V30 24 C 0.195359 1.247851 2.061636 0
M  V30 25 C 1.787087 -0.332901 0.129126 0
M  V30 26 C 2.713240 -1.167650 -0.451337 0
M  V30 27 C 0.875331 -4.296862 -0.979076 0
M  V30 28 N 0.068540 -4.843948 -0.056217 0
M  V30 29 H -1.300100 -3.027287 3.388686 0
M  V30 30 H -1.800219 -3.324058 1.674497 0
M  V30 31 H -2.407392 -4.366466 3.040631 0
M  V30 32 H 0.375062 -4.600907 3.235305 0
M  V30 33 H -0.722108 -5.739234 2.302770 0
M  V30 34 H 1.735615 -2.916848 1.887426 0
M  V30 35 H 5.604595 -1.516153 -1.901604 0
M  V30 36 H 5.014201 1.184321 -1.183962 0
M  V30 37 H 1.468969 2.795931 1.283190 0
M  V30 38 H 0.409941 2.918319 -0.930477 0
M  V30 39 H -0.762116 3.105501 0.484537 0
M  V30 40 H -1.703660 1.703279 -1.219355 0
M  V30 41 H -0.259256 0.646894 -1.205905 0
M  V30 42 H -2.419151 -1.627576 -0.752584 0
M  V30 43 H -3.981256 -0.893255 -1.314979 0
M  V30 44 H -2.366764 -0.186827 -1.797213 0
M  V30 45 H -4.699781 -0.644726 0.944612 0
M  V30 46 H -3.337406 -0.736081 2.202329 0
M  V30 47 H -4.696524 1.228365 -0.392251 0
M  V30 48 H -3.247458 2.358985 0.039723 0
M  V30 49 H -1.853496 0.838434 2.459242 0
M  V30 50 H -0.890141 -0.574584 2.053973 0
M  V30 51 H 0.034929 2.033453 2.847134 0
M  V30 52 H 0.984163 0.591659 2.538262 0
M  V30 53 H 0.905481 -0.807069 0.478287 0
M  V30 54 H 0.994681 -4.407687 -2.042369 0
M  V30 END ATOM
M  V30 BEGIN BOND
M  V30 1 1 1 2
M  V30 2 1 2 3
M  V30 3 1 3 4
M  V30 4 2 4 5
M  V30 5 1 5 6
M  V30 6 1 6 7
M  V30 7 2 7 8
M  V30 8 1 8 9
M  V30 9 2 9 10
M  V30 10 1 10 11
M  V30 11 1 11 12
M  V30 12 2 11 13
M  V30 13 1 13 14
M  V30 14 1 14 15
M  V30 15 1 15 16
M  V30 16 1 16 17
M  V30 17 1 17 18
M  V30 18 1 18 19
M  V30 19 1 18 20
M  V30 20 1 20 21
M  V30 21 1 21 22
M  V30 22 1 17 23
M  V30 23 1 23 24
M  V30 24 1 13 25
M  V30 25 2 25 26
M  V30 26 1 5 27
M  V30 27 2 27 28
M  V30 28 1 28 3
M  V30 29 1 26 6
M  V30 30 1 26 9
M  V30 31 1 24 14
M  V30 32 1 22 18
M  V30 33 1 1 29
M  V30 34 1 1 30
M  V30 35 1 1 31
M  V30 36 1 2 32
M  V30 37 1 2 33
M  V30 38 1 4 34
M  V30 39 1 8 35
M  V30 40 1 10 36
M  V30 41 1 14 37
M  V30 42 1 15 38
M  V30 43 1 15 39
M  V30 44 1 16 40
M  V30 45 1 16 41
M  V30 46 1 19 42
M  V30 47 1 19 43
M  V30 48 1 19 44
M  V30 49 1 20 45
M  V30 50 1 20 46
M  V30 51 1 22 47
M  V30 52 1 22 48
M  V30 53 1 23 49
M  V30 54 1 23 50
M  V30 55 1 24 51
M  V30 56 1 24 52
M  V30 57 1 25 53
M  V30 58 1 27 54
M  V30 END BOND
M  V30 END CTAB
M  END
>  <Dataset>  (428) 
ChEMBL_Kinases

>  <Ligand_Instance>  (428) 
nan

>  <PDB_ID>  (428) 
nan

>  <Standardized_SMILES>  (428) 
CCn1cc(-n2ncc3cc(Cl)c(C4CCN(C5(C)COC5)CC4)cc32)cn1

>  <Name>  (428) 
nan

>  <Pocket>  (428) 
nan

>  <ATP_Site>  (428) 
nan

>  <Peripheral>  (428) 
nan

>  <Num_H_Atoms_ProtBoundConf>  (428) 
nan

>  <Num_Resolved_Atoms>  (428) 
nan

>  <Num_Not_Resolved_Atoms>  (428) 
nan

$$$$
CHEMBL4791394
     RDKit          3D

  0  0  0  0  0  0  0  0  0  0999 V3000
M  V30 BEGIN CTAB
M  V30 COUNTS 73 78 0 0 0
M  V30 BEGIN ATOM
M  V30 1 C 4.258314 -3.194834 3.045269 0
M  V30 2 C 3.606241 -2.523640 1.877957 0
M  V30 3 C 4.622740 -1.721876 1.033875 0 CFG=2
M  V30 4 C 5.216410 -0.681646 1.948906 0
M  V30 5 N 6.195127 -0.933142 2.851850 0
M  V30 6 N 6.370206 0.197801 3.533472 0
M  V30 7 C 5.512575 1.148686 3.063039 0
M  V30 8 N 4.792082 0.583914 2.062797 0
M  V30 9 C 3.832111 1.087657 1.160163 0
M  V30 10 C 3.433780 2.386592 1.376207 0
M  V30 11 N 2.493752 2.862929 0.509406 0
M  V30 12 C 2.006044 2.087089 -0.485774 0
M  V30 13 N 1.034929 2.812447 -1.222710 0
M  V30 14 C -0.345653 2.421197 -1.069192 0
M  V30 15 C -0.664616 1.289754 -0.307588 0
M  V30 16 C -1.941315 0.807106 -0.112085 0
M  V30 17 C -2.979952 1.488488 -0.709505 0
M  V30 18 C -4.380764 1.083061 -0.611233 0
M  V30 19 O -5.379058 1.707813 -1.003643 0
M  V30 20 N -4.685569 -0.164496 -0.006707 0
M  V30 21 C -5.984842 -0.800767 0.214430 0
M  V30 22 C -6.166667 -1.932782 -0.772438 0
M  V30 23 C -6.320046 -3.278913 -0.145326 0
M  V30 24 N -5.339386 -3.376186 0.895836 0
M  V30 25 C -5.012255 -4.709640 1.286547 0
M  V30 26 C -5.638266 -2.523063 2.020527 0
M  V30 27 C -6.204816 -1.193442 1.631975 0
M  V30 28 C -2.687527 2.604642 -1.462092 0
M  V30 29 C -1.418261 3.078200 -1.652368 0
M  V30 30 O -1.103133 4.200036 -2.405417 0
M  V30 31 C -2.159918 4.912534 -3.024365 0
M  V30 32 N 2.411209 0.822048 -0.676861 0
M  V30 33 C 3.334005 0.279980 0.135542 0
M  V30 34 N 3.831651 -1.064189 0.020804 0
M  V30 35 C 3.442271 -1.641452 -1.259160 0
M  V30 36 C 4.086900 -2.966777 -1.405863 0
M  V30 37 C 3.894932 -4.314070 -1.190451 0
M  V30 38 C 5.007745 -5.021425 -1.593812 0
M  V30 39 O 5.883714 -4.157451 -2.051917 0
M  V30 40 C 5.376808 -2.934950 -1.958111 0
M  V30 41 H 3.527540 -3.899636 3.481922 0
M  V30 42 H 5.210954 -3.685343 2.797051 0
M  V30 43 H 4.420616 -2.409624 3.835219 0
M  V30 44 H 3.015151 -3.160741 1.223163 0
M  V30 45 H 2.894431 -1.728461 2.258044 0
M  V30 46 H 5.382500 -2.369089 0.601415 0
M  V30 47 H 5.442202 2.168445 3.440461 0
M  V30 48 H 3.843517 2.992324 2.183322 0
M  V30 49 H 1.216626 3.594943 -1.861549 0
M  V30 50 H 0.162898 0.745376 0.170695 0
M  V30 51 H -2.136381 -0.068280 0.482829 0
M  V30 52 H -4.001151 -0.844661 0.385774 0
M  V30 53 H -6.751162 -0.050071 -0.070826 0
M  V30 54 H -5.238189 -1.976552 -1.400912 0
M  V30 55 H -6.976064 -1.726533 -1.518331 0
M  V30 56 H -7.347259 -3.555365 0.141184 0
M  V30 57 H -6.020579 -4.030408 -0.926764 0
M  V30 58 H -5.181097 -4.872922 2.351068 0
M  V30 59 H -5.491082 -5.489301 0.655066 0
M  V30 60 H -3.909467 -4.846788 1.109316 0
M  V30 61 H -4.699648 -2.443762 2.622009 0
M  V30 62 H -6.358316 -3.073490 2.661028 0
M  V30 63 H -7.288110 -1.166397 1.913998 0
M  V30 64 H -5.722654 -0.427758 2.276609 0
M  V30 65 H -3.444970 3.198119 -1.963536 0
M  V30 66 H -1.775645 5.682885 -3.734328 0
M  V30 67 H -2.869630 4.300925 -3.578072 0
M  V30 68 H -2.700927 5.496074 -2.245684 0
M  V30 69 H 2.333855 -1.839896 -1.270162 0
M  V30 70 H 3.630676 -0.970742 -2.094308 0
M  V30 71 H 2.915467 -4.527235 -0.750759 0
M  V30 72 H 4.867667 -6.080126 -1.429845 0
M  V30 73 H 6.057460 -2.168767 -2.323959 0
M  V30 END ATOM
M  V30 BEGIN BOND
M  V30 1 1 1 2
M  V30 2 1 2 3
M  V30 3 1 3 4
M  V30 4 2 4 5
M  V30 5 1 5 6
M  V30 6 2 6 7
M  V30 7 1 7 8
M  V30 8 1 8 9
M  V30 9 2 9 10
M  V30 10 1 10 11
M  V30 11 2 11 12
M  V30 12 1 12 13
M  V30 13 1 13 14
M  V30 14 2 14 15
M  V30 15 1 15 16
M  V30 16 2 16 17
M  V30 17 1 17 18
M  V30 18 2 18 19
M  V30 19 1 18 20
M  V30 20 1 20 21
M  V30 21 1 21 22
M  V30 22 1 22 23
M  V30 23 1 23 24
M  V30 24 1 24 25
M  V30 25 1 24 26
M  V30 26 1 26 27
M  V30 27 1 17 28
M  V30 28 2 28 29
M  V30 29 1 29 30
M  V30 30 1 30 31
M  V30 31 1 12 32
M  V30 32 2 32 33
M  V30 33 1 33 34
M  V30 34 1 34 35
M  V30 35 1 35 36
M  V30 36 1 36 37
M  V30 37 2 37 38
M  V30 38 1 38 39
M  V30 39 1 39 40
M  V30 40 1 34 3
M  V30 41 2 40 36
M  V30 42 1 8 4
M  V30 43 1 33 9
M  V30 44 1 29 14
M  V30 45 1 27 21
M  V30 46 1 1 41
M  V30 47 1 1 42
M  V30 48 1 1 43
M  V30 49 1 2 44
M  V30 50 1 2 45
M  V30 51 1 3 46 CFG=3
M  V30 52 1 7 47
M  V30 53 1 10 48
M  V30 54 1 13 49
M  V30 55 1 15 50
M  V30 56 1 16 51
M  V30 57 1 20 52
M  V30 58 1 21 53
M  V30 59 1 22 54
M  V30 60 1 22 55
M  V30 61 1 23 56
M  V30 62 1 23 57
M  V30 63 1 25 58
M  V30 64 1 25 59
M  V30 65 1 25 60
M  V30 66 1 26 61
M  V30 67 1 26 62
M  V30 68 1 27 63
M  V30 69 1 27 64
M  V30 70 1 28 65
M  V30 71 1 31 66
M  V30 72 1 31 67
M  V30 73 1 31 68
M  V30 74 1 35 69
M  V30 75 1 35 70
M  V30 76 1 37 71
M  V30 77 1 38 72
M  V30 78 1 40 73
M  V30 END BOND
M  V30 END CTAB
M  END
>  <Dataset>  (429) 
ChEMBL_Kinases

>  <Ligand_Instance>  (429) 
nan

>  <PDB_ID>  (429) 
nan

>  <Standardized_SMILES>  (429) 
CC[C@@H]1c2nncn2-c2cnc(Nc3ccc(C(=O)NC4CCN(C)CC4)cc3OC)nc2N1Cc1ccoc1

>  <Name>  (429) 
nan

>  <Pocket>  (429) 
nan

>  <ATP_Site>  (429) 
nan

>  <Peripheral>  (429) 
nan

>  <Num_H_Atoms_ProtBoundConf>  (429) 
nan

>  <Num_Resolved_Atoms>  (429) 
nan

>  <Num_Not_Resolved_Atoms>  (429) 
nan

$$$$
CHEMBL4791414
     RDKit          3D

  0  0  0  0  0  0  0  0  0  0999 V3000
M  V30 BEGIN CTAB
M  V30 COUNTS 55 59 0 0 0
M  V30 BEGIN ATOM
M  V30 1 C 3.438607 -2.057832 3.316408 0
M  V30 2 N 2.288594 -2.427504 2.508346 0
M  V30 3 C 1.402589 -1.471503 2.096277 0
M  V30 4 C 0.438368 -2.169339 1.353674 0
M  V30 5 C -0.728197 -1.527701 0.706297 0
M  V30 6 N -0.351186 -0.386146 0.043093 0
M  V30 7 C -1.278403 0.343907 -0.610547 0
M  V30 8 C -1.176021 1.518511 -1.350288 0
M  V30 9 C 0.071189 2.257665 -1.581388 0
M  V30 10 C 0.396982 2.734809 -2.858827 0
M  V30 11 C 1.580370 3.417182 -2.989543 0
M  V30 12 N 2.432034 3.648493 -1.969373 0
M  V30 13 C 2.148566 3.203488 -0.730426 0
M  V30 14 O 2.979692 3.406959 0.360169 0
M  V30 15 C 4.196215 4.081902 0.339519 0
M  V30 16 C 4.417498 4.968156 1.564071 0
M  V30 17 C 5.293318 3.769765 1.287592 0
M  V30 18 C 0.976521 2.518514 -0.561419 0
M  V30 19 C -2.446613 1.822596 -1.796746 0
M  V30 20 N -3.250104 0.847183 -1.323512 0
M  V30 21 N -2.569681 -0.023136 -0.626869 0
M  V30 22 C -2.921541 -1.139419 0.025237 0
M  V30 23 C -2.060559 -1.949765 0.716996 0
M  V30 24 O -2.121517 -3.071424 1.430632 0
M  V30 25 C -3.054981 -3.977779 1.823185 0
M  V30 26 C -3.785651 -4.762841 0.787308 0
M  V30 27 C -2.771186 -5.576151 -0.031024 0
M  V30 28 C -4.738624 -5.778234 1.425779 0
M  V30 29 O -4.531317 -4.051463 -0.112490 0
M  V30 30 C 0.809289 -3.516126 1.365499 0
M  V30 31 N 1.943678 -3.628535 2.081201 0
M  V30 32 H 4.057965 -2.922847 3.587283 0
M  V30 33 H 3.059673 -1.487659 4.194803 0
M  V30 34 H 4.123999 -1.344380 2.772895 0
M  V30 35 H 1.436015 -0.410144 2.297225 0
M  V30 36 H -0.270940 2.564668 -3.704685 0
M  V30 37 H 1.849826 3.792611 -3.962534 0
M  V30 38 H 4.495279 4.482362 -0.648185 0
M  V30 39 H 4.814804 5.988671 1.362794 0
M  V30 40 H 3.734337 4.861680 2.426808 0
M  V30 41 H 5.208435 2.870996 1.897968 0
M  V30 42 H 6.322214 4.039287 0.980468 0
M  V30 43 H 0.661564 2.118901 0.407552 0
M  V30 44 H -2.666170 2.693278 -2.403156 0
M  V30 45 H -3.931816 -1.473519 0.056977 0
M  V30 46 H -3.854448 -3.412793 2.406692 0
M  V30 47 H -2.609631 -4.723416 2.554380 0
M  V30 48 H -1.889270 -5.829615 0.607015 0
M  V30 49 H -2.375820 -4.990808 -0.887694 0
M  V30 50 H -3.247501 -6.481847 -0.455916 0
M  V30 51 H -4.879717 -5.502280 2.493686 0
M  V30 52 H -4.242075 -6.768707 1.421340 0
M  V30 53 H -5.679267 -5.846847 0.876093 0
M  V30 54 H -5.448999 -3.910689 0.262592 0
M  V30 55 H 0.248693 -4.272072 0.874017 0
M  V30 END ATOM
M  V30 BEGIN BOND
M  V30 1 1 1 2
M  V30 2 1 2 3
M  V30 3 2 3 4
M  V30 4 1 4 5
M  V30 5 2 5 6
M  V30 6 1 6 7
M  V30 7 2 7 8
M  V30 8 1 8 9
M  V30 9 2 9 10
M  V30 10 1 10 11
M  V30 11 2 11 12
M  V30 12 1 12 13
M  V30 13 1 13 14
M  V30 14 1 14 15
M  V30 15 1 15 16
M  V30 16 1 16 17
M  V30 17 2 13 18
M  V30 18 1 8 19
M  V30 19 2 19 20
M  V30 20 1 20 21
M  V30 21 1 21 22
M  V30 22 2 22 23
M  V30 23 1 23 24
M  V30 24 1 24 25
M  V30 25 1 25 26
M  V30 26 1 26 27
M  V30 27 1 26 28
M  V30 28 1 26 29
M  V30 29 1 4 30
M  V30 30 2 30 31
M  V30 31 1 31 2
M  V30 32 1 23 5
M  V30 33 1 21 7
M  V30 34 1 18 9
M  V30 35 1 17 15
M  V30 36 1 1 32
M  V30 37 1 1 33
M  V30 38 1 1 34
M  V30 39 1 3 35
M  V30 40 1 10 36
M  V30 41 1 11 37
M  V30 42 1 15 38
M  V30 43 1 16 39
M  V30 44 1 16 40
M  V30 45 1 17 41
M  V30 46 1 17 42
M  V30 47 1 18 43
M  V30 48 1 19 44
M  V30 49 1 22 45
M  V30 50 1 25 46
M  V30 51 1 25 47
M  V30 52 1 27 48
M  V30 53 1 27 49
M  V30 54 1 27 50
M  V30 55 1 28 51
M  V30 56 1 28 52
M  V30 57 1 28 53
M  V30 58 1 29 54
M  V30 59 1 30 55
M  V30 END BOND
M  V30 END CTAB
M  END
>  <Dataset>  (430) 
ChEMBL_Kinases

>  <Ligand_Instance>  (430) 
nan

>  <PDB_ID>  (430) 
nan

>  <Standardized_SMILES>  (430) 
Cn1cc(-c2nc3c(-c4ccnc(OC5CC5)c4)cnn3cc2OCC(C)(C)O)cn1

>  <Name>  (430) 
nan

>  <Pocket>  (430) 
nan

>  <ATP_Site>  (430) 
nan

>  <Peripheral>  (430) 
nan

>  <Num_H_Atoms_ProtBoundConf>  (430) 
nan

>  <Num_Resolved_Atoms>  (430) 
nan

>  <Num_Not_Resolved_Atoms>  (430) 
nan

$$$$
CHEMBL4791513
     RDKit          3D

  0  0  0  0  0  0  0  0  0  0999 V3000
M  V30 BEGIN CTAB
M  V30 COUNTS 58 61 0 0 0
M  V30 BEGIN ATOM
M  V30 1 C 3.379189 -3.199011 0.076433 0
M  V30 2 C 3.227432 -2.196688 1.212111 0
M  V30 3 C 4.370496 -1.199983 1.257269 0
M  V30 4 S 4.171716 -0.066459 2.610015 0
M  V30 5 O 5.385208 0.849778 2.643833 0
M  V30 6 O 4.212754 -0.861761 3.887579 0
M  V30 7 N 2.728625 0.853746 2.513716 0
M  V30 8 C 2.257830 1.781674 1.568631 0
M  V30 9 C 3.169619 2.110987 0.596288 0
M  V30 10 C 2.939313 3.035330 -0.431000 0
M  V30 11 C 1.689258 3.620024 -0.406770 0
M  V30 12 F 1.354567 4.521641 -1.338745 0
M  V30 13 C 0.757395 3.310392 0.552207 0
M  V30 14 C -0.517747 3.982935 0.611809 0
M  V30 15 O -0.434094 5.160272 0.150161 0
M  V30 16 C -1.829040 3.626369 1.066377 0
M  V30 17 N -2.744754 4.441353 1.566264 0
M  V30 18 N -3.855699 3.780974 1.823136 0
M  V30 19 C -3.655576 2.480115 1.473519 0
M  V30 20 N -4.583446 1.476445 1.570940 0
M  V30 21 C -4.202508 0.234925 1.144730 0
M  V30 22 C -2.933280 0.050775 0.647987 0
M  V30 23 C -2.522689 -1.273985 0.173380 0
M  V30 24 C -1.253265 -1.839704 0.191793 0
M  V30 25 C -1.054824 -3.113077 -0.315275 0
M  V30 26 C -2.093768 -3.858042 -0.848206 0
M  V30 27 N -1.838622 -5.162709 -1.353666 0
M  V30 28 C -0.511049 -5.758232 -1.339870 0
M  V30 29 C -2.931998 -5.964086 -1.909761 0
M  V30 30 C -3.373504 -3.354524 -0.897420 0
M  V30 31 C -3.541030 -2.067650 -0.378472 0
M  V30 32 C -2.037687 1.094311 0.573144 0
M  V30 33 C -2.370600 2.359769 0.988115 0
M  V30 34 C 1.014960 2.393953 1.551730 0
M  V30 35 F 0.204614 2.007571 2.560785 0
M  V30 36 H 3.426506 -2.743909 -0.905645 0
M  V30 37 H 4.271186 -3.835309 0.251117 0
M  V30 38 H 2.511160 -3.871004 0.136967 0
M  V30 39 H 2.279339 -1.667791 1.117304 0
M  V30 40 H 3.166235 -2.801129 2.152385 0
M  V30 41 H 5.319931 -1.760095 1.353037 0
M  V30 42 H 4.383951 -0.678986 0.277242 0
M  V30 43 H 2.026596 0.719708 3.307280 0
M  V30 44 H 4.176844 1.674312 0.537869 0
M  V30 45 H 3.678489 3.256910 -1.165086 0
M  V30 46 H -4.658467 4.328437 2.226060 0
M  V30 47 H -4.948551 -0.546001 1.229670 0
M  V30 48 H -0.499466 -1.189085 0.630336 0
M  V30 49 H -0.026124 -3.468234 -0.249894 0
M  V30 50 H 0.162978 -5.082033 -1.947390 0
M  V30 51 H -0.490367 -6.732206 -1.885550 0
M  V30 52 H -0.143766 -5.919198 -0.325179 0
M  V30 53 H -3.589609 -6.284079 -1.071085 0
M  V30 54 H -3.552780 -5.301392 -2.575232 0
M  V30 55 H -2.523906 -6.816790 -2.451853 0
M  V30 56 H -4.222957 -3.878920 -1.300387 0
M  V30 57 H -4.551431 -1.683900 -0.426073 0
M  V30 58 H -1.028980 0.985416 0.178607 0
M  V30 END ATOM
M  V30 BEGIN BOND
M  V30 1 1 1 2
M  V30 2 1 2 3
M  V30 3 1 3 4
M  V30 4 2 4 5
M  V30 5 2 4 6
M  V30 6 1 4 7
M  V30 7 1 7 8
M  V30 8 2 8 9
M  V30 9 1 9 10
M  V30 10 2 10 11
M  V30 11 1 11 12
M  V30 12 1 11 13
M  V30 13 1 13 14
M  V30 14 2 14 15
M  V30 15 1 14 16
M  V30 16 2 16 17
M  V30 17 1 17 18
M  V30 18 1 18 19
M  V30 19 2 19 20
M  V30 20 1 20 21
M  V30 21 2 21 22
M  V30 22 1 22 23
M  V30 23 2 23 24
M  V30 24 1 24 25
M  V30 25 2 25 26
M  V30 26 1 26 27
M  V30 27 1 27 28
M  V30 28 1 27 29
M  V30 29 1 26 30
M  V30 30 2 30 31
M  V30 31 1 22 32
M  V30 32 2 32 33
M  V30 33 2 13 34
M  V30 34 1 34 35
M  V30 35 1 34 8
M  V30 36 1 33 16
M  V30 37 1 33 19
M  V30 38 1 31 23
M  V30 39 1 1 36
M  V30 40 1 1 37
M  V30 41 1 1 38
M  V30 42 1 2 39
M  V30 43 1 2 40
M  V30 44 1 3 41
M  V30 45 1 3 42
M  V30 46 1 7 43
M  V30 47 1 9 44
M  V30 48 1 10 45
M  V30 49 1 18 46
M  V30 50 1 21 47
M  V30 51 1 24 48
M  V30 52 1 25 49
M  V30 53 1 28 50
M  V30 54 1 28 51
M  V30 55 1 28 52
M  V30 56 1 29 53
M  V30 57 1 29 54
M  V30 58 1 29 55
M  V30 59 1 30 56
M  V30 60 1 31 57
M  V30 61 1 32 58
M  V30 END BOND
M  V30 END CTAB
M  END
>  <Dataset>  (431) 
ChEMBL_Kinases

>  <Ligand_Instance>  (431) 
nan

>  <PDB_ID>  (431) 
nan

>  <Standardized_SMILES>  (431) 
CCCS(=O)(=O)Nc1ccc(F)c(C(=O)c2n[nH]c3ncc(-c4ccc(N(C)C)cc4)cc23)c1F

>  <Name>  (431) 
nan

>  <Pocket>  (431) 
nan

>  <ATP_Site>  (431) 
nan

>  <Peripheral>  (431) 
nan

>  <Num_H_Atoms_ProtBoundConf>  (431) 
nan

>  <Num_Resolved_Atoms>  (431) 
nan

>  <Num_Not_Resolved_Atoms>  (431) 
nan

$$$$
CHEMBL4791615
     RDKit          3D

  0  0  0  0  0  0  0  0  0  0999 V3000
M  V30 BEGIN CTAB
M  V30 COUNTS 54 57 0 0 0
M  V30 BEGIN ATOM
M  V30 1 C -1.200778 0.609376 2.888983 0
M  V30 2 O 0.149109 1.014540 2.747527 0
M  V30 3 C 1.209098 0.194321 3.119896 0
M  V30 4 C 0.994123 -1.041774 3.648982 0
M  V30 5 C 1.978741 -1.908957 4.047129 0
M  V30 6 C 3.284834 -1.457342 3.885509 0
M  V30 7 C 3.488001 -0.208874 3.350751 0
M  V30 8 C 2.508385 0.674633 2.943057 0
M  V30 9 C 2.868108 1.964734 2.298650 0
M  V30 10 N 3.136311 1.887160 0.911010 0
M  V30 11 C 2.454589 1.235866 -0.088565 0
M  V30 12 N 3.270620 1.670786 -1.141577 0
M  V30 13 C 3.149239 1.385956 -2.449769 0
M  V30 14 C 2.092747 0.552720 -2.857163 0
M  V30 15 N 1.197777 0.032555 -1.945894 0
M  V30 16 C 0.103093 -0.825405 -1.969628 0
M  V30 17 C -1.192804 -0.550531 -1.619173 0
M  V30 18 C -2.068658 -1.607303 -1.657698 0
M  V30 19 C -3.454642 -1.366655 -1.284027 0
M  V30 20 O -4.327318 -0.822142 -2.038482 0
M  V30 21 N -3.898028 -1.754749 0.021579 0
M  V30 22 C -5.198485 -1.650490 0.669888 0
M  V30 23 C -5.274672 -1.145677 2.075966 0
M  V30 24 C -5.492136 -2.633221 1.763995 0
M  V30 25 C -1.727613 -2.917216 -2.026069 0
M  V30 26 C -0.411184 -3.149630 -2.374315 0
M  V30 27 C 0.517563 -2.099155 -2.348229 0
M  V30 28 C 1.894894 -2.512238 -2.754364 0
M  V30 29 C 1.855302 0.661952 -0.975103 0
M  V30 30 O 1.038312 0.220652 0.056675 0
M  V30 31 H -1.860553 1.504806 2.848961 0
M  V30 32 H -1.459558 -0.119838 2.099332 0
M  V30 33 H -1.336944 0.142729 3.910679 0
M  V30 34 H -0.034126 -1.407155 3.775962 0
M  V30 35 H 1.820164 -2.889091 4.464869 0
M  V30 36 H 4.108133 -2.110493 4.188905 0
M  V30 37 H 4.539578 0.079967 3.250343 0
M  V30 38 H 2.019448 2.725028 2.502977 0
M  V30 39 H 3.687868 2.385097 2.912559 0
M  V30 40 H 4.012711 2.495561 0.920298 0
M  V30 41 H 3.801797 1.676949 -3.325214 0
M  V30 42 H 1.904454 0.268072 -3.903633 0
M  V30 43 H -1.423836 0.461749 -1.341505 0
M  V30 44 H -3.157415 -2.185968 0.631807 0
M  V30 45 H -6.004285 -1.300513 0.001682 0
M  V30 46 H -6.211934 -0.648925 2.377417 0
M  V30 47 H -4.336661 -0.882155 2.629064 0
M  V30 48 H -4.633599 -3.322093 2.041106 0
M  V30 49 H -6.507845 -3.047361 1.797588 0
M  V30 50 H -2.496562 -3.685895 -2.023128 0
M  V30 51 H -0.180717 -4.152191 -2.648810 0
M  V30 52 H 2.097052 -3.541387 -2.394631 0
M  V30 53 H 1.920039 -2.578818 -3.870727 0
M  V30 54 H 2.679221 -1.845420 -2.336743 0
M  V30 END ATOM
M  V30 BEGIN BOND
M  V30 1 1 1 2
M  V30 2 1 2 3
M  V30 3 2 3 4
M  V30 4 1 4 5
M  V30 5 2 5 6
M  V30 6 1 6 7
M  V30 7 2 7 8
M  V30 8 1 8 9
M  V30 9 1 9 10
M  V30 10 1 10 11
M  V30 11 2 11 12
M  V30 12 1 12 13
M  V30 13 2 13 14
M  V30 14 1 14 15
M  V30 15 1 15 16
M  V30 16 2 16 17
M  V30 17 1 17 18
M  V30 18 1 18 19
M  V30 19 2 19 20
M  V30 20 1 19 21
M  V30 21 1 21 22
M  V30 22 1 22 23
M  V30 23 1 23 24
M  V30 24 2 18 25
M  V30 25 1 25 26
M  V30 26 2 26 27
M  V30 27 1 27 28
M  V30 28 1 15 29
M  V30 29 2 29 30
M  V30 30 1 8 3
M  V30 31 1 29 11
M  V30 32 1 27 16
M  V30 33 1 24 22
M  V30 34 1 1 31
M  V30 35 1 1 32
M  V30 36 1 1 33
M  V30 37 1 4 34
M  V30 38 1 5 35
M  V30 39 1 6 36
M  V30 40 1 7 37
M  V30 41 1 9 38
M  V30 42 1 9 39
M  V30 43 1 10 40
M  V30 44 1 13 41
M  V30 45 1 14 42
M  V30 46 1 17 43
M  V30 47 1 21 44
M  V30 48 1 22 45
M  V30 49 1 23 46
M  V30 50 1 23 47
M  V30 51 1 24 48
M  V30 52 1 24 49
M  V30 53 1 25 50
M  V30 54 1 26 51
M  V30 55 1 28 52
M  V30 56 1 28 53
M  V30 57 1 28 54
M  V30 END BOND
M  V30 END CTAB
M  END
>  <Dataset>  (432) 
ChEMBL_Kinases

>  <Ligand_Instance>  (432) 
nan

>  <PDB_ID>  (432) 
nan

>  <Standardized_SMILES>  (432) 
COc1ccccc1CNc1nccn(-c2cc(C(=O)NC3CC3)ccc2C)c1=O

>  <Name>  (432) 
nan

>  <Pocket>  (432) 
nan

>  <ATP_Site>  (432) 
nan

>  <Peripheral>  (432) 
nan

>  <Num_H_Atoms_ProtBoundConf>  (432) 
nan

>  <Num_Resolved_Atoms>  (432) 
nan

>  <Num_Not_Resolved_Atoms>  (432) 
nan

$$$$
CHEMBL4793210
     RDKit          3D

  0  0  0  0  0  0  0  0  0  0999 V3000
M  V30 BEGIN CTAB
M  V30 COUNTS 42 45 0 0 0
M  V30 BEGIN ATOM
M  V30 1 O 1.902678 -2.626732 -2.166079 0
M  V30 2 C 2.354126 -1.746015 -1.389367 0
M  V30 3 C 3.595306 -1.637610 -0.627693 0
M  V30 4 C 3.448670 -2.199628 0.636393 0
M  V30 5 C 4.501255 -2.214416 1.545092 0
M  V30 6 C 5.699963 -1.654196 1.157281 0
M  V30 7 C 5.849293 -1.095950 -0.095278 0
M  V30 8 Cl 7.343150 -0.363510 -0.663130 0
M  V30 9 C 4.803806 -1.082307 -0.995249 0
M  V30 10 Cl 4.818619 -0.422822 -2.608747 0
M  V30 11 N 1.464159 -0.642154 -1.233719 0
M  V30 12 C 0.163777 -0.562028 -1.916631 0
M  V30 13 C -0.965482 -0.312589 -0.966138 0
M  V30 14 C -0.646585 0.714600 0.081664 0
M  V30 15 N -1.703490 0.948598 1.005204 0
M  V30 16 C -2.217897 -0.089924 1.829648 0
M  V30 17 N -1.760754 -1.355403 1.810023 0
M  V30 18 C -2.274273 -2.308848 2.605933 0
M  V30 19 N -3.274060 -2.068526 3.472342 0
M  V30 20 C -3.785388 -0.845978 3.557152 0
M  V30 21 N -4.766542 -0.284614 4.301325 0
M  V30 22 N -4.859425 0.998937 3.970850 0
M  V30 23 C -3.948067 1.284112 3.016785 0
M  V30 24 C -3.243191 0.115722 2.731469 0
M  V30 25 C 0.669768 0.379069 0.730185 0
M  V30 26 C 1.696706 0.538698 -0.401739 0
M  V30 27 H 2.548653 -2.667269 1.043496 0
M  V30 28 H 4.422471 -2.646049 2.543977 0
M  V30 29 H 6.578921 -1.614677 1.788247 0
M  V30 30 H 0.246265 0.340127 -2.557310 0
M  V30 31 H -0.004337 -1.422588 -2.562616 0
M  V30 32 H -1.209005 -1.276645 -0.500594 0
M  V30 33 H -1.844223 -0.036033 -1.584579 0
M  V30 34 H -0.444545 1.661055 -0.491954 0
M  V30 35 H -2.140072 1.891274 1.111401 0
M  V30 36 H -1.874933 -3.326568 2.560217 0
M  V30 37 H -5.299142 -0.867404 4.994461 0
M  V30 38 H -3.820578 2.279832 2.571891 0
M  V30 39 H 0.915746 1.037498 1.570335 0
M  V30 40 H 0.770113 -0.655808 1.068570 0
M  V30 41 H 1.479503 1.483273 -0.980957 0
M  V30 42 H 2.673933 0.560951 0.069552 0
M  V30 END ATOM
M  V30 BEGIN BOND
M  V30 1 2 1 2
M  V30 2 1 2 3
M  V30 3 2 3 4
M  V30 4 1 4 5
M  V30 5 2 5 6
M  V30 6 1 6 7
M  V30 7 1 7 8
M  V30 8 2 7 9
M  V30 9 1 9 10
M  V30 10 1 2 11
M  V30 11 1 11 12
M  V30 12 1 12 13
M  V30 13 1 13 14
M  V30 14 1 14 15
M  V30 15 1 15 16
M  V30 16 2 16 17
M  V30 17 1 17 18
M  V30 18 2 18 19
M  V30 19 1 19 20
M  V30 20 1 20 21
M  V30 21 1 21 22
M  V30 22 2 22 23
M  V30 23 1 23 24
M  V30 24 1 14 25
M  V30 25 1 25 26
M  V30 26 1 9 3
M  V30 27 1 26 11
M  V30 28 1 24 16
M  V30 29 2 24 20
M  V30 30 1 4 27
M  V30 31 1 5 28
M  V30 32 1 6 29
M  V30 33 1 12 30
M  V30 34 1 12 31
M  V30 35 1 13 32
M  V30 36 1 13 33
M  V30 37 1 14 34
M  V30 38 1 15 35
M  V30 39 1 18 36
M  V30 40 1 21 37
M  V30 41 1 23 38
M  V30 42 1 25 39
M  V30 43 1 25 40
M  V30 44 1 26 41
M  V30 45 1 26 42
M  V30 END BOND
M  V30 END CTAB
M  END
>  <Dataset>  (433) 
ChEMBL_Kinases

>  <Ligand_Instance>  (433) 
nan

>  <PDB_ID>  (433) 
nan

>  <Standardized_SMILES>  (433) 
O=C(c1cccc(Cl)c1Cl)N1CCC(Nc2ncnc3[nH]ncc23)CC1

>  <Name>  (433) 
nan

>  <Pocket>  (433) 
nan

>  <ATP_Site>  (433) 
nan

>  <Peripheral>  (433) 
nan

>  <Num_H_Atoms_ProtBoundConf>  (433) 
nan

>  <Num_Resolved_Atoms>  (433) 
nan

>  <Num_Not_Resolved_Atoms>  (433) 
nan

$$$$
CHEMBL4791654
     RDKit          3D

  0  0  0  0  0  0  0  0  0  0999 V3000
M  V30 BEGIN CTAB
M  V30 COUNTS 77 81 0 0 0
M  V30 BEGIN ATOM
M  V30 1 C 1.198824 -4.347205 4.342115 0
M  V30 2 C 2.283861 -3.782927 5.246171 0
M  V30 3 C 1.624437 -2.890196 6.263109 0
M  V30 4 C 2.900387 -4.967928 5.950620 0
M  V30 5 C 3.243676 -3.059114 4.389679 0
M  V30 6 C 4.302374 -3.788683 3.892678 0
M  V30 7 C 5.200935 -3.114269 3.091311 0
M  V30 8 C 5.127211 -1.779668 2.749342 0
M  V30 9 N 6.093412 -1.150176 1.914112 0
M  V30 10 C 5.899900 0.242137 1.629446 0
M  V30 11 C 5.126095 0.487037 0.517799 0
M  V30 12 C 4.836514 1.769858 0.096769 0
M  V30 13 C 4.010274 1.992057 -1.085340 0
M  V30 14 N 3.904257 2.953918 -2.018327 0
M  V30 15 O 2.983102 2.655501 -2.876362 0
M  V30 16 C 2.429916 1.505953 -2.579389 0
M  V30 17 C 1.377062 0.671789 -3.147524 0
M  V30 18 C 0.967227 -0.559064 -2.622272 0
M  V30 19 C -0.043226 -1.238595 -3.265565 0
M  V30 20 C -0.688261 -0.810214 -4.385891 0
M  V30 21 N -1.701098 -1.636611 -4.909729 0
M  V30 22 S -2.907857 -2.395505 -3.939205 0
M  V30 23 O -3.789264 -3.225423 -4.855272 0
M  V30 24 O -2.219216 -3.374322 -3.030198 0
M  V30 25 C -3.914456 -1.269228 -3.089172 0
M  V30 26 C -5.078675 -0.829144 -3.703032 0
M  V30 27 C -5.910204 0.074610 -3.050332 0
M  V30 28 C -5.621354 0.572297 -1.774666 0
M  V30 29 C -6.617112 1.519649 -1.238048 0
M  V30 30 C -7.698450 0.803859 -0.446954 0
M  V30 31 C -5.933728 2.495419 -0.311912 0
M  V30 32 C -7.281086 2.281802 -2.363138 0
M  V30 33 C -4.458646 0.118787 -1.187231 0
M  V30 34 C -3.633791 -0.776601 -1.832323 0
M  V30 35 C -0.288419 0.405324 -4.910620 0
M  V30 36 C 0.735293 1.129092 -4.287836 0
M  V30 37 N 3.074609 1.105251 -1.468524 0
M  V30 38 C 5.363003 2.812238 0.847953 0
M  V30 39 C 6.146075 2.544026 1.972769 0
M  V30 40 N 6.406392 1.257618 2.352012 0
M  V30 41 C 4.045476 -1.101206 3.277088 0
M  V30 42 C 3.097851 -1.714664 4.093573 0
M  V30 43 H 0.864824 -3.598372 3.595532 0
M  V30 44 H 1.535273 -5.249283 3.791014 0
M  V30 45 H 0.301040 -4.617442 4.936942 0
M  V30 46 H 2.219665 -1.983162 6.481752 0
M  V30 47 H 0.653019 -2.522461 5.835209 0
M  V30 48 H 1.367225 -3.427101 7.200430 0
M  V30 49 H 2.155132 -5.302823 6.714270 0
M  V30 50 H 3.016914 -5.802303 5.230306 0
M  V30 51 H 3.815816 -4.725505 6.507716 0
M  V30 52 H 4.444969 -4.844932 4.106566 0
M  V30 53 H 6.044069 -3.700331 2.697148 0
M  V30 54 H 6.875534 -1.740707 1.565433 0
M  V30 55 H 4.703496 -0.304037 -0.085946 0
M  V30 56 H 1.498018 -0.859323 -1.743202 0
M  V30 57 H -0.242921 -2.174299 -2.735009 0
M  V30 58 H -1.589653 -1.700621 -5.947729 0
M  V30 59 H -5.333144 -1.194379 -4.689209 0
M  V30 60 H -6.804623 0.373601 -3.595514 0
M  V30 61 H -7.238430 0.085511 0.262841 0
M  V30 62 H -8.158503 1.587118 0.201929 0
M  V30 63 H -8.483454 0.362902 -1.078201 0
M  V30 64 H -6.510328 3.434228 -0.168310 0
M  V30 65 H -4.889850 2.714986 -0.671123 0
M  V30 66 H -5.832618 2.009537 0.678223 0
M  V30 67 H -6.547203 2.384080 -3.192101 0
M  V30 68 H -7.508564 3.315319 -2.016828 0
M  V30 69 H -8.220491 1.783945 -2.645229 0
M  V30 70 H -4.270271 0.520387 -0.213943 0
M  V30 71 H -2.726493 -1.111865 -1.338458 0
M  V30 72 H -0.799498 0.745867 -5.799004 0
M  V30 73 H 1.020833 2.084620 -4.734842 0
M  V30 74 H 5.169198 3.828285 0.565804 0
M  V30 75 H 6.575648 3.322612 2.586282 0
M  V30 76 H 3.902468 -0.049875 3.065823 0
M  V30 77 H 2.261323 -1.144646 4.489422 0
M  V30 END ATOM
M  V30 BEGIN BOND
M  V30 1 1 1 2
M  V30 2 1 2 3
M  V30 3 1 2 4
M  V30 4 1 2 5
M  V30 5 2 5 6
M  V30 6 1 6 7
M  V30 7 2 7 8
M  V30 8 1 8 9
M  V30 9 1 9 10
M  V30 10 2 10 11
M  V30 11 1 11 12
M  V30 12 1 12 13
M  V30 13 2 13 14
M  V30 14 1 14 15
M  V30 15 1 15 16
M  V30 16 1 16 17
M  V30 17 2 17 18
M  V30 18 1 18 19
M  V30 19 2 19 20
M  V30 20 1 20 21
M  V30 21 1 21 22
M  V30 22 2 22 23
M  V30 23 2 22 24
M  V30 24 1 22 25
M  V30 25 2 25 26
M  V30 26 1 26 27
M  V30 27 2 27 28
M  V30 28 1 28 29
M  V30 29 1 29 30
M  V30 30 1 29 31
M  V30 31 1 29 32
M  V30 32 1 28 33
M  V30 33 2 33 34
M  V30 34 1 20 35
M  V30 35 2 35 36
M  V30 36 2 16 37
M  V30 37 2 12 38
M  V30 38 1 38 39
M  V30 39 2 39 40
M  V30 40 1 8 41
M  V30 41 2 41 42
M  V30 42 1 42 5
M  V30 43 1 40 10
M  V30 44 1 37 13
M  V30 45 1 36 17
M  V30 46 1 34 25
M  V30 47 1 1 43
M  V30 48 1 1 44
M  V30 49 1 1 45
M  V30 50 1 3 46
M  V30 51 1 3 47
M  V30 52 1 3 48
M  V30 53 1 4 49
M  V30 54 1 4 50
M  V30 55 1 4 51
M  V30 56 1 6 52
M  V30 57 1 7 53
M  V30 58 1 9 54
M  V30 59 1 11 55
M  V30 60 1 18 56
M  V30 61 1 19 57
M  V30 62 1 21 58
M  V30 63 1 26 59
M  V30 64 1 27 60
M  V30 65 1 30 61
M  V30 66 1 30 62
M  V30 67 1 30 63
M  V30 68 1 31 64
M  V30 69 1 31 65
M  V30 70 1 31 66
M  V30 71 1 32 67
M  V30 72 1 32 68
M  V30 73 1 32 69
M  V30 74 1 33 70
M  V30 75 1 34 71
M  V30 76 1 35 72
M  V30 77 1 36 73
M  V30 78 1 38 74
M  V30 79 1 39 75
M  V30 80 1 41 76
M  V30 81 1 42 77
M  V30 END BOND
M  V30 END CTAB
M  END
>  <Dataset>  (434) 
ChEMBL_Kinases

>  <Ligand_Instance>  (434) 
nan

>  <PDB_ID>  (434) 
nan

>  <Standardized_SMILES>  (434) 
CC(C)(C)c1ccc(Nc2cc(-c3noc(-c4ccc(NS(=O)(=O)c5ccc(C(C)(C)C)cc5)cc4)n3)ccn2)cc1

>  <Name>  (434) 
nan

>  <Pocket>  (434) 
nan

>  <ATP_Site>  (434) 
nan

>  <Peripheral>  (434) 
nan

>  <Num_H_Atoms_ProtBoundConf>  (434) 
nan

>  <Num_Resolved_Atoms>  (434) 
nan

>  <Num_Not_Resolved_Atoms>  (434) 
nan

$$$$
CHEMBL4791690
     RDKit          3D

  0  0  0  0  0  0  0  0  0  0999 V3000
M  V30 BEGIN CTAB
M  V30 COUNTS 42 45 0 0 0
M  V30 BEGIN ATOM
M  V30 1 O -0.633712 -3.479133 3.194567 0
M  V30 2 C -0.716797 -2.789235 2.148595 0
M  V30 3 N 0.438149 -1.952364 1.930368 0
M  V30 4 C 1.678327 -1.697136 2.606046 0
M  V30 5 C 2.813834 -2.145156 1.715453 0
M  V30 6 C 2.934272 -1.340141 0.455372 0
M  V30 7 N 2.537864 0.042316 0.795116 0
M  V30 8 C 1.905572 0.801520 -0.214697 0
M  V30 9 N 1.984279 0.361406 -1.483931 0
M  V30 10 C 1.444620 1.025847 -2.518012 0
M  V30 11 N 0.784852 2.179881 -2.366326 0
M  V30 12 C 0.658182 2.691831 -1.129227 0
M  V30 13 N 0.068408 3.792952 -0.628006 0
M  V30 14 N 0.246906 3.797513 0.702077 0
M  V30 15 C 0.947181 2.706685 1.054994 0
M  V30 16 C 1.221447 1.989088 -0.087660 0
M  V30 17 C 2.925753 0.330458 2.156460 0
M  V30 18 C 1.830426 -0.229102 3.028984 0
M  V30 19 C -1.778741 -2.711998 1.150765 0
M  V30 20 C -2.313237 -1.427442 1.109322 0
M  V30 21 C -3.346096 -1.108346 0.227578 0
M  V30 22 C -3.827755 -2.105904 -0.608436 0
M  V30 23 C -3.292626 -3.373705 -0.560089 0
M  V30 24 C -2.271140 -3.686867 0.312830 0
M  V30 25 Cl -1.488883 -5.238559 0.495294 0
M  V30 26 H 0.464973 -1.339749 1.086313 0
M  V30 27 H 1.777273 -2.304977 3.539367 0
M  V30 28 H 2.529014 -3.182154 1.384139 0
M  V30 29 H 3.765779 -2.288358 2.261489 0
M  V30 30 H 2.305740 -1.740492 -0.361399 0
M  V30 31 H 4.007087 -1.257202 0.200950 0
M  V30 32 H 1.582551 0.554066 -3.503950 0
M  V30 33 H -0.422474 4.466751 -1.274153 0
M  V30 34 H 1.216683 2.471208 2.069357 0
M  V30 35 H 3.849324 -0.260742 2.454568 0
M  V30 36 H 3.212894 1.363125 2.358557 0
M  V30 37 H 2.041141 -0.139235 4.110472 0
M  V30 38 H 0.849262 0.225384 2.842774 0
M  V30 39 H -2.017444 -0.570753 1.713316 0
M  V30 40 H -3.791473 -0.145323 0.153144 0
M  V30 41 H -4.632170 -1.892436 -1.308332 0
M  V30 42 H -3.624356 -4.186066 -1.182334 0
M  V30 END ATOM
M  V30 BEGIN BOND
M  V30 1 2 1 2
M  V30 2 1 2 3
M  V30 3 1 3 4
M  V30 4 1 4 5
M  V30 5 1 5 6
M  V30 6 1 6 7
M  V30 7 1 7 8
M  V30 8 2 8 9
M  V30 9 1 9 10
M  V30 10 2 10 11
M  V30 11 1 11 12
M  V30 12 1 12 13
M  V30 13 1 13 14
M  V30 14 2 14 15
M  V30 15 1 15 16
M  V30 16 1 7 17
M  V30 17 1 17 18
M  V30 18 1 2 19
M  V30 19 2 19 20
M  V30 20 1 20 21
M  V30 21 2 21 22
M  V30 22 1 22 23
M  V30 23 2 23 24
M  V30 24 1 24 25
M  V30 25 1 18 4
M  V30 26 1 24 19
M  V30 27 1 16 8
M  V30 28 2 16 12
M  V30 29 1 3 26
M  V30 30 1 4 27
M  V30 31 1 5 28
M  V30 32 1 5 29
M  V30 33 1 6 30
M  V30 34 1 6 31
M  V30 35 1 10 32
M  V30 36 1 13 33
M  V30 37 1 15 34
M  V30 38 1 17 35
M  V30 39 1 17 36
M  V30 40 1 18 37
M  V30 41 1 18 38
M  V30 42 1 20 39
M  V30 43 1 21 40
M  V30 44 1 22 41
M  V30 45 1 23 42
M  V30 END BOND
M  V30 END CTAB
M  END
>  <Dataset>  (435) 
ChEMBL_Kinases

>  <Ligand_Instance>  (435) 
nan

>  <PDB_ID>  (435) 
nan

>  <Standardized_SMILES>  (435) 
O=C(NC1CCN(c2ncnc3[nH]ncc23)CC1)c1ccccc1Cl

>  <Name>  (435) 
nan

>  <Pocket>  (435) 
nan

>  <ATP_Site>  (435) 
nan

>  <Peripheral>  (435) 
nan

>  <Num_H_Atoms_ProtBoundConf>  (435) 
nan

>  <Num_Resolved_Atoms>  (435) 
nan

>  <Num_Not_Resolved_Atoms>  (435) 
nan

$$$$
CHEMBL4791720
     RDKit          3D

  0  0  0  0  0  0  0  0  0  0999 V3000
M  V30 BEGIN CTAB
M  V30 COUNTS 72 76 0 0 0
M  V30 BEGIN ATOM
M  V30 1 C 7.948973 -3.239052 5.947445 0
M  V30 2 O 6.802904 -4.075701 6.092817 0
M  V30 3 C 5.866874 -4.117285 5.070882 0
M  V30 4 C 5.895692 -3.431074 3.872281 0
M  V30 5 C 4.879897 -3.583065 2.959031 0
M  V30 6 C 3.797726 -4.401091 3.162479 0
M  V30 7 S 2.480306 -4.624256 2.034106 0
M  V30 8 O 3.024566 -4.410269 0.649371 0
M  V30 9 O 1.935971 -6.001383 2.204627 0
M  V30 10 N 1.278609 -3.417325 2.331761 0
M  V30 11 C 1.800409 -2.088090 2.122915 0
M  V30 12 C 0.768620 -0.997593 2.381781 0
M  V30 13 C 1.377215 0.376293 2.122735 0
M  V30 14 N 0.440796 1.435369 2.377604 0
M  V30 15 C -0.774756 1.821334 1.781683 0
M  V30 16 C -1.359550 1.247683 0.687654 0
M  V30 17 C -2.568927 1.611905 0.101225 0
M  V30 18 C -3.075653 0.886640 -1.059034 0
M  V30 19 N -3.319536 -0.432099 -0.790044 0
M  V30 20 C -3.788585 -1.035957 -1.913466 0
M  V30 21 C -4.182495 -2.433308 -2.110989 0
M  V30 22 C -4.079402 -3.326717 -1.042791 0
M  V30 23 C -4.420233 -4.656544 -1.103892 0
M  V30 24 C -4.898074 -5.107640 -2.333701 0
M  V30 25 C -5.005520 -4.233002 -3.402464 0
M  V30 26 C -4.647987 -2.884828 -3.299890 0
M  V30 27 N -3.841056 -0.100777 -2.892724 0
M  V30 28 C -3.410028 1.068378 -2.381696 0
M  V30 29 C -3.254294 2.394339 -2.954822 0
M  V30 30 C -3.923310 3.563863 -2.676431 0
M  V30 31 C -3.658684 4.757991 -3.313851 0
M  V30 32 C -2.662105 4.802185 -4.297991 0
M  V30 33 C -1.988554 3.632784 -4.580497 0
M  V30 34 O -1.013573 3.698142 -5.550606 0
M  V30 35 C -0.671591 4.854596 -6.255163 0
M  V30 36 C -2.262658 2.443681 -3.935638 0
M  V30 37 C -3.190794 2.666136 0.734309 0
M  V30 38 C -2.633522 3.268911 1.836534 0
M  V30 39 N -1.461724 2.832478 2.317061 0
M  V30 40 C 3.791574 -5.085798 4.383577 0
M  V30 41 C 4.799617 -4.964632 5.343497 0
M  V30 42 H 8.328346 -3.288673 4.908793 0
M  V30 43 H 8.749046 -3.456432 6.650359 0
M  V30 44 H 7.601886 -2.176130 6.093489 0
M  V30 45 H 6.737937 -2.798922 3.723610 0
M  V30 46 H 4.919295 -3.035204 2.021681 0
M  V30 47 H 0.404517 -3.600223 1.791954 0
M  V30 48 H 2.154748 -1.952960 1.085936 0
M  V30 49 H 2.696391 -1.972438 2.767989 0
M  V30 50 H 0.502978 -1.017730 3.457887 0
M  V30 51 H -0.065577 -1.163795 1.714991 0
M  V30 52 H 2.308675 0.479199 2.711525 0
M  V30 53 H 1.750411 0.422594 1.048701 0
M  V30 54 H 0.772967 2.028189 3.201028 0
M  V30 55 H -0.851026 0.425649 0.194232 0
M  V30 56 H -3.228004 -1.043768 0.058837 0
M  V30 57 H -3.712412 -3.016976 -0.059757 0
M  V30 58 H -4.328974 -5.328239 -0.261922 0
M  V30 59 H -5.191973 -6.141711 -2.477273 0
M  V30 60 H -5.371942 -4.557031 -4.370848 0
M  V30 61 H -4.723554 -2.183540 -4.111696 0
M  V30 62 H -4.674582 3.458939 -1.917917 0
M  V30 63 H -4.230615 5.626050 -3.035346 0
M  V30 64 H -2.516457 5.767409 -4.747883 0
M  V30 65 H -0.682253 5.778345 -5.662139 0
M  V30 66 H -1.325784 4.986901 -7.144445 0
M  V30 67 H 0.387328 4.745787 -6.607482 0
M  V30 68 H -1.663546 1.586983 -4.248652 0
M  V30 69 H -4.136432 3.000499 0.338099 0
M  V30 70 H -3.107577 4.094618 2.344356 0
M  V30 71 H 2.937253 -5.738027 4.549960 0
M  V30 72 H 4.644061 -5.562715 6.232878 0
M  V30 END ATOM
M  V30 BEGIN BOND
M  V30 1 1 1 2
M  V30 2 1 2 3
M  V30 3 2 3 4
M  V30 4 1 4 5
M  V30 5 2 5 6
M  V30 6 1 6 7
M  V30 7 2 7 8
M  V30 8 2 7 9
M  V30 9 1 7 10
M  V30 10 1 10 11
M  V30 11 1 11 12
M  V30 12 1 12 13
M  V30 13 1 13 14
M  V30 14 1 14 15
M  V30 15 2 15 16
M  V30 16 1 16 17
M  V30 17 1 17 18
M  V30 18 1 18 19
M  V30 19 1 19 20
M  V30 20 1 20 21
M  V30 21 2 21 22
M  V30 22 1 22 23
M  V30 23 2 23 24
M  V30 24 1 24 25
M  V30 25 2 25 26
M  V30 26 2 20 27
M  V30 27 1 27 28
M  V30 28 1 28 29
M  V30 29 2 29 30
M  V30 30 1 30 31
M  V30 31 2 31 32
M  V30 32 1 32 33
M  V30 33 1 33 34
M  V30 34 1 34 35
M  V30 35 2 33 36
M  V30 36 2 17 37
M  V30 37 1 37 38
M  V30 38 2 38 39
M  V30 39 1 6 40
M  V30 40 2 40 41
M  V30 41 1 41 3
M  V30 42 1 39 15
M  V30 43 2 28 18
M  V30 44 1 36 29
M  V30 45 1 26 21
M  V30 46 1 1 42
M  V30 47 1 1 43
M  V30 48 1 1 44
M  V30 49 1 4 45
M  V30 50 1 5 46
M  V30 51 1 10 47
M  V30 52 1 11 48
M  V30 53 1 11 49
M  V30 54 1 12 50
M  V30 55 1 12 51
M  V30 56 1 13 52
M  V30 57 1 13 53
M  V30 58 1 14 54
M  V30 59 1 16 55
M  V30 60 1 19 56
M  V30 61 1 22 57
M  V30 62 1 23 58
M  V30 63 1 24 59
M  V30 64 1 25 60
M  V30 65 1 26 61
M  V30 66 1 30 62
M  V30 67 1 31 63
M  V30 68 1 32 64
M  V30 69 1 35 65
M  V30 70 1 35 66
M  V30 71 1 35 67
M  V30 72 1 36 68
M  V30 73 1 37 69
M  V30 74 1 38 70
M  V30 75 1 40 71
M  V30 76 1 41 72
M  V30 END BOND
M  V30 END CTAB
M  END
>  <Dataset>  (436) 
ChEMBL_Kinases

>  <Ligand_Instance>  (436) 
nan

>  <PDB_ID>  (436) 
nan

>  <Standardized_SMILES>  (436) 
COc1ccc(S(=O)(=O)NCCCNc2cc(-c3[nH]c(-c4ccccc4)nc3-c3cccc(OC)c3)ccn2)cc1

>  <Name>  (436) 
nan

>  <Pocket>  (436) 
nan

>  <ATP_Site>  (436) 
nan

>  <Peripheral>  (436) 
nan

>  <Num_H_Atoms_ProtBoundConf>  (436) 
nan

>  <Num_Resolved_Atoms>  (436) 
nan

>  <Num_Not_Resolved_Atoms>  (436) 
nan

$$$$
CHEMBL4128878
     RDKit          3D

  0  0  0  0  0  0  0  0  0  0999 V3000
M  V30 BEGIN CTAB
M  V30 COUNTS 243 247 0 0 0
M  V30 BEGIN ATOM
M  V30 1 C -4.985025 -5.404063 -3.017480 0
M  V30 2 C -5.218497 -4.088698 -3.687290 0
M  V30 3 C -5.566386 -2.977774 -2.759083 0 CFG=2
M  V30 4 C -5.766935 -1.728821 -3.622518 0
M  V30 5 C -4.459286 -2.630385 -1.742976 0 CFG=2
M  V30 6 N -4.994338 -1.527689 -0.920900 0
M  V30 7 C -5.451260 -1.981207 0.384480 0
M  V30 8 O -5.330659 -3.251782 0.595154 0
M  V30 9 C -6.040330 -1.594148 1.681439 0 CFG=2
M  V30 10 C -7.453144 -2.183581 1.711345 0
M  V30 11 N -6.228107 -0.164338 1.729168 0
M  V30 12 C -5.843062 0.564721 2.890960 0
M  V30 13 O -5.332723 -0.214775 3.799049 0
M  V30 14 C -5.776872 1.883681 3.524453 0 CFG=1
M  V30 15 N -6.292168 2.924044 2.667132 0
M  V30 16 C -7.550941 3.447724 2.391095 0
M  V30 17 O -8.488031 2.894221 3.058418 0
M  V30 18 C -8.214846 4.466149 1.566197 0 CFG=2
M  V30 19 C -9.618192 4.163780 1.165582 0
M  V30 20 O -10.161862 5.338581 0.649942 0
M  V30 21 N -7.493900 4.864303 0.420592 0
M  V30 22 C -6.371589 4.500592 -0.302940 0
M  V30 23 O -5.508249 3.615500 -0.233911 0
M  V30 24 C -5.419587 4.663330 -1.413501 0 CFG=2
M  V30 25 C -6.085698 4.680368 -2.763991 0
M  V30 26 C -6.854860 3.482704 -3.092550 0
M  V30 27 C -8.216820 3.382120 -2.776298 0
M  V30 28 N -8.709412 2.208179 -3.181420 0
M  V30 29 C -7.710910 1.520922 -3.758399 0
M  V30 30 N -6.623412 2.301464 -3.689793 0
M  V30 31 N -4.323563 3.723702 -1.297990 0
M  V30 32 C -2.981183 4.245590 -1.172825 0
M  V30 33 O -2.757247 5.503818 -1.181332 0
M  V30 34 C -1.701341 3.555935 -1.018091 0 CFG=2
M  V30 35 C -0.619725 3.904835 -1.983835 0
M  V30 36 C -0.864902 3.668957 -3.414221 0
M  V30 37 C 0.422079 4.106086 -4.150587 0
M  V30 38 C -1.918717 4.654907 -3.922481 0
M  V30 39 N -1.826683 2.102272 -0.868055 0
M  V30 40 C -1.326412 1.476977 0.300506 0
M  V30 41 O -0.795723 2.204267 1.171166 0
M  V30 42 C -1.145913 0.213026 0.990630 0 CFG=2
M  V30 43 C -2.452527 -0.511571 1.351591 0
M  V30 44 C -2.032243 -1.349615 2.590106 0
M  V30 45 C -0.519282 -1.114064 2.598021 0
M  V30 46 N -0.538177 0.340733 2.299316 0
M  V30 47 C -0.054241 1.413065 3.092994 0
M  V30 48 O 0.218949 2.569713 3.480430 0
M  V30 49 C 0.614148 1.078486 4.368064 0 CFG=2
M  V30 50 C -0.380610 1.070476 5.536051 0
M  V30 51 C 0.470296 1.423991 6.734501 0
M  V30 52 C 1.452963 2.421384 6.195365 0
M  V30 53 N 1.564719 2.118704 4.796815 0
M  V30 54 C 2.401593 2.526741 3.732000 0
M  V30 55 O 2.534997 2.394455 2.501962 0
M  V30 56 C 3.611864 3.388972 3.751500 0 CFG=2
M  V30 57 C 3.606444 4.531141 4.666738 0
M  V30 58 C 4.914409 5.273387 4.523621 0
M  V30 59 O 5.133251 6.272721 5.259294 0
M  V30 60 O 6.065403 5.184040 3.747817 0
M  V30 61 N 3.958736 3.758477 2.414062 0
M  V30 62 C 4.563643 2.990121 1.439399 0
M  V30 63 O 4.894098 1.747022 1.601227 0
M  V30 64 C 5.154480 2.641628 0.158882 0 CFG=2
M  V30 65 C 4.329597 3.057846 -1.005933 0
M  V30 66 C 4.046554 4.470581 -1.179687 0
M  V30 67 C 2.957476 5.212095 -0.743980 0
M  V30 68 C 2.710004 6.545518 -0.952235 0
M  V30 69 C 3.670522 7.195734 -1.679442 0
M  V30 70 N 3.444826 8.590944 -1.921312 0 CHG=1 VAL=4
M  V30 71 O 2.446312 9.214296 -1.519561 0
M  V30 72 O 4.132821 9.576993 -2.580367 0 CHG=-1 VAL=1
M  V30 73 C 4.791442 6.582109 -2.167933 0
M  V30 74 C 4.976236 5.219896 -1.915224 0
M  V30 75 N 5.226277 1.167659 0.144229 0
M  V30 76 C 6.029684 0.019670 0.272589 0
M  V30 77 O 7.188152 0.435350 0.512516 0
M  V30 78 C 5.322040 -1.268961 0.103954 0 CFG=1
M  V30 79 N 6.148551 -2.394010 0.442798 0
M  V30 80 C 6.873756 -3.331561 -0.301390 0
M  V30 81 O 6.815020 -3.183047 -1.545913 0
M  V30 82 C 7.579734 -4.333678 0.534186 0 CFG=2
M  V30 83 C 8.178110 -3.777410 1.786056 0
M  V30 84 C 9.191609 -2.698913 1.592873 0
M  V30 85 C 9.696376 -2.237815 2.936252 0
M  V30 86 N 10.574553 -1.125126 2.883600 0
M  V30 87 O 9.464619 -2.678109 4.085145 0
M  V30 88 N 8.432165 -5.201074 -0.216782 0
M  V30 89 C 8.334753 -6.593206 -0.484597 0
M  V30 90 C 9.311044 -7.350929 -1.293066 0
M  V30 91 O 7.410411 -7.372810 -0.074363 0
M  V30 92 C 3.991650 -1.383463 0.737680 0 CFG=1
M  V30 93 C 3.420763 -2.764685 0.384476 0
M  V30 94 O 4.168271 -1.421212 2.134848 0
M  V30 95 C -6.414885 1.932090 4.905801 0 CFG=1
M  V30 96 C -5.793892 0.933183 5.855014 0
M  V30 97 O -6.138281 3.195560 5.483029 0
M  V30 98 P -7.505072 3.931319 6.124983 0
M  V30 99 O -7.900822 5.057995 5.194789 0
M  V30 100 O -7.181773 4.506958 7.668771 0
M  V30 101 O -8.715122 2.723141 6.188176 0
M  V30 102 C -3.293171 -2.147997 -2.496690 0
M  V30 103 O -2.986910 -0.945885 -2.789600 0
M  V30 104 N -2.297449 -3.043683 -3.013463 0
M  V30 105 C -1.106136 -2.682005 -3.806398 0 CFG=1
M  V30 106 C -0.000359 -2.389989 -2.800821 0
M  V30 107 C 1.270698 -1.978960 -3.404148 0
M  V30 108 C 2.383600 -2.685356 -3.797588 0
M  V30 109 C 3.478202 -2.048209 -4.370385 0
M  V30 110 C 3.506833 -0.676240 -4.573324 0
M  V30 111 O 4.617032 -0.067319 -5.147278 0
M  V30 112 C 2.398304 0.045067 -4.183787 0
M  V30 113 C 1.332507 -0.616733 -3.620506 0
M  V30 114 C -0.761585 -3.730896 -4.736874 0
M  V30 115 O -1.836178 -4.364811 -4.398059 0
M  V30 116 N -0.086227 -4.484838 -5.705538 0
M  V30 117 C -0.577849 -5.740900 -6.212787 0 CFG=1
M  V30 118 C -0.124645 -6.005487 -7.601664 0
M  V30 119 C -0.178080 -6.831193 -5.239080 0
M  V30 120 O -0.658412 -7.865094 -5.803447 0
M  V30 121 N 0.519932 -6.946721 -3.995696 0
M  V30 122 C 0.613799 -8.289910 -3.463836 0 CFG=1
M  V30 123 C 2.063734 -8.758102 -3.339720 0
M  V30 124 C 2.848026 -7.888772 -2.433335 0
M  V30 125 N 3.089952 -8.437187 -1.131340 0
M  V30 126 O 3.193915 -6.792952 -2.920695 0
M  V30 127 C -0.039523 -8.381192 -2.127672 0
M  V30 128 N -0.682284 -8.444683 -0.826509 0
M  V30 129 O -0.231388 -7.167243 -2.391064 0
M  V30 130 H -5.978420 -5.875950 -2.805331 0
M  V30 131 H -4.390704 -6.062285 -3.691022 0
M  V30 132 H -4.406360 -5.352326 -2.077297 0
M  V30 133 H -4.447490 -3.811011 -4.420471 0
M  V30 134 H -6.143526 -4.239433 -4.332297 0
M  V30 135 H -6.524854 -3.169434 -2.275138 0
M  V30 136 H -5.995414 -0.844042 -3.007628 0
M  V30 137 H -4.831887 -1.550129 -4.218460 0
M  V30 138 H -6.605674 -1.923120 -4.345239 0
M  V30 139 H -4.219015 -3.511316 -1.173406 0
M  V30 140 H -5.213319 -0.514966 -0.834843 0
M  V30 141 H -5.472554 -1.962633 2.552994 0
M  V30 142 H -7.465580 -3.175323 2.199813 0
M  V30 143 H -8.146491 -1.506297 2.239606 0
M  V30 144 H -7.817938 -2.313851 0.659281 0
M  V30 145 H -6.603195 0.586820 1.109342 0
M  V30 146 H -4.697601 2.160838 3.746828 0
M  V30 147 H -5.577235 3.463170 2.158366 0
M  V30 148 H -8.239535 5.435207 2.223219 0
M  V30 149 H -10.226747 3.814815 1.988536 0
M  V30 150 H -9.622038 3.450488 0.296271 0
M  V30 151 H -10.041004 6.090907 1.301696 0
M  V30 152 H -7.789129 5.696134 -0.150759 0
M  V30 153 H -4.961768 5.686903 -1.324621 0
M  V30 154 H -6.725542 5.582914 -2.787984 0
M  V30 155 H -5.280061 4.889699 -3.528853 0
M  V30 156 H -8.887511 4.089714 -2.273501 0
M  V30 157 H -7.563274 0.574194 -4.227983 0
M  V30 158 H -5.609272 2.213205 -4.002953 0
M  V30 159 H -4.213169 2.677987 -1.277205 0
M  V30 160 H -1.292354 3.916046 -0.019987 0
M  V30 161 H 0.271412 3.284947 -1.698938 0
M  V30 162 H -0.372165 4.994397 -1.828922 0
M  V30 163 H -1.057069 2.641775 -3.709310 0
M  V30 164 H 1.284159 3.588066 -3.649526 0
M  V30 165 H 0.594938 5.183608 -3.967683 0
M  V30 166 H 0.397850 3.840413 -5.209070 0
M  V30 167 H -1.680489 5.677876 -3.667748 0
M  V30 168 H -2.897092 4.265687 -3.636372 0
M  V30 169 H -1.930546 4.631845 -5.055668 0
M  V30 170 H -2.212539 1.295950 -1.409100 0
M  V30 171 H -0.495952 -0.491455 0.407148 0
M  V30 172 H -3.156612 0.222381 1.706559 0
M  V30 173 H -2.741148 -1.183502 0.539149 0
M  V30 174 H -2.200827 -2.417857 2.350988 0
M  V30 175 H -2.536568 -1.029834 3.492948 0
M  V30 176 H -0.075085 -1.667733 1.775671 0
M  V30 177 H -0.041423 -1.350149 3.532064 0
M  V30 178 H 1.073153 0.085363 4.385584 0
M  V30 179 H -0.805755 0.083229 5.710959 0
M  V30 180 H -1.098613 1.878163 5.380715 0
M  V30 181 H 1.016906 0.539344 7.102015 0
M  V30 182 H -0.173230 1.860378 7.534937 0
M  V30 183 H 1.125204 3.476951 6.384483 0
M  V30 184 H 2.404350 2.261933 6.749943 0
M  V30 185 H 4.480583 2.686167 4.080638 0
M  V30 186 H 2.758556 5.218721 4.589242 0
M  V30 187 H 3.640169 4.202760 5.752388 0
M  V30 188 H 6.320427 5.886699 3.061447 0
M  V30 189 H 3.864602 4.607754 1.850749 0
M  V30 190 H 6.216919 3.042752 0.075592 0
M  V30 191 H 4.671821 2.568526 -1.962736 0
M  V30 192 H 3.322925 2.550000 -0.846139 0
M  V30 193 H 2.238977 4.630088 -0.169513 0
M  V30 194 H 1.794627 6.959968 -0.526766 0
M  V30 195 H 5.502795 7.169621 -2.737746 0
M  V30 196 H 5.898515 4.834909 -2.339294 0
M  V30 197 H 4.181992 0.971710 -0.025854 0
M  V30 198 H 5.205060 -1.355901 -1.036373 0
M  V30 199 H 6.101903 -2.374432 1.493800 0
M  V30 200 H 6.730603 -5.005149 0.908174 0
M  V30 201 H 8.703647 -4.656491 2.276357 0
M  V30 202 H 7.374881 -3.524763 2.503667 0
M  V30 203 H 10.014830 -3.068371 0.977057 0
M  V30 204 H 8.735038 -1.798044 1.118535 0
M  V30 205 H 10.198943 -0.259851 3.339075 0
M  V30 206 H 11.360785 -0.470788 2.726545 0
M  V30 207 H 9.252958 -4.710758 -0.622865 0
M  V30 208 H 9.691091 -8.268503 -0.761228 0
M  V30 209 H 10.184374 -6.665873 -1.488896 0
M  V30 210 H 8.908906 -7.672659 -2.272485 0
M  V30 211 H 3.214440 -0.683762 0.429823 0
M  V30 212 H 3.881137 -3.092140 -0.549937 0
M  V30 213 H 3.612458 -3.512162 1.187303 0
M  V30 214 H 2.306358 -2.730949 0.283004 0
M  V30 215 H 3.514251 -2.010109 2.593344 0
M  V30 216 H -7.494581 1.808475 4.890253 0
M  V30 217 H -4.699946 0.883848 5.722353 0
M  V30 218 H -6.320903 -0.036272 5.868763 0
M  V30 219 H -5.926035 1.361211 6.901544 0
M  V30 220 H -6.258785 4.340887 7.987269 0
M  V30 221 H -9.571963 3.227663 6.171960 0
M  V30 222 H -2.496952 -4.042427 -2.739489 0
M  V30 223 H -1.356619 -1.688528 -4.274945 0
M  V30 224 H -0.395383 -1.669116 -2.071750 0
M  V30 225 H 0.193883 -3.350940 -2.272695 0
M  V30 226 H 2.289866 -3.743569 -3.608726 0
M  V30 227 H 4.304063 -2.683175 -4.654297 0
M  V30 228 H 4.445665 0.797100 -5.678849 0
M  V30 229 H 2.476382 1.123341 -4.371810 0
M  V30 230 H 0.541494 0.096493 -3.372678 0
M  V30 231 H 0.683855 -3.754235 -5.766310 0
M  V30 232 H -1.698760 -5.689831 -6.141335 0
M  V30 233 H -0.054616 -7.114385 -7.768252 0
M  V30 234 H 0.891046 -5.559146 -7.776192 0
M  V30 235 H -0.831491 -5.570889 -8.344340 0
M  V30 236 H 0.800874 -5.972589 -3.776102 0
M  V30 237 H 0.107112 -9.018006 -4.123656 0
M  V30 238 H 2.508111 -8.678052 -4.358899 0
M  V30 239 H 2.077985 -9.830649 -3.034536 0
M  V30 240 H 3.788203 -9.074872 -0.684508 0
M  V30 241 H 2.801785 -8.504452 -0.138395 0
M  V30 242 H -1.716194 -8.677273 -0.928255 0
M  V30 243 H 0.006736 -8.248491 -0.052446 0
M  V30 END ATOM
M  V30 BEGIN BOND
M  V30 1 1 1 2
M  V30 2 1 2 3
M  V30 3 1 3 4
M  V30 4 1 3 5
M  V30 5 1 5 6
M  V30 6 1 6 7
M  V30 7 2 7 8
M  V30 8 1 7 9
M  V30 9 1 9 10
M  V30 10 1 9 11
M  V30 11 1 11 12
M  V30 12 2 12 13
M  V30 13 1 12 14
M  V30 14 1 14 15
M  V30 15 1 15 16
M  V30 16 2 16 17
M  V30 17 1 16 18
M  V30 18 1 18 19
M  V30 19 1 19 20
M  V30 20 1 18 21
M  V30 21 1 21 22
M  V30 22 2 22 23
M  V30 23 1 22 24
M  V30 24 1 24 25
M  V30 25 1 25 26
M  V30 26 2 26 27
M  V30 27 1 27 28
M  V30 28 2 28 29
M  V30 29 1 29 30
M  V30 30 1 24 31
M  V30 31 1 31 32
M  V30 32 2 32 33
M  V30 33 1 32 34
M  V30 34 1 34 35
M  V30 35 1 35 36
M  V30 36 1 36 37
M  V30 37 1 36 38
M  V30 38 1 34 39
M  V30 39 1 39 40
M  V30 40 2 40 41
M  V30 41 1 40 42
M  V30 42 1 42 43
M  V30 43 1 43 44
M  V30 44 1 44 45
M  V30 45 1 45 46
M  V30 46 1 46 47
M  V30 47 2 47 48
M  V30 48 1 47 49
M  V30 49 1 49 50
M  V30 50 1 50 51
M  V30 51 1 51 52
M  V30 52 1 52 53
M  V30 53 1 53 54
M  V30 54 2 54 55
M  V30 55 1 54 56
M  V30 56 1 56 57
M  V30 57 1 57 58
M  V30 58 2 58 59
M  V30 59 1 58 60
M  V30 60 1 56 61
M  V30 61 1 61 62
M  V30 62 2 62 63
M  V30 63 1 62 64
M  V30 64 1 64 65
M  V30 65 1 65 66
M  V30 66 2 66 67
M  V30 67 1 67 68
M  V30 68 2 68 69
M  V30 69 1 69 70
M  V30 70 2 70 71
M  V30 71 1 70 72
M  V30 72 1 69 73
M  V30 73 2 73 74
M  V30 74 1 64 75
M  V30 75 1 75 76
M  V30 76 2 76 77
M  V30 77 1 76 78
M  V30 78 1 78 79
M  V30 79 1 79 80
M  V30 80 2 80 81
M  V30 81 1 80 82
M  V30 82 1 82 83
M  V30 83 1 83 84
M  V30 84 1 84 85
M  V30 85 1 85 86
M  V30 86 2 85 87
M  V30 87 1 82 88
M  V30 88 1 88 89
M  V30 89 1 89 90
M  V30 90 2 89 91
M  V30 91 1 78 92
M  V30 92 1 92 93
M  V30 93 1 92 94
M  V30 94 1 14 95
M  V30 95 1 95 96
M  V30 96 1 95 97
M  V30 97 1 97 98
M  V30 98 2 98 99
M  V30 99 1 98 100
M  V30 100 1 98 101
M  V30 101 1 5 102
M  V30 102 2 102 103
M  V30 103 1 102 104
M  V30 104 1 104 105
M  V30 105 1 105 106
M  V30 106 1 106 107
M  V30 107 2 107 108
M  V30 108 1 108 109
M  V30 109 2 109 110
M  V30 110 1 110 111
M  V30 111 1 110 112
M  V30 112 2 112 113
M  V30 113 1 105 114
M  V30 114 2 114 115
M  V30 115 1 114 116
M  V30 116 1 116 117
M  V30 117 1 117 118
M  V30 118 1 117 119
M  V30 119 2 119 120
M  V30 120 1 119 121
M  V30 121 1 121 122
M  V30 122 1 122 123
M  V30 123 1 123 124
M  V30 124 1 124 125
M  V30 125 2 124 126
M  V30 126 1 122 127
M  V30 127 1 127 128
M  V30 128 2 127 129
M  V30 129 1 30 26
M  V30 130 1 46 42
M  V30 131 1 53 49
M  V30 132 1 74 66
M  V30 133 1 113 107
M  V30 134 1 1 130
M  V30 135 1 1 131
M  V30 136 1 1 132
M  V30 137 1 2 133
M  V30 138 1 2 134
M  V30 139 1 3 135 CFG=1
M  V30 140 1 4 136
M  V30 141 1 4 137
M  V30 142 1 4 138
M  V30 143 1 5 139 CFG=1
M  V30 144 1 6 140
M  V30 145 1 9 141 CFG=1
M  V30 146 1 10 142
M  V30 147 1 10 143
M  V30 148 1 10 144
M  V30 149 1 11 145
M  V30 150 1 14 146 CFG=1
M  V30 151 1 15 147
M  V30 152 1 18 148 CFG=1
M  V30 153 1 19 149
M  V30 154 1 19 150
M  V30 155 1 20 151
M  V30 156 1 21 152
M  V30 157 1 24 153 CFG=1
M  V30 158 1 25 154
M  V30 159 1 25 155
M  V30 160 1 27 156
M  V30 161 1 29 157
M  V30 162 1 30 158
M  V30 163 1 31 159
M  V30 164 1 34 160 CFG=1
M  V30 165 1 35 161
M  V30 166 1 35 162
M  V30 167 1 36 163
M  V30 168 1 37 164
M  V30 169 1 37 165
M  V30 170 1 37 166
M  V30 171 1 38 167
M  V30 172 1 38 168
M  V30 173 1 38 169
M  V30 174 1 39 170
M  V30 175 1 42 171 CFG=3
M  V30 176 1 43 172
M  V30 177 1 43 173
M  V30 178 1 44 174
M  V30 179 1 44 175
M  V30 180 1 45 176
M  V30 181 1 45 177
M  V30 182 1 49 178 CFG=3
M  V30 183 1 50 179
M  V30 184 1 50 180
M  V30 185 1 51 181
M  V30 186 1 51 182
M  V30 187 1 52 183
M  V30 188 1 52 184
M  V30 189 1 56 185 CFG=1
M  V30 190 1 57 186
M  V30 191 1 57 187
M  V30 192 1 60 188
M  V30 193 1 61 189
M  V30 194 1 64 190 CFG=3
M  V30 195 1 65 191
M  V30 196 1 65 192
M  V30 197 1 67 193
M  V30 198 1 68 194
M  V30 199 1 73 195
M  V30 200 1 74 196
M  V30 201 1 75 197
M  V30 202 1 78 198 CFG=3
M  V30 203 1 79 199
M  V30 204 1 82 200 CFG=1
M  V30 205 1 83 201
M  V30 206 1 83 202
M  V30 207 1 84 203
M  V30 208 1 84 204
M  V30 209 1 86 205
M  V30 210 1 86 206
M  V30 211 1 88 207
M  V30 212 1 90 208
M  V30 213 1 90 209
M  V30 214 1 90 210
M  V30 215 1 92 211 CFG=1
M  V30 216 1 93 212
M  V30 217 1 93 213
M  V30 218 1 93 214
M  V30 219 1 94 215
M  V30 220 1 95 216 CFG=3
M  V30 221 1 96 217
M  V30 222 1 96 218
M  V30 223 1 96 219
M  V30 224 1 100 220
M  V30 225 1 101 221
M  V30 226 1 104 222
M  V30 227 1 105 223 CFG=3
M  V30 228 1 106 224
M  V30 229 1 106 225
M  V30 230 1 108 226
M  V30 231 1 109 227
M  V30 232 1 111 228
M  V30 233 1 112 229
M  V30 234 1 113 230
M  V30 235 1 116 231
M  V30 236 1 117 232 CFG=3
M  V30 237 1 118 233
M  V30 238 1 118 234
M  V30 239 1 118 235
M  V30 240 1 121 236
M  V30 241 1 122 237 CFG=3
M  V30 242 1 123 238
M  V30 243 1 123 239
M  V30 244 1 125 240
M  V30 245 1 125 241
M  V30 246 1 128 242
M  V30 247 1 128 243
M  V30 END BOND
M  V30 END CTAB
M  END
>  <Dataset>  (437) 
ChEMBL_Kinases

>  <Ligand_Instance>  (437) 
nan

>  <PDB_ID>  (437) 
nan

>  <Standardized_SMILES>  (437) 
CC[C@H](C)[C@H](NC(=O)[C@H](C)NC(=O)[C@@H](NC(=O)[C@H](CO)NC(=O)[C@H](Cc1cnc[nH]1)NC(=O)[C@H](CC(C)C)NC(=O)[C@@H]1CCCN1C(=O)[C@@H]1CCCN1C(=O)[C@H](CC(=O)O)NC(=O)[C@H](Cc1ccc([N+](=O)[O-])cc1)NC(=O)[C@@H](NC(=O)[C@H](CCC(N)=O)NC(C)=O)[C@@H](C)O)[C@@H](C)OP(=O)(O)O)C(=O)N[C@@H](Cc1ccc(O)cc1)C(=O)N[C@@H](C)C(=O)N[C@@H](CC(N)=O)C(N)=O

>  <Name>  (437) 
nan

>  <Pocket>  (437) 
nan

>  <ATP_Site>  (437) 
nan

>  <Peripheral>  (437) 
nan

>  <Num_H_Atoms_ProtBoundConf>  (437) 
nan

>  <Num_Resolved_Atoms>  (437) 
nan

>  <Num_Not_Resolved_Atoms>  (437) 
nan

$$$$
CHEMBL4791739
     RDKit          3D

  0  0  0  0  0  0  0  0  0  0999 V3000
M  V30 BEGIN CTAB
M  V30 COUNTS 52 55 0 0 0
M  V30 BEGIN ATOM
M  V30 1 N 3.507833 -4.950795 4.894088 0
M  V30 2 C 3.385728 -4.564766 3.795153 0
M  V30 3 C 3.221952 -4.104161 2.438060 0
M  V30 4 C 3.393356 -2.754243 2.174742 0
M  V30 5 N 3.253519 -2.250806 0.914834 0
M  V30 6 C 2.937162 -3.128106 -0.082604 0
M  V30 7 N 2.807786 -2.521436 -1.377762 0
M  V30 8 C 1.423097 -2.198606 -1.358373 0
M  V30 9 C 0.923310 -1.006064 -0.894841 0
M  V30 10 C -0.406933 -0.649259 -0.856175 0
M  V30 11 N -0.879383 0.579145 -0.408169 0
M  V30 12 C -0.167770 1.686169 0.131923 0
M  V30 13 C 0.523956 1.524646 1.420971 0
M  V30 14 C 1.182510 2.882589 1.715933 0
M  V30 15 C 1.151223 3.218576 3.183087 0
M  V30 16 N 1.430049 2.103445 4.036437 0
M  V30 17 C 0.564769 0.970616 3.776969 0
M  V30 18 C -0.368457 1.259244 2.599381 0
M  V30 19 C -1.246709 -1.633912 -1.344453 0
M  V30 20 C -2.696417 -1.510327 -1.384594 0
M  V30 21 C -3.586439 -1.164563 -0.390173 0
M  V30 22 C -4.926472 -1.090730 -0.641326 0
M  V30 23 C -5.480730 -1.350031 -1.877627 0
M  V30 24 C -4.614125 -1.699309 -2.893240 0
M  V30 25 C -3.259705 -1.773780 -2.639716 0
M  V30 26 C -0.769855 -2.839860 -1.816198 0
M  V30 27 N 0.542750 -3.129538 -1.828112 0
M  V30 28 C 2.764123 -4.474162 0.167838 0
M  V30 29 N 2.911957 -4.927529 1.427328 0
M  V30 30 H 3.640373 -2.055478 2.940928 0
M  V30 31 H 3.511124 -2.345758 -2.151743 0
M  V30 32 H 1.679359 -0.345787 -0.556753 0
M  V30 33 H -1.930098 0.740405 -0.477090 0
M  V30 34 H -0.786407 2.605105 0.179791 0
M  V30 35 H 0.630579 1.942184 -0.633580 0
M  V30 36 H 1.352575 0.804048 1.475128 0
M  V30 37 H 2.206129 2.890699 1.297015 0
M  V30 38 H 0.636190 3.701387 1.203539 0
M  V30 39 H 1.912777 3.996106 3.364138 0
M  V30 40 H 0.164458 3.678816 3.411603 0
M  V30 41 H 1.361127 2.437317 5.017283 0
M  V30 42 H 1.254934 0.163756 3.395522 0
M  V30 43 H -0.001229 0.657623 4.677239 0
M  V30 44 H -1.010508 2.087922 2.900902 0
M  V30 45 H -0.985342 0.353745 2.498067 0
M  V30 46 H -3.140510 -0.977719 0.558798 0
M  V30 47 H -5.530927 -0.806885 0.224270 0
M  V30 48 H -6.554107 -1.264294 -1.974919 0
M  V30 49 H -5.024255 -1.907789 -3.872164 0
M  V30 50 H -2.657845 -2.055428 -3.497640 0
M  V30 51 H -1.404771 -3.622099 -2.202121 0
M  V30 52 H 2.518633 -5.076866 -0.677907 0
M  V30 END ATOM
M  V30 BEGIN BOND
M  V30 1 3 1 2
M  V30 2 1 2 3
M  V30 3 2 3 4
M  V30 4 1 4 5
M  V30 5 2 5 6
M  V30 6 1 6 7
M  V30 7 1 7 8
M  V30 8 2 8 9
M  V30 9 1 9 10
M  V30 10 1 10 11
M  V30 11 1 11 12
M  V30 12 1 12 13
M  V30 13 1 13 14
M  V30 14 1 14 15
M  V30 15 1 15 16
M  V30 16 1 16 17
M  V30 17 1 17 18
M  V30 18 2 10 19
M  V30 19 1 19 20
M  V30 20 2 20 21
M  V30 21 1 21 22
M  V30 22 2 22 23
M  V30 23 1 23 24
M  V30 24 2 24 25
M  V30 25 1 19 26
M  V30 26 2 26 27
M  V30 27 1 6 28
M  V30 28 2 28 29
M  V30 29 1 29 3
M  V30 30 1 27 8
M  V30 31 1 18 13
M  V30 32 1 25 20
M  V30 33 1 4 30
M  V30 34 1 7 31
M  V30 35 1 9 32
M  V30 36 1 11 33
M  V30 37 1 12 34
M  V30 38 1 12 35
M  V30 39 1 13 36
M  V30 40 1 14 37
M  V30 41 1 14 38
M  V30 42 1 15 39
M  V30 43 1 15 40
M  V30 44 1 16 41
M  V30 45 1 17 42
M  V30 46 1 17 43
M  V30 47 1 18 44
M  V30 48 1 18 45
M  V30 49 1 21 46
M  V30 50 1 22 47
M  V30 51 1 23 48
M  V30 52 1 24 49
M  V30 53 1 25 50
M  V30 54 1 26 51
M  V30 55 1 28 52
M  V30 END BOND
M  V30 END CTAB
M  END
>  <Dataset>  (438) 
ChEMBL_Kinases

>  <Ligand_Instance>  (438) 
nan

>  <PDB_ID>  (438) 
nan

>  <Standardized_SMILES>  (438) 
N#Cc1cnc(Nc2cc(NCC3CCNCC3)c(-c3ccccc3)cn2)cn1

>  <Name>  (438) 
nan

>  <Pocket>  (438) 
nan

>  <ATP_Site>  (438) 
nan

>  <Peripheral>  (438) 
nan

>  <Num_H_Atoms_ProtBoundConf>  (438) 
nan

>  <Num_Resolved_Atoms>  (438) 
nan

>  <Num_Not_Resolved_Atoms>  (438) 
nan

$$$$
CHEMBL4128810
     RDKit          3D

  0  0  0  0  0  0  0  0  0  0999 V3000
M  V30 BEGIN CTAB
M  V30 COUNTS 56 60 0 0 0
M  V30 BEGIN ATOM
M  V30 1 N 3.896515 -5.487731 0.866831 0
M  V30 2 C 2.760390 -4.829071 0.323193 0
M  V30 3 O 2.212476 -5.888187 -0.005588 0
M  V30 4 C 2.598113 -3.388531 0.310687 0
M  V30 5 C 3.626927 -2.645327 0.865716 0
M  V30 6 C 3.445141 -1.278193 0.838780 0
M  V30 7 C 2.302469 -0.681951 0.289816 0
M  V30 8 C 2.332344 0.779486 0.370718 0
M  V30 9 C 3.398650 1.588320 0.034984 0
M  V30 10 N 3.021335 2.862652 0.246830 0
M  V30 11 C 1.756283 2.835353 0.700825 0
M  V30 12 N 0.932468 3.837112 1.058490 0
M  V30 13 C -0.317426 3.631517 1.497452 0
M  V30 14 C -0.888578 2.388711 1.628146 0
M  V30 15 C -2.153269 1.807283 2.018615 0
M  V30 16 C -2.181549 0.878459 3.037486 0
M  V30 17 C -3.338246 0.262967 3.473701 0
M  V30 18 C -4.505980 0.621212 2.833060 0
M  V30 19 C -4.482694 1.563772 1.798250 0
M  V30 20 C -3.299553 2.180602 1.366651 0
M  V30 21 O -3.627995 3.033629 0.360511 0
M  V30 22 C -4.060245 4.341619 0.351970 0
M  V30 23 F -4.254951 4.759267 -0.983354 0
M  V30 24 F -3.277996 5.275507 0.964568 0
M  V30 25 F -5.338074 4.482727 0.911560 0
M  V30 26 C -0.035404 1.328416 1.257007 0
M  V30 27 C 1.269952 1.551294 0.799455 0
M  V30 28 C 1.330916 -1.504598 -0.240155 0
M  V30 29 C 1.453971 -2.852695 -0.241895 0
M  V30 30 C 0.384143 -3.694098 -0.820924 0
M  V30 31 C 0.556396 -3.994395 -2.281610 0
M  V30 32 C -0.784308 -4.677883 -2.583131 0
M  V30 33 C -1.791161 -4.028033 -1.648731 0
M  V30 34 C -0.977613 -3.035752 -0.803391 0
M  V30 35 H 4.852446 -5.706130 0.518344 0
M  V30 36 H 4.133775 -5.957501 1.777721 0
M  V30 37 H 4.511170 -3.102584 1.290718 0
M  V30 38 H 4.270194 -0.698484 1.283124 0
M  V30 39 H 4.364494 1.267496 -0.331926 0
M  V30 40 H 3.569502 3.748502 0.102209 0
M  V30 41 H -1.037481 4.363578 1.820250 0
M  V30 42 H -1.249025 0.629541 3.507964 0
M  V30 43 H -3.252042 -0.446875 4.275138 0
M  V30 44 H -5.382250 0.112163 3.210360 0
M  V30 45 H -5.505651 1.696912 1.436263 0
M  V30 46 H -0.234333 0.256543 1.266600 0
M  V30 47 H 0.500707 -0.979295 -0.637331 0
M  V30 48 H 0.251581 -4.659301 -0.280923 0
M  V30 49 H 0.597108 -3.030738 -2.829639 0
M  V30 50 H 1.396139 -4.677754 -2.504061 0
M  V30 51 H -0.703641 -5.735819 -2.236291 0
M  V30 52 H -1.071708 -4.575691 -3.636956 0
M  V30 53 H -2.338767 -4.749213 -1.027891 0
M  V30 54 H -2.546251 -3.508061 -2.278889 0
M  V30 55 H -1.441091 -2.982367 0.192116 0
M  V30 56 H -1.024821 -2.094250 -1.390581 0
M  V30 END ATOM
M  V30 BEGIN BOND
M  V30 1 1 1 2
M  V30 2 2 2 3
M  V30 3 1 2 4
M  V30 4 2 4 5
M  V30 5 1 5 6
M  V30 6 2 6 7
M  V30 7 1 7 8
M  V30 8 2 8 9
M  V30 9 1 9 10
M  V30 10 1 10 11
M  V30 11 2 11 12
M  V30 12 1 12 13
M  V30 13 2 13 14
M  V30 14 1 14 15
M  V30 15 2 15 16
M  V30 16 1 16 17
M  V30 17 2 17 18
M  V30 18 1 18 19
M  V30 19 2 19 20
M  V30 20 1 20 21
M  V30 21 1 21 22
M  V30 22 1 22 23
M  V30 23 1 22 24
M  V30 24 1 22 25
M  V30 25 1 14 26
M  V30 26 2 26 27
M  V30 27 1 7 28
M  V30 28 2 28 29
M  V30 29 1 29 30
M  V30 30 1 30 31
M  V30 31 1 31 32
M  V30 32 1 32 33
M  V30 33 1 33 34
M  V30 34 1 29 4
M  V30 35 1 34 30
M  V30 36 1 27 8
M  V30 37 1 27 11
M  V30 38 1 20 15
M  V30 39 1 1 35
M  V30 40 1 1 36
M  V30 41 1 5 37
M  V30 42 1 6 38
M  V30 43 1 9 39
M  V30 44 1 10 40
M  V30 45 1 13 41
M  V30 46 1 16 42
M  V30 47 1 17 43
M  V30 48 1 18 44
M  V30 49 1 19 45
M  V30 50 1 26 46
M  V30 51 1 28 47
M  V30 52 1 30 48
M  V30 53 1 31 49
M  V30 54 1 31 50
M  V30 55 1 32 51
M  V30 56 1 32 52
M  V30 57 1 33 53
M  V30 58 1 33 54
M  V30 59 1 34 55
M  V30 60 1 34 56
M  V30 END BOND
M  V30 END CTAB
M  END
>  <Dataset>  (439) 
ChEMBL_Kinases

>  <Ligand_Instance>  (439) 
nan

>  <PDB_ID>  (439) 
nan

>  <Standardized_SMILES>  (439) 
NC(=O)c1ccc(-c2c[nH]c3ncc(-c4ccccc4OC(F)(F)F)cc23)cc1C1CCCC1

>  <Name>  (439) 
nan

>  <Pocket>  (439) 
nan

>  <ATP_Site>  (439) 
nan

>  <Peripheral>  (439) 
nan

>  <Num_H_Atoms_ProtBoundConf>  (439) 
nan

>  <Num_Resolved_Atoms>  (439) 
nan

>  <Num_Not_Resolved_Atoms>  (439) 
nan

$$$$
CHEMBL4791753
     RDKit          3D

  0  0  0  0  0  0  0  0  0  0999 V3000
M  V30 BEGIN CTAB
M  V30 COUNTS 73 78 0 0 0
M  V30 BEGIN ATOM
M  V30 1 C 4.805599 -2.872408 3.162600 0
M  V30 2 C 4.001562 -2.403629 1.979004 0
M  V30 3 C 4.903074 -1.587938 1.042511 0 CFG=2
M  V30 4 C 5.380129 -0.428703 1.890721 0
M  V30 5 N 6.359101 -0.457929 2.818338 0
M  V30 6 N 6.418356 0.741537 3.415390 0
M  V30 7 C 5.458340 1.508040 2.835440 0
M  V30 8 N 4.809565 0.785113 1.883143 0
M  V30 9 C 3.801530 1.100186 0.939039 0
M  V30 10 C 3.269341 2.367535 1.042862 0
M  V30 11 N 2.294043 2.636569 0.126084 0
M  V30 12 C 1.890577 1.741057 -0.796433 0
M  V30 13 N 0.876338 2.356474 -1.556237 0
M  V30 14 C -0.505130 2.106369 -1.333946 0
M  V30 15 C -0.861526 1.134429 -0.424640 0
M  V30 16 C -2.152111 0.760843 -0.113304 0
M  V30 17 C -3.195602 1.410451 -0.762715 0
M  V30 18 C -4.594369 1.104266 -0.550312 0
M  V30 19 O -5.512271 1.807470 -0.983758 0
M  V30 20 N -4.887924 -0.079897 0.199734 0
M  V30 21 C -6.189376 -0.612096 0.553297 0
M  V30 22 C -6.500114 -1.802537 -0.355970 0
M  V30 23 C -7.249443 -2.813184 0.481645 0
M  V30 24 N -6.331919 -3.373596 1.457995 0
M  V30 25 C -5.255912 -3.973959 0.689367 0
M  V30 26 C -5.779597 -2.345568 2.316708 0
M  V30 27 C -6.337529 -0.976026 1.979715 0
M  V30 28 C -2.853997 2.384944 -1.674114 0
M  V30 29 C -1.562711 2.749996 -1.977935 0
M  V30 30 O -1.222177 3.733351 -2.897825 0
M  V30 31 C -2.294993 4.390373 -3.552476 0
M  V30 32 N 2.418906 0.511781 -0.883990 0
M  V30 33 C 3.377523 0.173118 -0.022481 0
M  V30 34 N 4.029403 -1.114281 -0.006455 0
M  V30 35 C 3.711823 -1.869229 -1.201863 0
M  V30 36 C 4.475408 -3.130546 -1.221945 0
M  V30 37 C 4.389600 -4.436865 -0.873358 0
M  V30 38 C 5.426001 -5.292650 -1.096711 0
M  V30 39 C 6.581643 -4.772415 -1.699101 0
M  V30 40 S 6.176913 -3.008813 -1.954876 0
M  V30 41 H 4.391449 -3.838801 3.539635 0
M  V30 42 H 5.854996 -3.091028 2.893433 0
M  V30 43 H 4.764421 -2.102197 3.958221 0
M  V30 44 H 3.447996 -3.177583 1.467876 0
M  V30 45 H 3.248132 -1.657825 2.370334 0
M  V30 46 H 5.716624 -2.212816 0.679355 0
M  V30 47 H 5.228119 2.553133 3.084476 0
M  V30 48 H 3.615293 3.072615 1.800126 0
M  V30 49 H 1.074440 3.039985 -2.337306 0
M  V30 50 H -0.075712 0.595466 0.110981 0
M  V30 51 H -2.357017 -0.011322 0.611876 0
M  V30 52 H -4.222028 -0.764949 0.619122 0
M  V30 53 H -6.928232 0.158917 0.252380 0
M  V30 54 H -5.569748 -2.215075 -0.790337 0
M  V30 55 H -7.152523 -1.496129 -1.218069 0
M  V30 56 H -8.116053 -2.304340 0.945613 0
M  V30 57 H -7.666813 -3.590070 -0.178338 0
M  V30 58 H -4.829785 -4.880738 1.180559 0
M  V30 59 H -5.560291 -4.204519 -0.357612 0
M  V30 60 H -4.431704 -3.232163 0.621588 0
M  V30 61 H -4.692487 -2.400869 2.304271 0
M  V30 62 H -6.115490 -2.582269 3.347418 0
M  V30 63 H -7.394218 -0.984278 2.316305 0
M  V30 64 H -5.834354 -0.273636 2.682084 0
M  V30 65 H -3.662092 2.900560 -2.189703 0
M  V30 66 H -1.932124 5.093196 -4.331118 0
M  V30 67 H -3.009245 3.651375 -3.968645 0
M  V30 68 H -2.897327 5.015742 -2.833210 0
M  V30 69 H 2.627102 -2.144901 -1.226963 0
M  V30 70 H 3.943042 -1.245148 -2.111270 0
M  V30 71 H 3.431212 -4.641921 -0.429065 0
M  V30 72 H 5.331650 -6.335450 -0.807075 0
M  V30 73 H 7.445428 -5.350218 -1.916964 0
M  V30 END ATOM
M  V30 BEGIN BOND
M  V30 1 1 1 2
M  V30 2 1 2 3
M  V30 3 1 3 4
M  V30 4 2 4 5
M  V30 5 1 5 6
M  V30 6 2 6 7
M  V30 7 1 7 8
M  V30 8 1 8 9
M  V30 9 2 9 10
M  V30 10 1 10 11
M  V30 11 2 11 12
M  V30 12 1 12 13
M  V30 13 1 13 14
M  V30 14 2 14 15
M  V30 15 1 15 16
M  V30 16 2 16 17
M  V30 17 1 17 18
M  V30 18 2 18 19
M  V30 19 1 18 20
M  V30 20 1 20 21
M  V30 21 1 21 22
M  V30 22 1 22 23
M  V30 23 1 23 24
M  V30 24 1 24 25
M  V30 25 1 24 26
M  V30 26 1 26 27
M  V30 27 1 17 28
M  V30 28 2 28 29
M  V30 29 1 29 30
M  V30 30 1 30 31
M  V30 31 1 12 32
M  V30 32 2 32 33
M  V30 33 1 33 34
M  V30 34 1 34 35
M  V30 35 1 35 36
M  V30 36 2 36 37
M  V30 37 1 37 38
M  V30 38 2 38 39
M  V30 39 1 39 40
M  V30 40 1 34 3
M  V30 41 1 40 36
M  V30 42 1 8 4
M  V30 43 1 33 9
M  V30 44 1 29 14
M  V30 45 1 27 21
M  V30 46 1 1 41
M  V30 47 1 1 42
M  V30 48 1 1 43
M  V30 49 1 2 44
M  V30 50 1 2 45
M  V30 51 1 3 46 CFG=3
M  V30 52 1 7 47
M  V30 53 1 10 48
M  V30 54 1 13 49
M  V30 55 1 15 50
M  V30 56 1 16 51
M  V30 57 1 20 52
M  V30 58 1 21 53
M  V30 59 1 22 54
M  V30 60 1 22 55
M  V30 61 1 23 56
M  V30 62 1 23 57
M  V30 63 1 25 58
M  V30 64 1 25 59
M  V30 65 1 25 60
M  V30 66 1 26 61
M  V30 67 1 26 62
M  V30 68 1 27 63
M  V30 69 1 27 64
M  V30 70 1 28 65
M  V30 71 1 31 66
M  V30 72 1 31 67
M  V30 73 1 31 68
M  V30 74 1 35 69
M  V30 75 1 35 70
M  V30 76 1 37 71
M  V30 77 1 38 72
M  V30 78 1 39 73
M  V30 END BOND
M  V30 END CTAB
M  END
>  <Dataset>  (440) 
ChEMBL_Kinases

>  <Ligand_Instance>  (440) 
nan

>  <PDB_ID>  (440) 
nan

>  <Standardized_SMILES>  (440) 
CC[C@@H]1c2nncn2-c2cnc(Nc3ccc(C(=O)NC4CCN(C)CC4)cc3OC)nc2N1Cc1cccs1

>  <Name>  (440) 
nan

>  <Pocket>  (440) 
nan

>  <ATP_Site>  (440) 
nan

>  <Peripheral>  (440) 
nan

>  <Num_H_Atoms_ProtBoundConf>  (440) 
nan

>  <Num_Resolved_Atoms>  (440) 
nan

>  <Num_Not_Resolved_Atoms>  (440) 
nan

$$$$
CHEMBL4791767
     RDKit          3D

  0  0  0  0  0  0  0  0  0  0999 V3000
M  V30 BEGIN CTAB
M  V30 COUNTS 51 54 0 0 0
M  V30 BEGIN ATOM
M  V30 1 C 3.490712 -7.119813 1.235400 0
M  V30 2 C 2.566934 -6.725760 0.383212 0
M  V30 3 C 2.778468 -5.472773 -0.300907 0
M  V30 4 O 3.808027 -5.585303 0.433888 0
M  V30 5 N 2.951312 -4.259347 -0.984010 0
M  V30 6 C 4.098787 -3.394890 -0.811486 0
M  V30 7 C 3.603196 -2.021193 -0.528739 0
M  V30 8 C 2.539909 -1.602836 -1.191254 0
M  V30 9 C 2.019490 -0.264831 -0.946424 0
M  V30 10 C 2.549611 0.635202 -0.047961 0
M  V30 11 C 2.073693 1.905072 0.198352 0
M  V30 12 C 0.969453 2.329157 -0.507635 0
M  V30 13 C 0.395780 3.689597 -0.293135 0
M  V30 14 C -0.638347 3.684461 0.802531 0
M  V30 15 O -0.952231 4.807062 1.310802 0
M  V30 16 N -1.173835 2.422179 1.174429 0
M  V30 17 C -2.139791 2.010851 2.132369 0
M  V30 18 C -3.500803 1.787365 2.196100 0
M  V30 19 C -3.772329 1.389504 3.512177 0
M  V30 20 C -5.170828 1.075075 3.876060 0
M  V30 21 C -6.266915 1.858972 3.247174 0
M  V30 22 C -6.075719 0.399819 2.928666 0
M  V30 23 N -2.600474 1.386563 4.178734 0
M  V30 24 N -1.621463 1.753806 3.370608 0
M  V30 25 C 0.428233 1.432836 -1.413307 0
M  V30 26 N 0.943538 0.203871 -1.606284 0
M  V30 27 C 1.837433 -2.443953 -2.189309 0
M  V30 28 C 1.882358 -3.908150 -1.895097 0
M  V30 29 H 4.360431 -7.216989 1.858409 0
M  V30 30 H 3.381074 -8.047790 1.773107 0
M  V30 31 H 1.710234 -7.320191 0.221375 0
M  V30 32 H 4.745772 -3.774049 0.000550 0
M  V30 33 H 4.699370 -3.330321 -1.737900 0
M  V30 34 H 4.152687 -1.457605 0.206543 0
M  V30 35 H 3.408702 0.371969 0.535208 0
M  V30 36 H 2.535746 2.569938 0.919914 0
M  V30 37 H 1.226190 4.399328 -0.010390 0
M  V30 38 H -0.089138 4.073496 -1.202804 0
M  V30 39 H -0.832957 1.549705 0.681682 0
M  V30 40 H -4.042114 1.953793 1.274023 0
M  V30 41 H -5.298662 0.788088 4.954483 0
M  V30 42 H -5.963474 2.534844 2.436703 0
M  V30 43 H -7.102822 2.202588 3.881854 0
M  V30 44 H -5.785864 0.109570 1.900663 0
M  V30 45 H -6.879175 -0.253528 3.345030 0
M  V30 46 H -2.592473 1.109070 5.206008 0
M  V30 47 H -0.445303 1.758022 -1.977963 0
M  V30 48 H 2.356086 -2.256375 -3.169245 0
M  V30 49 H 0.766446 -2.145336 -2.290177 0
M  V30 50 H 0.904798 -4.250599 -1.488738 0
M  V30 51 H 2.007949 -4.466878 -2.858632 0
M  V30 END ATOM
M  V30 BEGIN BOND
M  V30 1 2 1 2
M  V30 2 1 2 3
M  V30 3 2 3 4
M  V30 4 1 3 5
M  V30 5 1 5 6
M  V30 6 1 6 7
M  V30 7 2 7 8
M  V30 8 1 8 9
M  V30 9 2 9 10
M  V30 10 1 10 11
M  V30 11 2 11 12
M  V30 12 1 12 13
M  V30 13 1 13 14
M  V30 14 2 14 15
M  V30 15 1 14 16
M  V30 16 1 16 17
M  V30 17 1 17 18
M  V30 18 2 18 19
M  V30 19 1 19 20
M  V30 20 1 20 21
M  V30 21 1 21 22
M  V30 22 1 19 23
M  V30 23 1 23 24
M  V30 24 1 12 25
M  V30 25 2 25 26
M  V30 26 1 8 27
M  V30 27 1 27 28
M  V30 28 1 28 5
M  V30 29 1 26 9
M  V30 30 2 24 17
M  V30 31 1 22 20
M  V30 32 1 1 29
M  V30 33 1 1 30
M  V30 34 1 2 31
M  V30 35 1 6 32
M  V30 36 1 6 33
M  V30 37 1 7 34
M  V30 38 1 10 35
M  V30 39 1 11 36
M  V30 40 1 13 37
M  V30 41 1 13 38
M  V30 42 1 16 39
M  V30 43 1 18 40
M  V30 44 1 20 41
M  V30 45 1 21 42
M  V30 46 1 21 43
M  V30 47 1 22 44
M  V30 48 1 22 45
M  V30 49 1 23 46
M  V30 50 1 25 47
M  V30 51 1 27 48
M  V30 52 1 27 49
M  V30 53 1 28 50
M  V30 54 1 28 51
M  V30 END BOND
M  V30 END CTAB
M  END
>  <Dataset>  (441) 
ChEMBL_Kinases

>  <Ligand_Instance>  (441) 
nan

>  <PDB_ID>  (441) 
nan

>  <Standardized_SMILES>  (441) 
C=CC(=O)N1CC=C(c2ccc(CC(=O)Nc3cc(C4CC4)[nH]n3)cn2)CC1

>  <Name>  (441) 
nan

>  <Pocket>  (441) 
nan

>  <ATP_Site>  (441) 
nan

>  <Peripheral>  (441) 
nan

>  <Num_H_Atoms_ProtBoundConf>  (441) 
nan

>  <Num_Resolved_Atoms>  (441) 
nan

>  <Num_Not_Resolved_Atoms>  (441) 
nan

$$$$
CHEMBL4791801
     RDKit          3D

  0  0  0  0  0  0  0  0  0  0999 V3000
M  V30 BEGIN CTAB
M  V30 COUNTS 50 54 0 0 0
M  V30 BEGIN ATOM
M  V30 1 O 2.499741 -0.429457 1.850020 0
M  V30 2 C 3.136053 0.505424 1.318288 0
M  V30 3 N 4.344512 0.905764 1.891211 0
M  V30 4 C 5.027210 0.437712 3.013908 0
M  V30 5 C 6.224588 1.013469 3.375426 0
M  V30 6 C 6.952496 0.603377 4.470099 0
M  V30 7 C 6.508455 -0.425132 5.274107 0
M  V30 8 C 5.315669 -1.033879 4.954490 0
M  V30 9 C 4.632778 -0.579232 3.847042 0
M  V30 10 N 2.528675 1.058251 0.162454 0
M  V30 11 C 1.280610 0.451892 -0.207232 0
M  V30 12 C 1.221615 -0.631034 -1.068261 0
M  V30 13 C -0.043124 -1.150772 -1.367080 0
M  V30 14 C -1.161023 -0.582802 -0.809173 0
M  V30 15 C -1.087384 0.500938 0.051152 0
M  V30 16 C 0.154356 1.019729 0.351342 0
M  V30 17 O -2.156987 1.161746 0.678873 0
M  V30 18 C -3.393180 0.593771 1.028291 0
M  V30 19 C -3.930334 1.175440 2.158171 0
M  V30 20 C -5.162037 0.721704 2.638748 0
M  V30 21 C -5.822785 -0.300206 1.977491 0
M  V30 22 C -5.311497 -0.899527 0.848113 0
M  V30 23 C -4.098206 -0.433545 0.397183 0
M  V30 24 C -3.657741 -1.150064 -0.812108 0
M  V30 25 O -4.621548 -1.666330 -1.462473 0
M  V30 26 N -2.302356 -1.292822 -1.271663 0
M  V30 27 C -2.181591 -2.270166 -2.299574 0
M  V30 28 C -2.337851 -1.754800 -3.590326 0
M  V30 29 C -2.248610 -2.580705 -4.712678 0
M  V30 30 N -2.008912 -3.885792 -4.532616 0
M  V30 31 C -1.856760 -4.396476 -3.306814 0
M  V30 32 C -1.935984 -3.622340 -2.167209 0
M  V30 33 H 4.765387 1.703767 1.332721 0
M  V30 34 H 6.617527 1.838793 2.761581 0
M  V30 35 H 7.876737 1.117022 4.669467 0
M  V30 36 H 7.062747 -0.763434 6.137635 0
M  V30 37 H 4.954204 -1.840174 5.573362 0
M  V30 38 H 3.712282 -1.097191 3.655842 0
M  V30 39 H 3.038740 1.854155 -0.317308 0
M  V30 40 H 2.162811 -1.016814 -1.464041 0
M  V30 41 H -0.091008 -1.988832 -2.033210 0
M  V30 42 H 0.174328 1.868731 1.028813 0
M  V30 43 H -3.376606 1.974852 2.645055 0
M  V30 44 H -5.502981 1.233672 3.524460 0
M  V30 45 H -6.784368 -0.616014 2.398035 0
M  V30 46 H -5.826136 -1.691194 0.338112 0
M  V30 47 H -2.536169 -0.692624 -3.800951 0
M  V30 48 H -2.366479 -2.201999 -5.721367 0
M  V30 49 H -1.660246 -5.445994 -3.087644 0
M  V30 50 H -1.828094 -3.942296 -1.150501 0
M  V30 END ATOM
M  V30 BEGIN BOND
M  V30 1 2 1 2
M  V30 2 1 2 3
M  V30 3 1 3 4
M  V30 4 2 4 5
M  V30 5 1 5 6
M  V30 6 2 6 7
M  V30 7 1 7 8
M  V30 8 2 8 9
M  V30 9 1 2 10
M  V30 10 1 10 11
M  V30 11 2 11 12
M  V30 12 1 12 13
M  V30 13 2 13 14
M  V30 14 1 14 15
M  V30 15 2 15 16
M  V30 16 1 15 17
M  V30 17 1 17 18
M  V30 18 2 18 19
M  V30 19 1 19 20
M  V30 20 2 20 21
M  V30 21 1 21 22
M  V30 22 2 22 23
M  V30 23 1 23 24
M  V30 24 2 24 25
M  V30 25 1 24 26
M  V30 26 1 26 27
M  V30 27 2 27 28
M  V30 28 1 28 29
M  V30 29 2 29 30
M  V30 30 1 30 31
M  V30 31 2 31 32
M  V30 32 1 9 4
M  V30 33 1 16 11
M  V30 34 1 23 18
M  V30 35 1 32 27
M  V30 36 1 26 14
M  V30 37 1 3 33
M  V30 38 1 5 34
M  V30 39 1 6 35
M  V30 40 1 7 36
M  V30 41 1 8 37
M  V30 42 1 9 38
M  V30 43 1 10 39
M  V30 44 1 12 40
M  V30 45 1 13 41
M  V30 46 1 16 42
M  V30 47 1 19 43
M  V30 48 1 20 44
M  V30 49 1 21 45
M  V30 50 1 22 46
M  V30 51 1 28 47
M  V30 52 1 29 48
M  V30 53 1 31 49
M  V30 54 1 32 50
M  V30 END BOND
M  V30 END CTAB
M  END
>  <Dataset>  (442) 
ChEMBL_Kinases

>  <Ligand_Instance>  (442) 
nan

>  <PDB_ID>  (442) 
nan

>  <Standardized_SMILES>  (442) 
O=C(Nc1ccccc1)Nc1ccc2c(c1)Oc1ccccc1C(=O)N2c1ccncc1

>  <Name>  (442) 
nan

>  <Pocket>  (442) 
nan

>  <ATP_Site>  (442) 
nan

>  <Peripheral>  (442) 
nan

>  <Num_H_Atoms_ProtBoundConf>  (442) 
nan

>  <Num_Resolved_Atoms>  (442) 
nan

>  <Num_Not_Resolved_Atoms>  (442) 
nan

$$$$
CHEMBL4128625
     RDKit          3D

  0  0  0  0  0  0  0  0  0  0999 V3000
M  V30 BEGIN CTAB
M  V30 COUNTS 50 53 0 0 0
M  V30 BEGIN ATOM
M  V30 1 C -0.774187 3.094538 5.580204 0
M  V30 2 O -0.942285 2.529372 4.301441 0
M  V30 3 C 0.194992 2.214855 3.569898 0
M  V30 4 C 1.486073 2.420861 4.015865 0
M  V30 5 C 2.572199 2.083533 3.233476 0
M  V30 6 C 2.405389 1.529251 1.979874 0
M  V30 7 C 3.481872 1.137401 1.073229 0
M  V30 8 C 3.269741 0.072045 0.218029 0
M  V30 9 C 4.238693 -0.364917 -0.674692 0
M  V30 10 C 5.461660 0.296151 -0.704161 0
M  V30 11 C 5.705525 1.372553 0.144797 0
M  V30 12 C 4.720492 1.779694 1.018760 0
M  V30 13 C 1.085249 1.333324 1.557128 0
M  V30 14 C -0.015864 1.663064 2.322331 0
M  V30 15 N -1.331309 1.433386 1.821214 0
M  V30 16 C -1.612818 0.864824 0.542772 0
M  V30 17 N -1.737946 1.690278 -0.513727 0
M  V30 18 C -2.002873 1.236824 -1.752478 0
M  V30 19 C -2.145229 -0.128386 -1.908305 0
M  V30 20 C -2.025139 -1.009294 -0.853605 0
M  V30 21 C -2.167746 -2.455434 -0.972073 0
M  V30 22 C -2.014598 -3.183503 0.194824 0
M  V30 23 C -2.139365 -4.576261 0.152658 0
M  V30 24 C -2.411688 -5.154739 -1.066233 0
M  V30 25 C -2.542676 -6.605353 -1.116687 0
M  V30 26 N -2.822075 -7.324085 -2.311234 0
M  V30 27 O -2.422967 -7.354129 -0.121860 0
M  V30 28 C -2.568163 -4.449981 -2.241213 0
M  V30 29 C -2.436485 -3.069870 -2.154998 0
M  V30 30 N -1.760058 -0.443168 0.333544 0
M  V30 31 H -1.721327 3.494953 5.992043 0
M  V30 32 H -0.402601 2.335147 6.322114 0
M  V30 33 H -0.013262 3.905811 5.583562 0
M  V30 34 H 1.634163 2.854545 4.997685 0
M  V30 35 H 3.590685 2.237958 3.567212 0
M  V30 36 H 2.341664 -0.482205 0.192875 0
M  V30 37 H 4.038291 -1.215421 -1.341338 0
M  V30 38 H 6.196985 -0.077624 -1.419531 0
M  V30 39 H 6.666369 1.868342 0.100720 0
M  V30 40 H 4.891689 2.612896 1.685267 0
M  V30 41 H 0.897557 0.904111 0.587508 0
M  V30 42 H -2.146864 1.690778 2.411848 0
M  V30 43 H -2.097807 1.925848 -2.584189 0
M  V30 44 H -2.356042 -0.507732 -2.883789 0
M  V30 45 H -1.799732 -2.720548 1.154127 0
M  V30 46 H -2.032252 -5.205220 1.025009 0
M  V30 47 H -2.425961 -7.627703 -3.230600 0
M  V30 48 H -3.770827 -7.774849 -2.436697 0
M  V30 49 H -2.779872 -4.968953 -3.157260 0
M  V30 50 H -2.557748 -2.524405 -3.066077 0
M  V30 END ATOM
M  V30 BEGIN BOND
M  V30 1 1 1 2
M  V30 2 1 2 3
M  V30 3 2 3 4
M  V30 4 1 4 5
M  V30 5 2 5 6
M  V30 6 1 6 7
M  V30 7 2 7 8
M  V30 8 1 8 9
M  V30 9 2 9 10
M  V30 10 1 10 11
M  V30 11 2 11 12
M  V30 12 1 6 13
M  V30 13 2 13 14
M  V30 14 1 14 15
M  V30 15 1 15 16
M  V30 16 2 16 17
M  V30 17 1 17 18
M  V30 18 2 18 19
M  V30 19 1 19 20
M  V30 20 1 20 21
M  V30 21 2 21 22
M  V30 22 1 22 23
M  V30 23 2 23 24
M  V30 24 1 24 25
M  V30 25 1 25 26
M  V30 26 2 25 27
M  V30 27 1 24 28
M  V30 28 2 28 29
M  V30 29 2 20 30
M  V30 30 1 14 3
M  V30 31 1 30 16
M  V30 32 1 12 7
M  V30 33 1 29 21
M  V30 34 1 1 31
M  V30 35 1 1 32
M  V30 36 1 1 33
M  V30 37 1 4 34
M  V30 38 1 5 35
M  V30 39 1 8 36
M  V30 40 1 9 37
M  V30 41 1 10 38
M  V30 42 1 11 39
M  V30 43 1 12 40
M  V30 44 1 13 41
M  V30 45 1 15 42
M  V30 46 1 18 43
M  V30 47 1 19 44
M  V30 48 1 22 45
M  V30 49 1 23 46
M  V30 50 1 26 47
M  V30 51 1 26 48
M  V30 52 1 28 49
M  V30 53 1 29 50
M  V30 END BOND
M  V30 END CTAB
M  END
>  <Dataset>  (443) 
ChEMBL_Kinases

>  <Ligand_Instance>  (443) 
nan

>  <PDB_ID>  (443) 
nan

>  <Standardized_SMILES>  (443) 
COc1ccc(-c2ccccc2)cc1Nc1nccc(-c2ccc(C(N)=O)cc2)n1

>  <Name>  (443) 
nan

>  <Pocket>  (443) 
nan

>  <ATP_Site>  (443) 
nan

>  <Peripheral>  (443) 
nan

>  <Num_H_Atoms_ProtBoundConf>  (443) 
nan

>  <Num_Resolved_Atoms>  (443) 
nan

>  <Num_Not_Resolved_Atoms>  (443) 
nan

$$$$
CHEMBL4128540
     RDKit          3D

  0  0  0  0  0  0  0  0  0  0999 V3000
M  V30 BEGIN CTAB
M  V30 COUNTS 68 72 0 0 0
M  V30 BEGIN ATOM
M  V30 1 C 3.604242 -0.449573 -0.677451 0
M  V30 2 C 2.415851 0.102369 -0.018483 0
M  V30 3 C 2.448238 1.417879 0.397190 0
M  V30 4 C 1.418665 2.062393 1.037023 0
M  V30 5 O 1.323149 3.350066 1.495748 0
M  V30 6 C 2.210832 4.395309 1.455837 0
M  V30 7 C 2.653922 4.909388 0.136016 0
M  V30 8 N 1.611384 5.416506 -0.719463 0
M  V30 9 C 0.722657 4.415001 -1.200454 0
M  V30 10 C -0.041853 4.741522 -2.434168 0
M  V30 11 O -0.017218 6.128224 -2.698034 0
M  V30 12 C 1.345789 6.388446 -2.971986 0
M  V30 13 C 2.064923 6.384044 -1.661527 0
M  V30 14 C 0.291182 1.296227 1.257882 0
M  V30 15 C 0.235854 -0.017028 0.852279 0
M  V30 16 C 1.285061 -0.643034 0.209625 0
M  V30 17 C 1.124861 -2.021487 -0.200460 0
M  V30 18 C 0.017439 -2.785122 0.129527 0
M  V30 19 C 0.087961 -4.069764 -0.350632 0
M  V30 20 C -0.710145 -5.192297 -0.311880 0
M  V30 21 C -1.966556 -5.157689 0.388911 0
M  V30 22 C -3.080172 -5.663393 -0.282216 0
M  V30 23 C -4.333579 -5.674785 0.326068 0
M  V30 24 C -4.529583 -5.193859 1.600997 0
M  V30 25 C -5.804904 -5.198185 2.236504 0
M  V30 26 N -6.842866 -5.218869 2.757986 0
M  V30 27 C -3.441057 -4.692896 2.273389 0
M  V30 28 C -3.620345 -4.169423 3.650163 0
M  V30 29 C -3.395591 -5.256993 4.683725 0
M  V30 30 C -2.585269 -3.092310 3.894810 0
M  V30 31 C -2.209043 -4.687741 1.661093 0
M  V30 32 C -0.339498 -6.360652 -0.916529 0
M  V30 33 C 0.880173 -6.348065 -1.566405 0
M  V30 34 N 1.666692 -5.258804 -1.609851 0
M  V30 35 C 1.292610 -4.113947 -1.011718 0
M  V30 36 N 1.839363 -2.910216 -0.889938 0
M  V30 37 H 4.436773 0.325845 -0.580357 0
M  V30 38 H 4.061176 -1.312933 -0.108995 0
M  V30 39 H 3.532673 -0.612778 -1.750499 0
M  V30 40 H 3.322569 2.012684 0.233526 0
M  V30 41 H 3.156993 4.104046 2.010958 0
M  V30 42 H 1.789513 5.214359 2.107686 0
M  V30 43 H 3.327327 4.259405 -0.440768 0
M  V30 44 H 3.295982 5.821058 0.364738 0
M  V30 45 H 1.362654 3.521332 -1.460977 0
M  V30 46 H -0.004011 4.128519 -0.392020 0
M  V30 47 H 0.281728 4.170768 -3.331279 0
M  V30 48 H -1.107163 4.488136 -2.283881 0
M  V30 49 H 1.683325 5.548986 -3.626224 0
M  V30 50 H 1.485007 7.361892 -3.475612 0
M  V30 51 H 3.144384 6.166232 -1.894277 0
M  V30 52 H 2.038441 7.413814 -1.237383 0
M  V30 53 H -0.596524 1.701861 1.761032 0
M  V30 54 H -0.701972 -0.555048 1.067740 0
M  V30 55 H -0.885518 -2.514683 0.702995 0
M  V30 56 H -3.047145 -6.070851 -1.295468 0
M  V30 57 H -5.203039 -6.066614 -0.190160 0
M  V30 58 H -4.626223 -3.707340 3.783132 0
M  V30 59 H -3.952046 -4.954574 5.590261 0
M  V30 60 H -3.635393 -6.264923 4.325359 0
M  V30 61 H -2.313742 -5.244399 4.976970 0
M  V30 62 H -1.566538 -3.474278 4.047438 0
M  V30 63 H -2.587822 -2.439698 3.000892 0
M  V30 64 H -2.868168 -2.539590 4.822137 0
M  V30 65 H -1.358295 -4.298462 2.195768 0
M  V30 66 H -0.943597 -7.261684 -0.905414 0
M  V30 67 H 1.281799 -7.209259 -2.081366 0
M  V30 68 H 2.756461 -2.723927 -1.324763 0
M  V30 END ATOM
M  V30 BEGIN BOND
M  V30 1 1 1 2
M  V30 2 2 2 3
M  V30 3 1 3 4
M  V30 4 1 4 5
M  V30 5 1 5 6
M  V30 6 1 6 7
M  V30 7 1 7 8
M  V30 8 1 8 9
M  V30 9 1 9 10
M  V30 10 1 10 11
M  V30 11 1 11 12
M  V30 12 1 12 13
M  V30 13 2 4 14
M  V30 14 1 14 15
M  V30 15 2 15 16
M  V30 16 1 16 17
M  V30 17 2 17 18
M  V30 18 1 18 19
M  V30 19 2 19 20
M  V30 20 1 20 21
M  V30 21 2 21 22
M  V30 22 1 22 23
M  V30 23 2 23 24
M  V30 24 1 24 25
M  V30 25 3 25 26
M  V30 26 1 24 27
M  V30 27 1 27 28
M  V30 28 1 28 29
M  V30 29 1 28 30
M  V30 30 2 27 31
M  V30 31 1 20 32
M  V30 32 2 32 33
M  V30 33 1 33 34
M  V30 34 2 34 35
M  V30 35 1 35 36
M  V30 36 1 16 2
M  V30 37 1 36 17
M  V30 38 1 13 8
M  V30 39 1 35 19
M  V30 40 1 31 21
M  V30 41 1 1 37
M  V30 42 1 1 38
M  V30 43 1 1 39
M  V30 44 1 3 40
M  V30 45 1 6 41
M  V30 46 1 6 42
M  V30 47 1 7 43
M  V30 48 1 7 44
M  V30 49 1 9 45
M  V30 50 1 9 46
M  V30 51 1 10 47
M  V30 52 1 10 48
M  V30 53 1 12 49
M  V30 54 1 12 50
M  V30 55 1 13 51
M  V30 56 1 13 52
M  V30 57 1 14 53
M  V30 58 1 15 54
M  V30 59 1 18 55
M  V30 60 1 22 56
M  V30 61 1 23 57
M  V30 62 1 28 58
M  V30 63 1 29 59
M  V30 64 1 29 60
M  V30 65 1 29 61
M  V30 66 1 30 62
M  V30 67 1 30 63
M  V30 68 1 30 64
M  V30 69 1 31 65
M  V30 70 1 32 66
M  V30 71 1 33 67
M  V30 72 1 36 68
M  V30 END BOND
M  V30 END CTAB
M  END
>  <Dataset>  (444) 
ChEMBL_Kinases

>  <Ligand_Instance>  (444) 
nan

>  <PDB_ID>  (444) 
nan

>  <Standardized_SMILES>  (444) 
Cc1cc(OCCN2CCOCC2)ccc1-c1cc2c(-c3ccc(C#N)c(C(C)C)c3)ccnc2[nH]1

>  <Name>  (444) 
nan

>  <Pocket>  (444) 
nan

>  <ATP_Site>  (444) 
nan

>  <Peripheral>  (444) 
nan

>  <Num_H_Atoms_ProtBoundConf>  (444) 
nan

>  <Num_Resolved_Atoms>  (444) 
nan

>  <Num_Not_Resolved_Atoms>  (444) 
nan

$$$$
CHEMBL4791626
     RDKit          3D

  0  0  0  0  0  0  0  0  0  0999 V3000
M  V30 BEGIN CTAB
M  V30 COUNTS 55 57 0 0 0
M  V30 BEGIN ATOM
M  V30 1 C 4.820277 -2.424406 4.894467 0
M  V30 2 N 4.762046 -2.090355 3.468259 0
M  V30 3 C 5.703261 -2.973642 2.785858 0
M  V30 4 C 5.120527 -0.700529 3.307346 0
M  V30 5 C 5.076260 -0.285119 1.833181 0
M  V30 6 N 3.732213 -0.482090 1.320513 0
M  V30 7 C 2.772785 0.460307 1.359279 0
M  V30 8 C 1.626921 -0.080708 0.782075 0
M  V30 9 C 0.328010 0.350235 0.518263 0
M  V30 10 C -0.592086 -0.472462 -0.090505 0
M  V30 11 N -1.838523 0.151128 -0.268563 0
M  V30 12 C -3.027049 0.278548 0.507942 0
M  V30 13 O -3.091267 -0.254953 1.644779 0
M  V30 14 C -4.117973 1.042692 -0.090980 0
M  V30 15 C -5.266162 1.162614 0.665292 0
M  V30 16 C -6.364008 1.845295 0.237295 0
M  V30 17 C -6.274222 2.420536 -1.006397 0
M  V30 18 C -5.127902 2.303931 -1.767762 0
M  V30 19 C -5.093273 2.945687 -3.098892 0
M  V30 20 F -4.181650 2.310075 -3.900310 0
M  V30 21 F -4.759659 4.283334 -2.889294 0
M  V30 22 F -6.349919 2.851057 -3.692908 0
M  V30 23 N -4.083173 1.616320 -1.283716 0
M  V30 24 C -0.281645 -1.762347 -0.471587 0
M  V30 25 C -1.318434 -2.594166 -1.123311 0
M  V30 26 C -1.740209 -2.060485 -2.471768 0
M  V30 27 C -2.488462 -2.904554 -0.231978 0
M  V30 28 O -0.688990 -3.822980 -1.379378 0
M  V30 29 C 1.013333 -2.184471 -0.205816 0
M  V30 30 C 1.955442 -1.379983 0.403437 0
M  V30 31 N 3.251461 -1.574157 0.754710 0
M  V30 32 H 5.516065 -1.796844 5.455548 0
M  V30 33 H 5.126982 -3.475762 5.072637 0
M  V30 34 H 3.790037 -2.349427 5.343647 0
M  V30 35 H 5.399290 -3.127042 1.724114 0
M  V30 36 H 6.729074 -2.546218 2.795211 0
M  V30 37 H 5.718750 -3.980650 3.252450 0
M  V30 38 H 4.329188 -0.127647 3.861429 0
M  V30 39 H 6.085425 -0.472861 3.753986 0
M  V30 40 H 5.381253 0.759680 1.757904 0
M  V30 41 H 5.735804 -0.997667 1.311069 0
M  V30 42 H 2.781584 1.486934 1.746314 0
M  V30 43 H 0.158294 1.363173 0.841917 0
M  V30 44 H -1.775389 0.593027 -1.218817 0
M  V30 45 H -5.334044 0.700399 1.661167 0
M  V30 46 H -7.283640 1.948443 0.828416 0
M  V30 47 H -7.161158 2.973013 -1.354227 0
M  V30 48 H -1.567827 -2.775892 -3.309823 0
M  V30 49 H -2.860790 -1.919250 -2.477278 0
M  V30 50 H -1.196582 -1.138336 -2.778045 0
M  V30 51 H -2.744063 -3.978025 -0.332833 0
M  V30 52 H -3.375718 -2.358316 -0.613207 0
M  V30 53 H -2.281495 -2.755192 0.841586 0
M  V30 54 H 0.024320 -3.743053 -2.065090 0
M  V30 55 H 1.271790 -3.197772 -0.500360 0
M  V30 END ATOM
M  V30 BEGIN BOND
M  V30 1 1 1 2
M  V30 2 1 2 3
M  V30 3 1 2 4
M  V30 4 1 4 5
M  V30 5 1 5 6
M  V30 6 1 6 7
M  V30 7 2 7 8
M  V30 8 1 8 9
M  V30 9 2 9 10
M  V30 10 1 10 11
M  V30 11 1 11 12
M  V30 12 2 12 13
M  V30 13 1 12 14
M  V30 14 2 14 15
M  V30 15 1 15 16
M  V30 16 2 16 17
M  V30 17 1 17 18
M  V30 18 1 18 19
M  V30 19 1 19 20
M  V30 20 1 19 21
M  V30 21 1 19 22
M  V30 22 2 18 23
M  V30 23 1 10 24
M  V30 24 1 24 25
M  V30 25 1 25 26
M  V30 26 1 25 27
M  V30 27 1 25 28
M  V30 28 2 24 29
M  V30 29 1 29 30
M  V30 30 2 30 31
M  V30 31 1 31 6
M  V30 32 1 30 8
M  V30 33 1 23 14
M  V30 34 1 1 32
M  V30 35 1 1 33
M  V30 36 1 1 34
M  V30 37 1 3 35
M  V30 38 1 3 36
M  V30 39 1 3 37
M  V30 40 1 4 38
M  V30 41 1 4 39
M  V30 42 1 5 40
M  V30 43 1 5 41
M  V30 44 1 7 42
M  V30 45 1 9 43
M  V30 46 1 11 44
M  V30 47 1 15 45
M  V30 48 1 16 46
M  V30 49 1 17 47
M  V30 50 1 26 48
M  V30 51 1 26 49
M  V30 52 1 26 50
M  V30 53 1 27 51
M  V30 54 1 27 52
M  V30 55 1 27 53
M  V30 56 1 28 54
M  V30 57 1 29 55
M  V30 END BOND
M  V30 END CTAB
M  END
>  <Dataset>  (445) 
ChEMBL_Kinases

>  <Ligand_Instance>  (445) 
nan

>  <PDB_ID>  (445) 
nan

>  <Standardized_SMILES>  (445) 
CN(C)CCn1cc2cc(NC(=O)c3cccc(C(F)(F)F)n3)c(C(C)(C)O)cc2n1

>  <Name>  (445) 
nan

>  <Pocket>  (445) 
nan

>  <ATP_Site>  (445) 
nan

>  <Peripheral>  (445) 
nan

>  <Num_H_Atoms_ProtBoundConf>  (445) 
nan

>  <Num_Resolved_Atoms>  (445) 
nan

>  <Num_Not_Resolved_Atoms>  (445) 
nan

$$$$
CHEMBL4790340
     RDKit          3D

  0  0  0  0  0  0  0  0  0  0999 V3000
M  V30 BEGIN CTAB
M  V30 COUNTS 35 36 0 0 0
M  V30 BEGIN ATOM
M  V30 1 C 0.192492 -4.451868 5.698859 0
M  V30 2 O 1.008906 -4.824876 4.578842 0
M  V30 3 C 1.033916 -3.932944 3.515455 0
M  V30 4 C 1.802135 -4.240047 2.411566 0
M  V30 5 C 1.871084 -3.399006 1.323013 0
M  V30 6 C 1.183298 -2.208655 1.268535 0
M  V30 7 N 1.309691 -1.403605 0.112353 0
M  V30 8 C 0.716782 -0.168797 -0.172328 0
M  V30 9 O -0.049334 0.372119 0.661112 0
M  V30 10 C 0.913454 0.602743 -1.423287 0
M  V30 11 C 0.149123 1.883453 -1.435666 0
M  V30 12 S 0.478838 2.720307 -3.012820 0
M  V30 13 C -0.943957 3.826043 -3.313484 0
M  V30 14 C -1.630372 4.021359 -1.966213 0
M  V30 15 N -2.154204 2.745196 -1.490550 0
M  V30 16 C -1.325368 1.583176 -1.446208 0
M  V30 17 O -1.906733 0.472276 -1.421712 0
M  V30 18 C 0.429441 -1.935790 2.384240 0
M  V30 19 C 0.330603 -2.746200 3.494463 0
M  V30 20 H -0.840387 -4.178958 5.335284 0
M  V30 21 H 0.610409 -3.483752 6.056645 0
M  V30 22 H 0.144900 -5.218358 6.472134 0
M  V30 23 H 2.378055 -5.149938 2.358233 0
M  V30 24 H 2.497846 -3.686468 0.464419 0
M  V30 25 H 1.913821 -1.721370 -0.668785 0
M  V30 26 H 0.628811 -0.046113 -2.266777 0
M  V30 27 H 2.006107 0.838534 -1.501149 0
M  V30 28 H 0.407041 2.531352 -0.592848 0
M  V30 29 H -1.652668 3.312868 -3.975953 0
M  V30 30 H -0.609070 4.797867 -3.685532 0
M  V30 31 H -2.490944 4.673053 -2.140887 0
M  V30 32 H -0.930953 4.416440 -1.202902 0
M  V30 33 H -3.161097 2.642282 -1.164987 0
M  V30 34 H -0.137971 -1.035898 2.432859 0
M  V30 35 H -0.279528 -2.477881 4.343366 0
M  V30 END ATOM
M  V30 BEGIN BOND
M  V30 1 1 1 2
M  V30 2 1 2 3
M  V30 3 2 3 4
M  V30 4 1 4 5
M  V30 5 2 5 6
M  V30 6 1 6 7
M  V30 7 1 7 8
M  V30 8 2 8 9
M  V30 9 1 8 10
M  V30 10 1 10 11
M  V30 11 1 11 12
M  V30 12 1 12 13
M  V30 13 1 13 14
M  V30 14 1 14 15
M  V30 15 1 15 16
M  V30 16 2 16 17
M  V30 17 1 6 18
M  V30 18 2 18 19
M  V30 19 1 19 3
M  V30 20 1 16 11
M  V30 21 1 1 20
M  V30 22 1 1 21
M  V30 23 1 1 22
M  V30 24 1 4 23
M  V30 25 1 5 24
M  V30 26 1 7 25
M  V30 27 1 10 26
M  V30 28 1 10 27
M  V30 29 1 11 28
M  V30 30 1 13 29
M  V30 31 1 13 30
M  V30 32 1 14 31
M  V30 33 1 14 32
M  V30 34 1 15 33
M  V30 35 1 18 34
M  V30 36 1 19 35
M  V30 END BOND
M  V30 END CTAB
M  END
>  <Dataset>  (446) 
ChEMBL_Kinases

>  <Ligand_Instance>  (446) 
nan

>  <PDB_ID>  (446) 
nan

>  <Standardized_SMILES>  (446) 
COc1ccc(NC(=O)CC2SCCNC2=O)cc1

>  <Name>  (446) 
nan

>  <Pocket>  (446) 
nan

>  <ATP_Site>  (446) 
nan

>  <Peripheral>  (446) 
nan

>  <Num_H_Atoms_ProtBoundConf>  (446) 
nan

>  <Num_Resolved_Atoms>  (446) 
nan

>  <Num_Not_Resolved_Atoms>  (446) 
nan

$$$$
CHEMBL4790358
     RDKit          3D

  0  0  0  0  0  0  0  0  0  0999 V3000
M  V30 BEGIN CTAB
M  V30 COUNTS 54 59 0 0 0
M  V30 BEGIN ATOM
M  V30 1 C 0.977366 -4.920946 2.627970 0
M  V30 2 C 1.553989 -3.554956 2.748092 0
M  V30 3 N 2.591707 -3.240442 3.572681 0
M  V30 4 C 2.808930 -1.942212 3.395547 0
M  V30 5 C 3.723281 -1.070849 3.953474 0
M  V30 6 C 3.683260 0.251961 3.542833 0
M  V30 7 C 2.798555 0.770783 2.616495 0
M  V30 8 C 2.839406 2.183402 2.251563 0
M  V30 9 C 3.707567 3.135516 2.745906 0
M  V30 10 N 3.368737 4.282597 2.121946 0
M  V30 11 N 2.345510 4.050467 1.286697 0
M  V30 12 C 1.798446 5.155054 0.491409 0
M  V30 13 C 0.848156 4.699078 -0.599438 0
M  V30 14 C 2.186436 5.298787 -0.929940 0
M  V30 15 C 1.981878 2.755417 1.334012 0
M  V30 16 N 1.924464 -0.107728 2.096053 0
M  V30 17 C 1.927370 -1.420398 2.471130 0
M  V30 18 N 1.147795 -2.443925 2.075082 0
M  V30 19 C 0.080104 -2.469519 1.142110 0
M  V30 20 C -1.086048 -1.745741 1.284469 0
M  V30 21 C -2.114567 -1.782094 0.367616 0
M  V30 22 C -1.997933 -2.572365 -0.755677 0
M  V30 23 N -3.098100 -2.551230 -1.651602 0
M  V30 24 C -4.310555 -1.764172 -1.370102 0
M  V30 25 C -5.458905 -2.417311 -2.107296 0
M  V30 26 O -5.410895 -3.795357 -1.986139 0
M  V30 27 C -4.302151 -4.341815 -2.625188 0
M  V30 28 C -3.316952 -3.201510 -2.925011 0
M  V30 29 C -0.829359 -3.289132 -0.885090 0
M  V30 30 F -0.709637 -4.065939 -1.981480 0
M  V30 31 C 0.208016 -3.264420 0.021104 0
M  V30 32 H 1.417222 -5.447553 1.760931 0
M  V30 33 H 1.238491 -5.515241 3.526359 0
M  V30 34 H -0.139800 -4.899144 2.618427 0
M  V30 35 H 4.456379 -1.392894 4.690458 0
M  V30 36 H 4.407604 0.921261 3.990778 0
M  V30 37 H 4.463830 2.895468 3.480060 0
M  V30 38 H 1.420828 5.998584 1.074593 0
M  V30 39 H -0.082407 5.288563 -0.795715 0
M  V30 40 H 0.748971 3.631947 -0.832759 0
M  V30 41 H 2.994239 4.694848 -1.354626 0
M  V30 42 H 2.137020 6.341507 -1.319793 0
M  V30 43 H 1.186839 2.373794 0.742153 0
M  V30 44 H -1.105643 -1.148466 2.190799 0
M  V30 45 H -2.938934 -1.147096 0.657192 0
M  V30 46 H -4.583459 -1.879091 -0.279334 0
M  V30 47 H -4.207041 -0.717658 -1.667880 0
M  V30 48 H -5.593391 -2.050184 -3.143100 0
M  V30 49 H -6.401197 -2.108629 -1.569303 0
M  V30 50 H -4.557282 -4.899049 -3.530842 0
M  V30 51 H -3.762527 -5.021703 -1.933826 0
M  V30 52 H -3.702969 -2.518054 -3.712345 0
M  V30 53 H -2.450561 -3.696430 -3.359066 0
M  V30 54 H 1.078875 -3.849235 -0.153690 0
M  V30 END ATOM
M  V30 BEGIN BOND
M  V30 1 1 1 2
M  V30 2 2 2 3
M  V30 3 1 3 4
M  V30 4 2 4 5
M  V30 5 1 5 6
M  V30 6 2 6 7
M  V30 7 1 7 8
M  V30 8 1 8 9
M  V30 9 2 9 10
M  V30 10 1 10 11
M  V30 11 1 11 12
M  V30 12 1 12 13
M  V30 13 1 13 14
M  V30 14 1 11 15
M  V30 15 1 7 16
M  V30 16 2 16 17
M  V30 17 1 17 18
M  V30 18 1 18 19
M  V30 19 2 19 20
M  V30 20 1 20 21
M  V30 21 2 21 22
M  V30 22 1 22 23
M  V30 23 1 23 24
M  V30 24 1 24 25
M  V30 25 1 25 26
M  V30 26 1 26 27
M  V30 27 1 27 28
M  V30 28 1 22 29
M  V30 29 1 29 30
M  V30 30 2 29 31
M  V30 31 1 18 2
M  V30 32 1 31 19
M  V30 33 1 17 4
M  V30 34 1 28 23
M  V30 35 2 15 8
M  V30 36 1 14 12
M  V30 37 1 1 32
M  V30 38 1 1 33
M  V30 39 1 1 34
M  V30 40 1 5 35
M  V30 41 1 6 36
M  V30 42 1 9 37
M  V30 43 1 12 38
M  V30 44 1 13 39
M  V30 45 1 13 40
M  V30 46 1 14 41
M  V30 47 1 14 42
M  V30 48 1 15 43
M  V30 49 1 20 44
M  V30 50 1 21 45
M  V30 51 1 24 46
M  V30 52 1 24 47
M  V30 53 1 25 48
M  V30 54 1 25 49
M  V30 55 1 27 50
M  V30 56 1 27 51
M  V30 57 1 28 52
M  V30 58 1 28 53
M  V30 59 1 31 54
M  V30 END BOND
M  V30 END CTAB
M  END
>  <Dataset>  (447) 
ChEMBL_Kinases

>  <Ligand_Instance>  (447) 
nan

>  <PDB_ID>  (447) 
nan

>  <Standardized_SMILES>  (447) 
Cc1nc2ccc(-c3cnn(C4CC4)c3)nc2n1-c1ccc(N2CCOCC2)c(F)c1

>  <Name>  (447) 
nan

>  <Pocket>  (447) 
nan

>  <ATP_Site>  (447) 
nan

>  <Peripheral>  (447) 
nan

>  <Num_H_Atoms_ProtBoundConf>  (447) 
nan

>  <Num_Resolved_Atoms>  (447) 
nan

>  <Num_Not_Resolved_Atoms>  (447) 
nan

$$$$
CHEMBL479039
     RDKit          3D

  0  0  0  0  0  0  0  0  0  0999 V3000
M  V30 BEGIN CTAB
M  V30 COUNTS 47 50 0 0 0
M  V30 BEGIN ATOM
M  V30 1 O 2.536378 -3.467813 -0.337885 0
M  V30 2 C 1.495568 -3.187270 -0.986956 0
M  V30 3 N 1.072725 -4.080043 -2.007170 0
M  V30 4 C 1.815450 -5.278230 -2.293939 0
M  V30 5 C 3.248439 -4.973550 -2.717157 0
M  V30 6 C 3.427015 -4.136438 -3.931448 0
M  V30 7 C 3.724287 -5.589172 -3.979308 0
M  V30 8 C 0.794511 -1.954651 -0.639895 0
M  V30 9 C 1.330717 -1.190497 0.377465 0
M  V30 10 C 0.656027 -0.007955 0.708754 0
M  V30 11 C -0.499308 0.428959 0.082515 0
M  V30 12 C -1.111616 1.690050 0.524481 0
M  V30 13 C -1.186685 1.812356 1.896950 0
M  V30 14 C -1.740330 2.948665 2.453427 0
M  V30 15 C -1.895357 3.235553 3.885930 0
M  V30 16 O -2.413079 4.300227 4.315189 0
M  V30 17 N -1.457537 2.302357 4.864152 0
M  V30 18 C -1.605961 2.576111 6.272802 0
M  V30 19 C -0.733411 1.928683 7.277757 0
M  V30 20 C -2.132576 1.380070 7.080312 0
M  V30 21 C -2.192901 3.910267 1.571818 0
M  V30 22 C -2.126723 3.806490 0.197007 0
M  V30 23 C -1.570575 2.664539 -0.341573 0
M  V30 24 Cl -1.420699 2.395141 -2.051860 0
M  V30 25 C -1.009946 -0.370624 -0.940349 0
M  V30 26 C -0.356816 -1.542299 -1.281284 0
M  V30 27 H 0.211076 -3.857001 -2.551418 0
M  V30 28 H 1.892917 -5.854805 -1.338137 0
M  V30 29 H 1.289915 -5.881759 -3.059371 0
M  V30 30 H 3.932485 -4.770998 -1.875837 0
M  V30 31 H 2.510164 -3.714031 -4.405776 0
M  V30 32 H 4.267444 -3.413861 -3.932379 0
M  V30 33 H 3.022528 -6.295006 -4.470610 0
M  V30 34 H 4.779949 -5.925791 -4.118499 0
M  V30 35 H 2.234285 -1.427788 0.945698 0
M  V30 36 H 1.063269 0.616777 1.514768 0
M  V30 37 H -0.838667 1.072232 2.601969 0
M  V30 38 H -1.015944 1.391506 4.609244 0
M  V30 39 H -2.072562 3.538559 6.528664 0
M  V30 40 H 0.150094 1.322546 7.025702 0
M  V30 41 H -0.608270 2.468336 8.241899 0
M  V30 42 H -2.898202 1.567070 7.860681 0
M  V30 43 H -2.157365 0.384444 6.614322 0
M  V30 44 H -2.643081 4.836891 1.915501 0
M  V30 45 H -2.485778 4.568694 -0.474010 0
M  V30 46 H -1.913434 -0.031612 -1.432076 0
M  V30 47 H -0.778334 -2.139600 -2.078472 0
M  V30 END ATOM
M  V30 BEGIN BOND
M  V30 1 2 1 2
M  V30 2 1 2 3
M  V30 3 1 3 4
M  V30 4 1 4 5
M  V30 5 1 5 6
M  V30 6 1 6 7
M  V30 7 1 2 8
M  V30 8 2 8 9
M  V30 9 1 9 10
M  V30 10 2 10 11
M  V30 11 1 11 12
M  V30 12 2 12 13
M  V30 13 1 13 14
M  V30 14 1 14 15
M  V30 15 2 15 16
M  V30 16 1 15 17
M  V30 17 1 17 18
M  V30 18 1 18 19
M  V30 19 1 19 20
M  V30 20 2 14 21
M  V30 21 1 21 22
M  V30 22 2 22 23
M  V30 23 1 23 24
M  V30 24 1 11 25
M  V30 25 2 25 26
M  V30 26 1 7 5
M  V30 27 1 26 8
M  V30 28 1 23 12
M  V30 29 1 20 18
M  V30 30 1 3 27
M  V30 31 1 4 28
M  V30 32 1 4 29
M  V30 33 1 5 30
M  V30 34 1 6 31
M  V30 35 1 6 32
M  V30 36 1 7 33
M  V30 37 1 7 34
M  V30 38 1 9 35
M  V30 39 1 10 36
M  V30 40 1 13 37
M  V30 41 1 17 38
M  V30 42 1 18 39
M  V30 43 1 19 40
M  V30 44 1 19 41
M  V30 45 1 20 42
M  V30 46 1 20 43
M  V30 47 1 21 44
M  V30 48 1 22 45
M  V30 49 1 25 46
M  V30 50 1 26 47
M  V30 END BOND
M  V30 END CTAB
M  END
>  <Dataset>  (448) 
ChEMBL_Kinases

>  <Ligand_Instance>  (448) 
nan

>  <PDB_ID>  (448) 
nan

>  <Standardized_SMILES>  (448) 
O=C(NCC1CC1)c1ccc(-c2cc(C(=O)NC3CC3)ccc2Cl)cc1

>  <Name>  (448) 
nan

>  <Pocket>  (448) 
nan

>  <ATP_Site>  (448) 
nan

>  <Peripheral>  (448) 
nan

>  <Num_H_Atoms_ProtBoundConf>  (448) 
nan

>  <Num_Resolved_Atoms>  (448) 
nan

>  <Num_Not_Resolved_Atoms>  (448) 
nan

$$$$
CHEMBL4129130
     RDKit          3D

  0  0  0  0  0  0  0  0  0  0999 V3000
M  V30 BEGIN CTAB
M  V30 COUNTS 38 40 0 0 0
M  V30 BEGIN ATOM
M  V30 1 C -0.195403 -4.770367 1.471495 0
M  V30 2 C 0.179070 -3.481317 2.111299 0
M  V30 3 C 0.007398 -3.464933 3.598249 0
M  V30 4 C -0.324444 -2.271202 1.416233 0
M  V30 5 C 0.515618 -1.399431 0.710175 0
M  V30 6 C 0.164585 -0.241946 0.057351 0
M  V30 7 C 1.165897 0.557982 -0.635256 0
M  V30 8 C 2.155668 0.060016 -1.472721 0
M  V30 9 N 2.894931 1.092769 -1.931609 0
M  V30 10 C 2.370931 2.221650 -1.385609 0
M  V30 11 N 2.812553 3.477996 -1.583902 0
M  V30 12 C 2.178200 4.484768 -0.965603 0
M  V30 13 C 2.601116 5.849355 -1.136340 0
M  V30 14 N 2.950701 6.963624 -1.276545 0
M  V30 15 C 1.081819 4.238603 -0.132559 0
M  V30 16 C 0.624227 2.943778 0.073728 0
M  V30 17 C 1.292975 1.934007 -0.571976 0
M  V30 18 C -1.169313 0.098931 0.103952 0
M  V30 19 C -2.046533 -0.702889 0.772889 0
M  V30 20 C -1.631142 -1.853004 1.407898 0
M  V30 21 C -2.658689 -2.645418 2.050498 0
M  V30 22 O -2.655739 -3.738621 2.666733 0
M  V30 23 O -3.993589 -2.279542 2.097988 0
M  V30 24 H 0.668501 -5.227239 0.958094 0
M  V30 25 H -0.569216 -5.532434 2.184717 0
M  V30 26 H -0.941537 -4.545638 0.679308 0
M  V30 27 H 1.314635 -3.404695 1.965649 0
M  V30 28 H 0.996604 -3.377352 4.155559 0
M  V30 29 H -0.587406 -2.597821 3.976975 0
M  V30 30 H -0.376355 -4.450097 3.934169 0
M  V30 31 H 1.582569 -1.657750 0.663883 0
M  V30 32 H 2.279806 -0.996821 -1.695709 0
M  V30 33 H 3.687867 0.942383 -2.573044 0
M  V30 34 H 0.554625 5.033891 0.376380 0
M  V30 35 H -0.219459 2.692921 0.707493 0
M  V30 36 H -1.515396 0.989563 -0.383024 0
M  V30 37 H -3.106858 -0.404075 0.792575 0
M  V30 38 H -4.614499 -2.360779 2.892788 0
M  V30 END ATOM
M  V30 BEGIN BOND
M  V30 1 1 1 2
M  V30 2 1 2 3
M  V30 3 1 2 4
M  V30 4 2 4 5
M  V30 5 1 5 6
M  V30 6 1 6 7
M  V30 7 2 7 8
M  V30 8 1 8 9
M  V30 9 1 9 10
M  V30 10 2 10 11
M  V30 11 1 11 12
M  V30 12 1 12 13
M  V30 13 3 13 14
M  V30 14 2 12 15
M  V30 15 1 15 16
M  V30 16 2 16 17
M  V30 17 2 6 18
M  V30 18 1 18 19
M  V30 19 2 19 20
M  V30 20 1 20 21
M  V30 21 2 21 22
M  V30 22 1 21 23
M  V30 23 1 20 4
M  V30 24 1 17 7
M  V30 25 1 17 10
M  V30 26 1 1 24
M  V30 27 1 1 25
M  V30 28 1 1 26
M  V30 29 1 2 27
M  V30 30 1 3 28
M  V30 31 1 3 29
M  V30 32 1 3 30
M  V30 33 1 5 31
M  V30 34 1 8 32
M  V30 35 1 9 33
M  V30 36 1 15 34
M  V30 37 1 16 35
M  V30 38 1 18 36
M  V30 39 1 19 37
M  V30 40 1 23 38
M  V30 END BOND
M  V30 END CTAB
M  END
>  <Dataset>  (449) 
ChEMBL_Kinases

>  <Ligand_Instance>  (449) 
nan

>  <PDB_ID>  (449) 
nan

>  <Standardized_SMILES>  (449) 
CC(C)c1cc(-c2c[nH]c3nc(C#N)ccc23)ccc1C(=O)O

>  <Name>  (449) 
nan

>  <Pocket>  (449) 
nan

>  <ATP_Site>  (449) 
nan

>  <Peripheral>  (449) 
nan

>  <Num_H_Atoms_ProtBoundConf>  (449) 
nan

>  <Num_Resolved_Atoms>  (449) 
nan

>  <Num_Not_Resolved_Atoms>  (449) 
nan

$$$$
CHEMBL4790458
     RDKit          3D

  0  0  0  0  0  0  0  0  0  0999 V3000
M  V30 BEGIN CTAB
M  V30 COUNTS 60 63 0 0 0
M  V30 BEGIN ATOM
M  V30 1 C 5.703435 -3.910406 6.598699 0
M  V30 2 C 5.135351 -3.640735 5.438182 0
M  V30 3 C 5.556466 -2.436202 4.737108 0
M  V30 4 O 6.435699 -1.705659 5.257219 0
M  V30 5 N 4.989369 -2.079197 3.480681 0
M  V30 6 C 5.458765 -0.859694 2.835065 0
M  V30 7 C 4.363947 -0.288235 1.993228 0
M  V30 8 C 3.552293 -1.069403 1.302419 0
M  V30 9 C 2.462186 -0.603509 0.458521 0
M  V30 10 C 2.152474 0.726552 0.283636 0
M  V30 11 C 1.080898 1.070378 -0.551208 0
M  V30 12 C 0.294864 0.124554 -1.228222 0
M  V30 13 C -0.822493 0.567196 -2.099225 0
M  V30 14 C -2.162290 0.376712 -1.500317 0
M  V30 15 O -2.962224 1.370792 -1.357719 0
M  V30 16 N -2.754627 -0.818275 -1.019093 0
M  V30 17 C -4.046203 -0.948809 -0.453290 0
M  V30 18 C -5.044180 -0.029376 -0.215999 0
M  V30 19 C -6.142738 -0.631385 0.361558 0
M  V30 20 C -7.437580 -0.038023 0.786896 0
M  V30 21 C -7.435684 1.430914 1.255740 0
M  V30 22 C -7.971359 1.102329 -0.088055 0
M  V30 23 N -5.778964 -1.920833 0.462115 0
M  V30 24 N -4.569585 -2.105896 -0.007579 0
M  V30 25 C -0.701925 0.210039 -3.533380 0
M  V30 26 C -0.608817 -1.258314 -3.847657 0
M  V30 27 C 0.414566 0.955292 -4.240682 0
M  V30 28 C 0.684300 -1.175201 -0.988322 0
M  V30 29 N 1.711347 -1.510323 -0.188406 0
M  V30 30 C 3.833193 -2.519878 1.445352 0
M  V30 31 C 3.970051 -2.936389 2.889891 0
M  V30 32 H 6.457523 -3.196479 6.947567 0
M  V30 33 H 5.470030 -4.774144 7.205166 0
M  V30 34 H 4.384563 -4.305827 5.040268 0
M  V30 35 H 5.766290 -0.135968 3.614749 0
M  V30 36 H 6.358839 -1.126615 2.242328 0
M  V30 37 H 4.225409 0.781768 1.942051 0
M  V30 38 H 2.724663 1.491724 0.780553 0
M  V30 39 H 0.901716 2.133502 -0.636585 0
M  V30 40 H -0.688536 1.714616 -2.085676 0
M  V30 41 H -2.160171 -1.670580 -1.097141 0
M  V30 42 H -5.020230 1.012969 -0.430374 0
M  V30 43 H -8.200172 -0.707005 1.237578 0
M  V30 44 H -6.445047 1.922533 1.359831 0
M  V30 45 H -8.160582 1.713480 2.047349 0
M  V30 46 H -7.367231 1.378277 -0.961895 0
M  V30 47 H -9.069502 1.165649 -0.229126 0
M  V30 48 H -6.334315 -2.721224 0.851313 0
M  V30 49 H -1.637376 0.548291 -4.070397 0
M  V30 50 H -0.878312 -1.386865 -4.943140 0
M  V30 51 H -1.356851 -1.843579 -3.313976 0
M  V30 52 H 0.429722 -1.643535 -3.800091 0
M  V30 53 H 0.153288 2.008009 -4.479956 0
M  V30 54 H 0.585363 0.476961 -5.236565 0
M  V30 55 H 1.353066 0.989890 -3.646093 0
M  V30 56 H 0.154566 -1.962224 -1.456074 0
M  V30 57 H 4.697576 -2.786568 0.812487 0
M  V30 58 H 2.966275 -3.080716 1.040746 0
M  V30 59 H 4.296225 -4.003130 2.892646 0
M  V30 60 H 2.989350 -2.787189 3.370171 0
M  V30 END ATOM
M  V30 BEGIN BOND
M  V30 1 2 1 2
M  V30 2 1 2 3
M  V30 3 2 3 4
M  V30 4 1 3 5
M  V30 5 1 5 6
M  V30 6 1 6 7
M  V30 7 2 7 8
M  V30 8 1 8 9
M  V30 9 2 9 10
M  V30 10 1 10 11
M  V30 11 2 11 12
M  V30 12 1 12 13
M  V30 13 1 13 14
M  V30 14 2 14 15
M  V30 15 1 14 16
M  V30 16 1 16 17
M  V30 17 1 17 18
M  V30 18 2 18 19
M  V30 19 1 19 20
M  V30 20 1 20 21
M  V30 21 1 21 22
M  V30 22 1 19 23
M  V30 23 1 23 24
M  V30 24 1 13 25
M  V30 25 1 25 26
M  V30 26 1 25 27
M  V30 27 1 12 28
M  V30 28 2 28 29
M  V30 29 1 8 30
M  V30 30 1 30 31
M  V30 31 1 31 5
M  V30 32 1 29 9
M  V30 33 2 24 17
M  V30 34 1 22 20
M  V30 35 1 1 32
M  V30 36 1 1 33
M  V30 37 1 2 34
M  V30 38 1 6 35
M  V30 39 1 6 36
M  V30 40 1 7 37
M  V30 41 1 10 38
M  V30 42 1 11 39
M  V30 43 1 13 40
M  V30 44 1 16 41
M  V30 45 1 18 42
M  V30 46 1 20 43
M  V30 47 1 21 44
M  V30 48 1 21 45
M  V30 49 1 22 46
M  V30 50 1 22 47
M  V30 51 1 23 48
M  V30 52 1 25 49
M  V30 53 1 26 50
M  V30 54 1 26 51
M  V30 55 1 26 52
M  V30 56 1 27 53
M  V30 57 1 27 54
M  V30 58 1 27 55
M  V30 59 1 28 56
M  V30 60 1 30 57
M  V30 61 1 30 58
M  V30 62 1 31 59
M  V30 63 1 31 60
M  V30 END BOND
M  V30 END CTAB
M  END
>  <Dataset>  (450) 
ChEMBL_Kinases

>  <Ligand_Instance>  (450) 
nan

>  <PDB_ID>  (450) 
nan

>  <Standardized_SMILES>  (450) 
C=CC(=O)N1CC=C(c2ccc(C(C(=O)Nc3cc(C4CC4)[nH]n3)C(C)C)cn2)CC1

>  <Name>  (450) 
nan

>  <Pocket>  (450) 
nan

>  <ATP_Site>  (450) 
nan

>  <Peripheral>  (450) 
nan

>  <Num_H_Atoms_ProtBoundConf>  (450) 
nan

>  <Num_Resolved_Atoms>  (450) 
nan

>  <Num_Not_Resolved_Atoms>  (450) 
nan

$$$$
CHEMBL4790464
     RDKit          3D

  0  0  0  0  0  0  0  0  0  0999 V3000
M  V30 BEGIN CTAB
M  V30 COUNTS 46 49 0 0 0
M  V30 BEGIN ATOM
M  V30 1 C 0.418052 -4.527036 -0.652922 0
M  V30 2 N 0.792224 -3.306582 -1.338709 0
M  V30 3 C 1.527131 -3.345942 -2.567216 0
M  V30 4 O 1.775974 -4.510847 -2.925320 0
M  V30 5 C 1.985492 -2.232887 -3.390553 0
M  V30 6 C 2.918901 -2.670145 -4.306137 0
M  V30 7 C 3.465809 -1.757265 -5.171933 0
M  V30 8 C 3.068806 -0.431473 -5.103558 0
M  V30 9 C 2.131418 0.012868 -4.185471 0
M  V30 10 F 1.716339 1.298648 -4.085526 0
M  V30 11 C 1.564062 -0.906627 -3.295112 0
M  V30 12 O 0.628646 -0.355508 -2.409336 0
M  V30 13 C 0.290115 -0.826200 -1.145616 0
M  V30 14 C -0.153783 0.223261 -0.370026 0
M  V30 15 C -0.555395 0.008947 0.947313 0
M  V30 16 N -1.015844 1.077153 1.759432 0
M  V30 17 C -1.453284 0.943477 3.147703 0 CFG=1
M  V30 18 C -0.313300 0.428892 3.946532 0
M  V30 19 C -0.796200 0.356993 5.395504 0
M  V30 20 C -0.895276 1.798910 5.829947 0 CFG=2
M  V30 21 O -1.070206 1.898042 7.197712 0
M  V30 22 C -1.936323 2.556917 5.052796 0
M  V30 23 C -2.143572 2.145867 3.651741 0
M  V30 24 N -0.474323 -1.262224 1.376653 0
M  V30 25 C -0.043067 -2.293711 0.629455 0
M  V30 26 C 0.362334 -2.123178 -0.676101 0
M  V30 27 H -0.668778 -4.573189 -0.411999 0
M  V30 28 H 0.553247 -5.373228 -1.388396 0
M  V30 29 H 1.082838 -4.795068 0.182827 0
M  V30 30 H 3.185773 -3.714935 -4.308691 0
M  V30 31 H 4.194024 -2.073055 -5.893325 0
M  V30 32 H 3.501641 0.280612 -5.785834 0
M  V30 33 H -0.202802 1.216130 -0.748178 0
M  V30 34 H -1.047571 2.031886 1.341788 0
M  V30 35 H -2.215116 0.107908 3.125564 0
M  V30 36 H 0.546369 1.137243 3.947532 0
M  V30 37 H -0.041268 -0.589297 3.610271 0
M  V30 38 H 0.046356 -0.089636 5.964127 0
M  V30 39 H -1.754883 -0.156433 5.503340 0
M  V30 40 H 0.090273 2.267131 5.592348 0
M  V30 41 H -0.473571 1.223415 7.622912 0
M  V30 42 H -1.761031 3.654946 5.153746 0
M  V30 43 H -2.898168 2.381127 5.621643 0
M  V30 44 H -3.248030 2.112073 3.411360 0
M  V30 45 H -1.793344 3.000910 2.997845 0
M  V30 46 H -0.002393 -3.295360 1.037765 0
M  V30 END ATOM
M  V30 BEGIN BOND
M  V30 1 1 1 2
M  V30 2 1 2 3
M  V30 3 2 3 4
M  V30 4 1 3 5
M  V30 5 2 5 6
M  V30 6 1 6 7
M  V30 7 2 7 8
M  V30 8 1 8 9
M  V30 9 1 9 10
M  V30 10 2 9 11
M  V30 11 1 11 12
M  V30 12 1 12 13
M  V30 13 2 13 14
M  V30 14 1 14 15
M  V30 15 1 15 16
M  V30 16 1 16 17
M  V30 17 1 17 18
M  V30 18 1 18 19
M  V30 19 1 19 20
M  V30 20 1 20 21
M  V30 21 1 20 22
M  V30 22 1 22 23
M  V30 23 2 15 24
M  V30 24 1 24 25
M  V30 25 2 25 26
M  V30 26 1 26 2
M  V30 27 1 11 5
M  V30 28 1 26 13
M  V30 29 1 23 17
M  V30 30 1 1 27
M  V30 31 1 1 28
M  V30 32 1 1 29
M  V30 33 1 6 30
M  V30 34 1 7 31
M  V30 35 1 8 32
M  V30 36 1 14 33
M  V30 37 1 16 34
M  V30 38 1 17 35 CFG=3
M  V30 39 1 18 36
M  V30 40 1 18 37
M  V30 41 1 19 38
M  V30 42 1 19 39
M  V30 43 1 20 40 CFG=1
M  V30 44 1 21 41
M  V30 45 1 22 42
M  V30 46 1 22 43
M  V30 47 1 23 44
M  V30 48 1 23 45
M  V30 49 1 25 46
M  V30 END BOND
M  V30 END CTAB
M  END
>  <Dataset>  (451) 
ChEMBL_Kinases

>  <Ligand_Instance>  (451) 
nan

>  <PDB_ID>  (451) 
nan

>  <Standardized_SMILES>  (451) 
CN1C(=O)c2cccc(F)c2Oc2cc(N[C@H]3CC[C@H](O)CC3)ncc21

>  <Name>  (451) 
nan

>  <Pocket>  (451) 
nan

>  <ATP_Site>  (451) 
nan

>  <Peripheral>  (451) 
nan

>  <Num_H_Atoms_ProtBoundConf>  (451) 
nan

>  <Num_Resolved_Atoms>  (451) 
nan

>  <Num_Not_Resolved_Atoms>  (451) 
nan

$$$$
CHEMBL4790560
     RDKit          3D

  0  0  0  0  0  0  0  0  0  0999 V3000
M  V30 BEGIN CTAB
M  V30 COUNTS 58 61 0 0 0
M  V30 BEGIN ATOM
M  V30 1 O 1.508617 0.912446 1.152458 0
M  V30 2 C 2.496207 0.914104 0.341326 0
M  V30 3 C 3.977242 0.744397 0.406813 0
M  V30 4 C 4.470224 0.503958 1.790408 0
M  V30 5 C 5.956605 0.343634 1.790299 0
M  V30 6 C 6.311696 -0.844411 0.977814 0
M  V30 7 C 5.566857 -2.097672 1.252135 0
M  V30 8 C 4.277023 -1.995998 1.963387 0
M  V30 9 C 3.871223 -0.671673 2.470373 0
M  V30 10 N 1.969448 1.147373 -0.969465 0
M  V30 11 C 0.550411 1.310989 -1.040652 0
M  V30 12 C -0.140960 2.502355 -0.934404 0
M  V30 13 C -1.519355 2.513563 -1.022313 0
M  V30 14 C -2.262759 1.345591 -1.218557 0
M  V30 15 C -3.745123 1.423995 -1.306246 0
M  V30 16 C -4.323191 1.277970 0.093280 0
M  V30 17 N -3.984872 0.030434 0.726080 0
M  V30 18 C -4.435295 -1.182286 0.122381 0
M  V30 19 N -5.160591 -1.157370 -1.004033 0
M  V30 20 N -5.579382 -2.277354 -1.560171 0
M  V30 21 C -5.364676 -3.520466 -1.124024 0
M  V30 22 O -5.804476 -4.534035 -1.721604 0
M  V30 23 C -4.630631 -3.595303 0.020113 0
M  V30 24 C -4.328288 -4.822759 0.590631 0
M  V30 25 C -3.588878 -4.969154 1.748808 0
M  V30 26 C -3.150734 -3.797550 2.330622 0
M  V30 27 C -3.443305 -2.573806 1.775549 0
M  V30 28 C -4.181262 -2.437208 0.620468 0
M  V30 29 C -1.528940 0.181026 -1.318681 0
M  V30 30 C -0.151186 0.136461 -1.235017 0
M  V30 31 H 4.459838 1.610623 -0.043908 0
M  V30 32 H 4.180976 -0.147727 -0.228442 0
M  V30 33 H 4.263289 1.411673 2.426389 0
M  V30 34 H 6.406676 0.364906 2.800361 0
M  V30 35 H 6.373979 1.245782 1.262780 0
M  V30 36 H 6.160313 -0.592337 -0.111812 0
M  V30 37 H 7.428314 -0.971588 1.053937 0
M  V30 38 H 6.263337 -2.722921 1.889434 0
M  V30 39 H 5.477935 -2.737027 0.323551 0
M  V30 40 H 4.195164 -2.768699 2.782131 0
M  V30 41 H 3.466175 -2.326549 1.247581 0
M  V30 42 H 4.170624 -0.597195 3.557108 0
M  V30 43 H 2.770236 -0.531359 2.499020 0
M  V30 44 H 2.512395 1.209352 -1.869846 0
M  V30 45 H 0.460150 3.388372 -0.783103 0
M  V30 46 H -1.981265 3.489698 -0.928607 0
M  V30 47 H -4.134372 0.709851 -2.028002 0
M  V30 48 H -3.998350 2.472258 -1.607704 0
M  V30 49 H -3.930963 2.105329 0.715512 0
M  V30 50 H -5.432724 1.449698 0.073936 0
M  V30 51 H -3.426277 0.061164 1.597001 0
M  V30 52 H -6.143242 -2.120532 -2.447333 0
M  V30 53 H -4.709689 -5.704991 0.072790 0
M  V30 54 H -3.379337 -5.940500 2.154274 0
M  V30 55 H -2.569265 -3.897621 3.239941 0
M  V30 56 H -3.046774 -1.731314 2.320145 0
M  V30 57 H -2.061443 -0.745284 -1.471523 0
M  V30 58 H 0.337260 -0.832166 -1.326123 0
M  V30 END ATOM
M  V30 BEGIN BOND
M  V30 1 2 1 2
M  V30 2 1 2 3
M  V30 3 1 3 4
M  V30 4 1 4 5
M  V30 5 1 5 6
M  V30 6 1 6 7
M  V30 7 1 7 8
M  V30 8 1 8 9
M  V30 9 1 2 10
M  V30 10 1 10 11
M  V30 11 2 11 12
M  V30 12 1 12 13
M  V30 13 2 13 14
M  V30 14 1 14 15
M  V30 15 1 15 16
M  V30 16 1 16 17
M  V30 17 1 17 18
M  V30 18 2 18 19
M  V30 19 1 19 20
M  V30 20 1 20 21
M  V30 21 2 21 22
M  V30 22 1 21 23
M  V30 23 2 23 24
M  V30 24 1 24 25
M  V30 25 2 25 26
M  V30 26 1 26 27
M  V30 27 2 27 28
M  V30 28 1 14 29
M  V30 29 2 29 30
M  V30 30 1 9 4
M  V30 31 1 30 11
M  V30 32 1 28 18
M  V30 33 1 28 23
M  V30 34 1 3 31
M  V30 35 1 3 32
M  V30 36 1 4 33
M  V30 37 1 5 34
M  V30 38 1 5 35
M  V30 39 1 6 36
M  V30 40 1 6 37
M  V30 41 1 7 38
M  V30 42 1 7 39
M  V30 43 1 8 40
M  V30 44 1 8 41
M  V30 45 1 9 42
M  V30 46 1 9 43
M  V30 47 1 10 44
M  V30 48 1 12 45
M  V30 49 1 13 46
M  V30 50 1 15 47
M  V30 51 1 15 48
M  V30 52 1 16 49
M  V30 53 1 16 50
M  V30 54 1 17 51
M  V30 55 1 20 52
M  V30 56 1 24 53
M  V30 57 1 25 54
M  V30 58 1 26 55
M  V30 59 1 27 56
M  V30 60 1 29 57
M  V30 61 1 30 58
M  V30 END BOND
M  V30 END CTAB
M  END
>  <Dataset>  (452) 
ChEMBL_Kinases

>  <Ligand_Instance>  (452) 
nan

>  <PDB_ID>  (452) 
nan

>  <Standardized_SMILES>  (452) 
O=C(CC1CCCCC1)Nc1ccc(CCNc2n[nH]c(=O)c3ccccc23)cc1

>  <Name>  (452) 
nan

>  <Pocket>  (452) 
nan

>  <ATP_Site>  (452) 
nan

>  <Peripheral>  (452) 
nan

>  <Num_H_Atoms_ProtBoundConf>  (452) 
nan

>  <Num_Resolved_Atoms>  (452) 
nan

>  <Num_Not_Resolved_Atoms>  (452) 
nan

$$$$
CHEMBL4790577
     RDKit          3D

  0  0  0  0  0  0  0  0  0  0999 V3000
M  V30 BEGIN CTAB
M  V30 COUNTS 50 53 0 0 0
M  V30 BEGIN ATOM
M  V30 1 N -3.578692 -2.541059 3.562029 0
M  V30 2 C -2.642029 -1.748455 2.844698 0
M  V30 3 N -1.908987 -0.794177 3.407882 0
M  V30 4 C -1.046561 -0.087508 2.670489 0
M  V30 5 C -0.857341 -0.286808 1.317755 0
M  V30 6 C 0.108003 0.522675 0.581661 0
M  V30 7 C 0.120066 0.958674 -0.750856 0
M  V30 8 N 1.256712 1.671362 -0.896658 0
M  V30 9 N 1.960307 1.727915 0.207159 0
M  V30 10 C 3.222271 2.435968 0.297271 0
M  V30 11 C 2.994403 3.864685 0.731552 0
M  V30 12 C 2.330983 3.846097 2.087477 0
M  V30 13 N 3.208990 3.244112 3.054379 0
M  V30 14 C 4.426852 2.756439 2.469252 0
M  V30 15 C 4.144442 1.797702 1.317650 0
M  V30 16 C 1.268120 1.023569 1.136723 0
M  V30 17 C -1.640544 -1.284653 0.787898 0
M  V30 18 C -2.548253 -2.053461 1.479209 0
M  V30 19 N -3.187314 -3.015854 0.710904 0
M  V30 20 C -3.541021 -3.744015 -0.430232 0
M  V30 21 C -2.446272 -4.177321 -1.332405 0
M  V30 22 C -1.964323 -3.363743 -2.363443 0
M  V30 23 Cl -2.721144 -1.824052 -2.757059 0
M  V30 24 C -0.906612 -3.764317 -3.152936 0
M  V30 25 C -0.305199 -4.984820 -2.935900 0
M  V30 26 C -0.732374 -5.845619 -1.931231 0
M  V30 27 F -0.155877 -7.047544 -1.701242 0
M  V30 28 C -1.790588 -5.370122 -1.189717 0
M  V30 29 Cl -2.348612 -6.449615 0.092493 0
M  V30 30 H -3.060431 -3.428957 3.812207 0
M  V30 31 H -4.405886 -1.886746 3.534804 0
M  V30 32 H -0.513140 0.654281 3.242612 0
M  V30 33 H -0.682486 0.704243 -1.419518 0
M  V30 34 H 3.714263 2.452647 -0.699374 0
M  V30 35 H 3.922849 4.443612 0.768837 0
M  V30 36 H 2.244792 4.292809 0.035230 0
M  V30 37 H 1.359046 3.297142 2.043713 0
M  V30 38 H 2.072104 4.904355 2.376503 0
M  V30 39 H 2.682887 2.527193 3.573017 0
M  V30 40 H 5.148699 3.536130 2.221465 0
M  V30 41 H 4.928339 2.106299 3.246036 0
M  V30 42 H 3.619937 0.925332 1.750958 0
M  V30 43 H 5.118266 1.504514 0.898216 0
M  V30 44 H 1.604235 0.891109 2.156965 0
M  V30 45 H -1.431109 -1.387204 -0.253905 0
M  V30 46 H -3.787854 -3.509916 1.448573 0
M  V30 47 H -4.175205 -4.628951 -0.288332 0
M  V30 48 H -4.184904 -3.063922 -1.078885 0
M  V30 49 H -0.514185 -3.152962 -3.956920 0
M  V30 50 H 0.521899 -5.288497 -3.557740 0
M  V30 END ATOM
M  V30 BEGIN BOND
M  V30 1 1 1 2
M  V30 2 2 2 3
M  V30 3 1 3 4
M  V30 4 2 4 5
M  V30 5 1 5 6
M  V30 6 1 6 7
M  V30 7 2 7 8
M  V30 8 1 8 9
M  V30 9 1 9 10
M  V30 10 1 10 11
M  V30 11 1 11 12
M  V30 12 1 12 13
M  V30 13 1 13 14
M  V30 14 1 14 15
M  V30 15 1 9 16
M  V30 16 1 5 17
M  V30 17 2 17 18
M  V30 18 1 18 19
M  V30 19 1 19 20
M  V30 20 1 20 21
M  V30 21 2 21 22
M  V30 22 1 22 23
M  V30 23 1 22 24
M  V30 24 2 24 25
M  V30 25 1 25 26
M  V30 26 1 26 27
M  V30 27 2 26 28
M  V30 28 1 28 29
M  V30 29 1 18 2
M  V30 30 1 28 21
M  V30 31 2 16 6
M  V30 32 1 15 10
M  V30 33 1 1 30
M  V30 34 1 1 31
M  V30 35 1 4 32
M  V30 36 1 7 33
M  V30 37 1 10 34
M  V30 38 1 11 35
M  V30 39 1 11 36
M  V30 40 1 12 37
M  V30 41 1 12 38
M  V30 42 1 13 39
M  V30 43 1 14 40
M  V30 44 1 14 41
M  V30 45 1 15 42
M  V30 46 1 15 43
M  V30 47 1 16 44
M  V30 48 1 17 45
M  V30 49 1 19 46
M  V30 50 1 20 47
M  V30 51 1 20 48
M  V30 52 1 24 49
M  V30 53 1 25 50
M  V30 END BOND
M  V30 END CTAB
M  END
>  <Dataset>  (453) 
ChEMBL_Kinases

>  <Ligand_Instance>  (453) 
nan

>  <PDB_ID>  (453) 
nan

>  <Standardized_SMILES>  (453) 
Nc1ncc(-c2cnn(C3CCNCC3)c2)cc1NCc1c(Cl)ccc(F)c1Cl

>  <Name>  (453) 
nan

>  <Pocket>  (453) 
nan

>  <ATP_Site>  (453) 
nan

>  <Peripheral>  (453) 
nan

>  <Num_H_Atoms_ProtBoundConf>  (453) 
nan

>  <Num_Resolved_Atoms>  (453) 
nan

>  <Num_Not_Resolved_Atoms>  (453) 
nan

$$$$
CHEMBL4790581
     RDKit          3D

  0  0  0  0  0  0  0  0  0  0999 V3000
M  V30 BEGIN CTAB
M  V30 COUNTS 68 72 0 0 0
M  V30 BEGIN ATOM
M  V30 1 C 3.880798 -2.712140 4.119018 0
M  V30 2 O 3.246434 -1.946479 3.142668 0
M  V30 3 C 3.103018 -2.274338 1.818922 0
M  V30 4 C 3.569166 -3.430395 1.229828 0
M  V30 5 C 3.407941 -3.729621 -0.106956 0
M  V30 6 C 2.739767 -2.823931 -0.917950 0
M  V30 7 C 2.256944 -1.646753 -0.352243 0
M  V30 8 C 1.563096 -0.731254 -1.250462 0
M  V30 9 N 1.839505 0.536617 -1.624933 0
M  V30 10 C 0.880281 0.960772 -2.487545 0
M  V30 11 C 0.864728 2.298425 -3.096554 0
M  V30 12 C 1.844352 3.227127 -2.822905 0
M  V30 13 C 1.855723 4.490513 -3.378851 0
M  V30 14 C 0.825474 4.837563 -4.257784 0
M  V30 15 C -0.173267 3.898693 -4.540329 0
M  V30 16 C -0.160341 2.624439 -3.962348 0
M  V30 17 N -0.007802 -0.018877 -2.671360 0
M  V30 18 C 0.389527 -1.064259 -1.924203 0
M  V30 19 C -0.294024 -2.349259 -1.825575 0
M  V30 20 C -0.572231 -3.279766 -2.806472 0
M  V30 21 C -1.236148 -4.452159 -2.521417 0
M  V30 22 N -1.640952 -4.728371 -1.249376 0
M  V30 23 C -1.371316 -3.815486 -0.271904 0
M  V30 24 N -1.817959 -4.170363 1.018229 0
M  V30 25 C -2.879467 -4.162182 1.965124 0
M  V30 26 C -3.389141 -2.813194 2.368716 0
M  V30 27 N -3.929219 -2.015182 1.319433 0
M  V30 28 S -4.464373 -0.492837 1.991177 0
M  V30 29 O -5.007685 0.363695 0.884264 0
M  V30 30 O -5.543451 -0.693682 3.015721 0
M  V30 31 C -3.088138 0.346136 2.684008 0
M  V30 32 C -2.366605 1.220980 1.868204 0
M  V30 33 C -1.264922 1.952789 2.257386 0
M  V30 34 C -0.832396 1.815857 3.558778 0
M  V30 35 C 0.349610 2.584149 4.021260 0
M  V30 36 F 0.002715 3.676073 4.788659 0
M  V30 37 F 1.041980 3.041075 2.930999 0
M  V30 38 F 1.229383 1.791508 4.761077 0
M  V30 39 C -1.530526 0.951531 4.396263 0
M  V30 40 C -2.624549 0.241309 3.964873 0
M  V30 41 C -0.707333 -2.638585 -0.545204 0
M  V30 42 C 2.439494 -1.383140 0.995414 0
M  V30 43 H 3.920469 -3.787251 3.845518 0
M  V30 44 H 3.280677 -2.589963 5.065360 0
M  V30 45 H 4.915835 -2.351856 4.302084 0
M  V30 46 H 4.091709 -4.145915 1.845808 0
M  V30 47 H 3.798223 -4.656270 -0.507438 0
M  V30 48 H 2.642300 -3.108425 -1.951021 0
M  V30 49 H 2.621129 2.918680 -2.138265 0
M  V30 50 H 2.633962 5.213912 -3.155071 0
M  V30 51 H 0.795859 5.822696 -4.718403 0
M  V30 52 H -0.987173 4.140456 -5.220992 0
M  V30 53 H -0.966475 1.932485 -4.219801 0
M  V30 54 H -0.849732 0.063058 -3.298807 0
M  V30 55 H -0.214808 -2.976882 -3.784271 0
M  V30 56 H -1.379845 -5.080314 -3.398733 0
M  V30 57 H -0.911892 -4.624413 1.332422 0
M  V30 58 H -2.663694 -4.775285 2.855936 0
M  V30 59 H -3.750571 -4.685558 1.464683 0
M  V30 60 H -2.531432 -2.244677 2.834909 0
M  V30 61 H -4.138448 -2.883737 3.176266 0
M  V30 62 H -3.164857 -1.759827 0.658530 0
M  V30 63 H -2.693924 1.339156 0.842960 0
M  V30 64 H -0.777041 2.607313 1.534942 0
M  V30 65 H -1.184856 0.845182 5.424307 0
M  V30 66 H -3.186606 -0.443076 4.610421 0
M  V30 67 H -0.562149 -2.007228 0.326779 0
M  V30 68 H 2.018029 -0.430125 1.320993 0
M  V30 END ATOM
M  V30 BEGIN BOND
M  V30 1 1 1 2
M  V30 2 1 2 3
M  V30 3 2 3 4
M  V30 4 1 4 5
M  V30 5 2 5 6
M  V30 6 1 6 7
M  V30 7 1 7 8
M  V30 8 1 8 9
M  V30 9 2 9 10
M  V30 10 1 10 11
M  V30 11 2 11 12
M  V30 12 1 12 13
M  V30 13 2 13 14
M  V30 14 1 14 15
M  V30 15 2 15 16
M  V30 16 1 10 17
M  V30 17 1 17 18
M  V30 18 1 18 19
M  V30 19 2 19 20
M  V30 20 1 20 21
M  V30 21 2 21 22
M  V30 22 1 22 23
M  V30 23 1 23 24
M  V30 24 1 24 25
M  V30 25 1 25 26
M  V30 26 1 26 27
M  V30 27 1 27 28
M  V30 28 2 28 29
M  V30 29 2 28 30
M  V30 30 1 28 31
M  V30 31 2 31 32
M  V30 32 1 32 33
M  V30 33 2 33 34
M  V30 34 1 34 35
M  V30 35 1 35 36
M  V30 36 1 35 37
M  V30 37 1 35 38
M  V30 38 1 34 39
M  V30 39 2 39 40
M  V30 40 2 23 41
M  V30 41 2 7 42
M  V30 42 1 42 3
M  V30 43 2 18 8
M  V30 44 1 41 19
M  V30 45 1 16 11
M  V30 46 1 40 31
M  V30 47 1 1 43
M  V30 48 1 1 44
M  V30 49 1 1 45
M  V30 50 1 4 46
M  V30 51 1 5 47
M  V30 52 1 6 48
M  V30 53 1 12 49
M  V30 54 1 13 50
M  V30 55 1 14 51
M  V30 56 1 15 52
M  V30 57 1 16 53
M  V30 58 1 17 54
M  V30 59 1 20 55
M  V30 60 1 21 56
M  V30 61 1 24 57
M  V30 62 1 25 58
M  V30 63 1 25 59
M  V30 64 1 26 60
M  V30 65 1 26 61
M  V30 66 1 27 62
M  V30 67 1 32 63
M  V30 68 1 33 64
M  V30 69 1 39 65
M  V30 70 1 40 66
M  V30 71 1 41 67
M  V30 72 1 42 68
M  V30 END BOND
M  V30 END CTAB
M  END
>  <Dataset>  (454) 
ChEMBL_Kinases

>  <Ligand_Instance>  (454) 
nan

>  <PDB_ID>  (454) 
nan

>  <Standardized_SMILES>  (454) 
COc1cccc(-c2nc(-c3ccccc3)[nH]c2-c2ccnc(NCCNS(=O)(=O)c3ccc(C(F)(F)F)cc3)c2)c1

>  <Name>  (454) 
nan

>  <Pocket>  (454) 
nan

>  <ATP_Site>  (454) 
nan

>  <Peripheral>  (454) 
nan

>  <Num_H_Atoms_ProtBoundConf>  (454) 
nan

>  <Num_Resolved_Atoms>  (454) 
nan

>  <Num_Not_Resolved_Atoms>  (454) 
nan

$$$$
CHEMBL4790647
     RDKit          3D

  0  0  0  0  0  0  0  0  0  0999 V3000
M  V30 BEGIN CTAB
M  V30 COUNTS 46 48 0 0 0
M  V30 BEGIN ATOM
M  V30 1 C 0.532023 -3.683159 2.156994 0
M  V30 2 N 1.448004 -2.780870 2.795938 0
M  V30 3 C 1.341448 -2.986991 4.237583 0
M  V30 4 C 2.830412 -2.981161 2.381992 0
M  V30 5 C 3.710942 -1.964344 3.087777 0
M  V30 6 N 3.255072 -0.629871 2.719588 0
M  V30 7 C 3.417186 -0.129185 1.396839 0
M  V30 8 N 4.476360 -0.268537 0.706185 0
M  V30 9 C 4.457037 0.285274 -0.572660 0
M  V30 10 O 5.428764 0.244067 -1.404210 0
M  V30 11 C 3.239758 0.959860 -0.989301 0
M  V30 12 C 2.790837 1.584270 -2.030332 0
M  V30 13 C 1.438727 2.181005 -2.139984 0
M  V30 14 C 1.140016 3.368310 -2.735018 0
M  V30 15 S -0.751059 3.414602 -2.497767 0
M  V30 16 C -0.709360 1.806240 -1.641381 0
M  V30 17 C -1.987706 1.178901 -1.138145 0
M  V30 18 C -3.179883 1.820354 -1.353785 0
M  V30 19 C -4.287897 1.173191 -0.860790 0
M  V30 20 C -4.197195 -0.030446 -0.200392 0
M  V30 21 O -5.214062 -0.797158 0.349102 0
M  V30 22 C -5.653869 -0.645151 1.683757 0
M  V30 23 F -4.640682 -0.872896 2.595673 0
M  V30 24 F -6.671567 -1.583192 1.882231 0
M  V30 25 F -6.210717 0.602285 1.843059 0
M  V30 26 C -2.958759 -0.656513 0.001015 0
M  V30 27 C -1.814273 -0.019496 -0.490644 0
M  V30 28 N 0.425103 1.500022 -1.634235 0
M  V30 29 S 2.165923 0.802360 0.466903 0
M  V30 30 H -0.224411 -4.060310 2.900843 0
M  V30 31 H -0.035053 -3.108883 1.368223 0
M  V30 32 H 0.987891 -4.544716 1.662443 0
M  V30 33 H 0.288492 -3.266934 4.520573 0
M  V30 34 H 1.611285 -2.042384 4.743662 0
M  V30 35 H 1.993821 -3.826248 4.524057 0
M  V30 36 H 2.870892 -2.799496 1.285304 0
M  V30 37 H 3.139295 -4.024413 2.574545 0
M  V30 38 H 4.777294 -2.097775 2.810148 0
M  V30 39 H 3.563165 -2.068288 4.172722 0
M  V30 40 H 2.785665 0.007100 3.424879 0
M  V30 41 H 3.526514 1.631196 -2.849930 0
M  V30 42 H 1.943766 4.009953 -3.189157 0
M  V30 43 H -3.269499 2.764502 -1.869573 0
M  V30 44 H -5.290948 1.555793 -0.953638 0
M  V30 45 H -2.780916 -1.596316 0.504137 0
M  V30 46 H -0.819539 -0.471022 -0.357329 0
M  V30 END ATOM
M  V30 BEGIN BOND
M  V30 1 1 1 2
M  V30 2 1 2 3
M  V30 3 1 2 4
M  V30 4 1 4 5
M  V30 5 1 5 6
M  V30 6 1 6 7
M  V30 7 2 7 8
M  V30 8 1 8 9
M  V30 9 2 9 10
M  V30 10 1 9 11
M  V30 11 2 11 12
M  V30 12 1 12 13
M  V30 13 2 13 14
M  V30 14 1 14 15
M  V30 15 1 15 16
M  V30 16 1 16 17
M  V30 17 2 17 18
M  V30 18 1 18 19
M  V30 19 2 19 20
M  V30 20 1 20 21
M  V30 21 1 21 22
M  V30 22 1 22 23
M  V30 23 1 22 24
M  V30 24 1 22 25
M  V30 25 1 20 26
M  V30 26 2 26 27
M  V30 27 2 16 28
M  V30 28 1 11 29
M  V30 29 1 29 7
M  V30 30 1 28 13
M  V30 31 1 27 17
M  V30 32 1 1 30
M  V30 33 1 1 31
M  V30 34 1 1 32
M  V30 35 1 3 33
M  V30 36 1 3 34
M  V30 37 1 3 35
M  V30 38 1 4 36
M  V30 39 1 4 37
M  V30 40 1 5 38
M  V30 41 1 5 39
M  V30 42 1 6 40
M  V30 43 1 12 41
M  V30 44 1 14 42
M  V30 45 1 18 43
M  V30 46 1 19 44
M  V30 47 1 26 45
M  V30 48 1 27 46
M  V30 END BOND
M  V30 END CTAB
M  END
>  <Dataset>  (455) 
ChEMBL_Kinases

>  <Ligand_Instance>  (455) 
nan

>  <PDB_ID>  (455) 
nan

>  <Standardized_SMILES>  (455) 
CN(C)CCNC1=NC(=O)/C(=C/c2csc(-c3ccc(OC(F)(F)F)cc3)n2)S1

>  <Name>  (455) 
nan

>  <Pocket>  (455) 
nan

>  <ATP_Site>  (455) 
nan

>  <Peripheral>  (455) 
nan

>  <Num_H_Atoms_ProtBoundConf>  (455) 
nan

>  <Num_Resolved_Atoms>  (455) 
nan

>  <Num_Not_Resolved_Atoms>  (455) 
nan

$$$$
CHEMBL4129028
     RDKit          3D

  0  0  0  0  0  0  0  0  0  0999 V3000
M  V30 BEGIN CTAB
M  V30 COUNTS 224 228 0 0 0
M  V30 BEGIN ATOM
M  V30 1 C -8.284613 3.578257 -5.608696 0
M  V30 2 C -7.853641 2.206028 -6.011845 0
M  V30 3 C -6.346452 2.024578 -5.959251 0 CFG=2
M  V30 4 C -6.079491 0.608243 -6.384670 0
M  V30 5 C -5.711006 2.457182 -4.690745 0 CFG=2
M  V30 6 N -4.252092 2.273265 -4.738609 0
M  V30 7 C -3.052737 3.025627 -4.718357 0
M  V30 8 O -3.300623 4.267554 -4.626528 0
M  V30 9 C -1.791243 2.201055 -4.809966 0 CFG=2
M  V30 10 C -1.642588 1.324491 -3.594059 0
M  V30 11 N -0.697199 3.096114 -4.990985 0
M  V30 12 C -0.330198 3.283243 -6.371058 0
M  V30 13 O -1.016615 2.657576 -7.256757 0
M  V30 14 C 0.700551 4.058790 -7.126593 0 CFG=1
M  V30 15 N 1.635521 4.626129 -6.203815 0
M  V30 16 C 2.185581 5.780081 -5.641611 0
M  V30 17 O 1.681783 6.840571 -6.077628 0
M  V30 18 C 3.262296 5.828904 -4.629632 0 CFG=2
M  V30 19 C 4.481665 6.516328 -5.264279 0
M  V30 20 O 4.091044 7.798705 -5.590865 0
M  V30 21 N 3.694791 4.495023 -4.310366 0
M  V30 22 C 3.920234 3.910463 -3.023711 0
M  V30 23 O 3.691083 4.763181 -2.099920 0
M  V30 24 C 4.371235 2.450016 -2.987202 0 CFG=2
M  V30 25 C 3.231243 1.618371 -3.466471 0
M  V30 26 C 3.463877 0.161082 -3.492053 0
M  V30 27 C 4.465121 -0.732068 -3.214079 0
M  V30 28 N 4.023285 -1.974713 -3.465389 0
M  V30 29 C 2.756012 -1.867278 -3.896151 0
M  V30 30 N 2.392761 -0.562422 -3.920205 0
M  V30 31 N 4.692591 2.099404 -1.616530 0
M  V30 32 C 6.022212 1.853611 -1.067356 0
M  V30 33 O 6.737716 2.037870 -2.108352 0
M  V30 34 C 6.195531 1.507710 0.348236 0 CFG=2
M  V30 35 C 6.839675 0.208637 0.599901 0
M  V30 36 C 8.210441 -0.054963 0.120075 0
M  V30 37 C 9.258026 0.901011 0.658817 0
M  V30 38 C 8.364416 -0.299479 -1.344719 0
M  V30 39 N 4.872628 1.451465 0.995200 0
M  V30 40 C 4.365894 2.399420 1.906556 0
M  V30 41 O 5.187135 3.358962 2.115301 0
M  V30 42 C 3.044175 2.335091 2.570726 0 CFG=2
M  V30 43 C 3.147060 2.778688 3.994428 0
M  V30 44 C 2.782506 1.504184 4.734521 0
M  V30 45 C 3.186046 0.482208 3.649197 0
M  V30 46 N 2.412748 1.040659 2.530199 0
M  V30 47 C 1.411999 0.505680 1.688477 0
M  V30 48 O 0.971742 1.372883 0.848030 0
M  V30 49 C 0.713590 -0.753811 1.480558 0 CFG=2
M  V30 50 C -0.745175 -0.714240 1.736017 0
M  V30 51 C -1.023150 -1.793134 2.726239 0
M  V30 52 C 0.315644 -2.256940 3.268647 0
M  V30 53 N 1.268677 -1.881981 2.240147 0
M  V30 54 C 2.566367 -2.381256 1.841446 0
M  V30 55 O 3.227279 -1.822321 0.891686 0
M  V30 56 C 3.411539 -3.475370 2.281580 0 CFG=2
M  V30 57 C 3.872376 -4.280867 1.073540 0
M  V30 58 C 2.702850 -4.842723 0.341688 0
M  V30 59 O 1.570692 -4.555261 0.815153 0
M  V30 60 O 2.860162 -5.634536 -0.788112 0
M  V30 61 N 2.878013 -4.325425 3.302237 0
M  V30 62 C 3.310699 -4.427811 4.631540 0
M  V30 63 O 4.258580 -3.676758 4.989287 0
M  V30 64 C 2.881038 -5.256588 5.732684 0 CFG=2
M  V30 65 C 4.008054 -6.327152 5.989048 0
M  V30 66 C 5.277702 -5.625453 6.298058 0
M  V30 67 C 5.331742 -5.245242 7.648122 0
M  V30 68 C 6.435483 -4.554536 8.186525 0
M  V30 69 C 7.486055 -4.250667 7.353963 0
M  V30 70 Cl 8.893658 -3.374467 7.972304 0
M  V30 71 C 7.447521 -4.620530 6.024971 0
M  V30 72 Cl 8.732641 -4.271550 4.908453 0
M  V30 73 C 6.372190 -5.291931 5.502272 0
M  V30 74 N 1.694862 -6.052359 5.411862 0
M  V30 75 C 1.108504 -7.093203 6.134828 0
M  V30 76 O 1.545947 -7.552735 7.223892 0
M  V30 77 C -0.099214 -7.857684 5.794544 0 CFG=1
M  V30 78 N -0.839393 -7.046801 4.791152 0
M  V30 79 C -2.233561 -6.826780 5.089606 0
M  V30 80 C -3.252529 -6.060493 4.312405 0
M  V30 81 O -2.768042 -7.313130 6.151179 0
M  V30 82 C 0.274438 -9.158300 5.059907 0 CFG=1
M  V30 83 C 1.019424 -8.826716 3.779996 0
M  V30 84 O 0.984199 -9.981601 5.874282 0
M  V30 85 C 1.330816 3.125131 -8.143094 0 CFG=1
M  V30 86 C 1.879952 1.877226 -7.444224 0
M  V30 87 O 0.300349 2.653145 -8.968460 0
M  V30 88 P 0.552830 2.940059 -10.594066 0
M  V30 89 O -0.509489 3.928316 -11.068752 0
M  V30 90 O 2.040606 3.633301 -10.933367 0
M  V30 91 O 0.288889 1.536693 -11.526605 0
M  V30 92 C -6.200274 1.857801 -3.447869 0
M  V30 93 O -4.944731 1.670925 -3.239766 0
M  V30 94 N -7.217494 1.479346 -2.572001 0
M  V30 95 C -7.017913 0.815992 -1.333558 0 CFG=1
M  V30 96 C -5.914860 -0.227698 -1.327188 0
M  V30 97 C -6.148962 -1.326952 -2.268335 0
M  V30 98 C -6.926274 -2.383147 -1.748577 0
M  V30 99 C -7.276972 -3.528174 -2.423812 0
M  V30 100 C -6.860647 -3.718076 -3.727350 0
M  V30 101 O -7.149329 -4.826594 -4.497789 0
M  V30 102 C -6.109179 -2.705549 -4.241009 0
M  V30 103 C -5.761251 -1.568045 -3.571922 0
M  V30 104 C -6.798038 1.749524 -0.222502 0
M  V30 105 O -6.901309 2.894425 -0.724408 0
M  V30 106 N -6.527932 1.409011 1.113557 0
M  V30 107 C -6.345146 2.539351 2.002021 0 CFG=1
M  V30 108 C -7.160187 2.321033 3.241052 0
M  V30 109 C -4.909555 2.579630 2.456067 0
M  V30 110 O -4.999798 1.577070 1.723886 0
M  V30 111 N -4.360994 3.563935 3.311405 0
M  V30 112 C -2.954973 3.380444 3.590557 0 CFG=1
M  V30 113 C -2.139310 4.568708 3.102285 0
M  V30 114 C -2.558790 5.820709 3.750450 0
M  V30 115 N -1.785634 6.931763 3.288643 0
M  V30 116 O -3.375971 6.255758 4.582571 0
M  V30 117 C -2.705247 3.154472 5.029369 0
M  V30 118 N -1.332829 2.943510 5.372884 0
M  V30 119 O -3.425972 3.100888 6.049795 0
M  V30 120 H -8.753918 3.584810 -4.595929 0
M  V30 121 H -9.129702 3.896708 -6.290253 0
M  V30 122 H -7.499353 4.355631 -5.741254 0
M  V30 123 H -8.366068 1.442848 -5.409981 0
M  V30 124 H -8.164057 2.028774 -7.082320 0
M  V30 125 H -5.951244 2.726845 -6.760531 0
M  V30 126 H -6.786473 -0.098857 -5.893283 0
M  V30 127 H -5.070381 0.243676 -6.294417 0
M  V30 128 H -6.370926 0.545348 -7.484113 0
M  V30 129 H -5.813572 3.590474 -4.673435 0
M  V30 130 H -4.176554 1.217593 -4.825612 0
M  V30 131 H -1.948996 1.561848 -5.698440 0
M  V30 132 H -2.426772 0.544985 -3.534755 0
M  V30 133 H -1.656922 1.970668 -2.682384 0
M  V30 134 H -0.673999 0.788170 -3.588976 0
M  V30 135 H -0.048220 3.685429 -4.454662 0
M  V30 136 H 0.189226 4.854780 -7.739211 0
M  V30 137 H 2.035661 3.717377 -5.825733 0
M  V30 138 H 3.000600 6.429333 -3.740343 0
M  V30 139 H 4.855334 5.944616 -6.115007 0
M  V30 140 H 5.259193 6.555942 -4.468768 0
M  V30 141 H 3.869745 8.289787 -4.738215 0
M  V30 142 H 3.874751 3.874455 -5.149366 0
M  V30 143 H 5.236912 2.322054 -3.641692 0
M  V30 144 H 2.979558 1.953859 -4.522207 0
M  V30 145 H 2.283674 1.824144 -2.911082 0
M  V30 146 H 5.357866 -0.275692 -2.877263 0
M  V30 147 H 2.200810 -2.754105 -4.156107 0
M  V30 148 H 1.400952 -0.361184 -4.246894 0
M  V30 149 H 3.811113 2.038469 -1.016340 0
M  V30 150 H 6.767164 2.367679 0.850517 0
M  V30 151 H 6.811656 -0.012372 1.723947 0
M  V30 152 H 6.158324 -0.608884 0.203320 0
M  V30 153 H 8.543101 -1.059814 0.597043 0
M  V30 154 H 10.177741 0.718020 0.070311 0
M  V30 155 H 9.508230 0.627063 1.697216 0
M  V30 156 H 8.970087 1.950211 0.534591 0
M  V30 157 H 8.949998 0.513595 -1.861695 0
M  V30 158 H 9.015813 -1.219689 -1.545565 0
M  V30 159 H 7.424912 -0.553735 -1.863310 0
M  V30 160 H 4.287628 0.632937 0.740864 0
M  V30 161 H 2.390023 3.121875 2.068107 0
M  V30 162 H 2.472205 3.609958 4.266674 0
M  V30 163 H 4.217963 3.029574 4.201918 0
M  V30 164 H 1.688430 1.485745 4.874976 0
M  V30 165 H 3.351510 1.364775 5.662011 0
M  V30 166 H 4.267790 0.631123 3.507566 0
M  V30 167 H 2.870251 -0.514407 3.948901 0
M  V30 168 H 0.881002 -1.038163 0.397147 0
M  V30 169 H -1.101210 0.265580 2.121919 0
M  V30 170 H -1.344989 -0.967028 0.814745 0
M  V30 171 H -1.512659 -2.702484 2.283876 0
M  V30 172 H -1.689650 -1.433300 3.537487 0
M  V30 173 H 0.376880 -3.352097 3.393820 0
M  V30 174 H 0.557930 -1.790492 4.244518 0
M  V30 175 H 4.370669 -2.993366 2.675569 0
M  V30 176 H 4.622703 -5.040778 1.312433 0
M  V30 177 H 4.355015 -3.579087 0.327859 0
M  V30 178 H 2.193650 -6.416320 -0.868354 0
M  V30 179 H 2.083607 -4.953432 3.048501 0
M  V30 180 H 2.751307 -4.848335 6.727016 0
M  V30 181 H 3.709748 -6.996660 6.799898 0
M  V30 182 H 4.097114 -6.845060 5.027815 0
M  V30 183 H 4.560468 -5.429206 8.389402 0
M  V30 184 H 6.460078 -4.260792 9.228360 0
M  V30 185 H 6.204245 -5.650899 4.493345 0
M  V30 186 H 1.140865 -5.891299 4.546652 0
M  V30 187 H -0.741517 -8.122800 6.615790 0
M  V30 188 H -0.643591 -6.567800 3.896026 0
M  V30 189 H -3.628242 -5.267689 5.025122 0
M  V30 190 H -4.124936 -6.653675 4.022752 0
M  V30 191 H -2.816262 -5.501061 3.453228 0
M  V30 192 H -0.711132 -9.619638 4.816422 0
M  V30 193 H 1.855468 -8.118403 3.977545 0
M  V30 194 H 0.301717 -8.350957 3.085584 0
M  V30 195 H 1.424468 -9.731214 3.294386 0
M  V30 196 H 1.938112 -10.012103 5.544838 0
M  V30 197 H 2.104508 3.609075 -8.743559 0
M  V30 198 H 2.901413 2.028780 -7.054503 0
M  V30 199 H 1.138592 1.624984 -6.671779 0
M  V30 200 H 1.900328 1.004922 -8.138777 0
M  V30 201 H 2.735643 2.909089 -10.867693 0
M  V30 202 H 0.266887 0.712431 -10.950866 0
M  V30 203 H -8.024680 1.833408 -3.119840 0
M  V30 204 H -7.946157 0.175047 -1.177728 0
M  V30 205 H -5.901729 -0.640933 -0.295850 0
M  V30 206 H -4.902991 0.249290 -1.426672 0
M  V30 207 H -7.316422 -2.341184 -0.719048 0
M  V30 208 H -7.878788 -4.306151 -1.964672 0
M  V30 209 H -7.796517 -5.536628 -4.244998 0
M  V30 210 H -5.745361 -2.790198 -5.279996 0
M  V30 211 H -5.162811 -0.815261 -4.031667 0
M  V30 212 H -6.477188 0.402671 1.379630 0
M  V30 213 H -6.550730 3.491861 1.528372 0
M  V30 214 H -7.119651 3.235391 3.877630 0
M  V30 215 H -8.175750 1.939388 3.084388 0
M  V30 216 H -6.607746 1.542742 3.841992 0
M  V30 217 H -4.986486 4.301950 3.650688 0
M  V30 218 H -2.574626 2.499243 3.023834 0
M  V30 219 H -1.072517 4.307190 3.286230 0
M  V30 220 H -2.249752 4.686217 1.999632 0
M  V30 221 H -2.061074 7.852588 2.844588 0
M  V30 222 H -0.967630 7.547281 3.060319 0
M  V30 223 H -0.869898 2.056429 5.654806 0
M  V30 224 H -0.386844 3.371410 5.492040 0
M  V30 END ATOM
M  V30 BEGIN BOND
M  V30 1 1 1 2
M  V30 2 1 2 3
M  V30 3 1 3 4
M  V30 4 1 3 5
M  V30 5 1 5 6
M  V30 6 1 6 7
M  V30 7 2 7 8
M  V30 8 1 7 9
M  V30 9 1 9 10
M  V30 10 1 9 11
M  V30 11 1 11 12
M  V30 12 2 12 13
M  V30 13 1 12 14
M  V30 14 1 14 15
M  V30 15 1 15 16
M  V30 16 2 16 17
M  V30 17 1 16 18
M  V30 18 1 18 19
M  V30 19 1 19 20
M  V30 20 1 18 21
M  V30 21 1 21 22
M  V30 22 2 22 23
M  V30 23 1 22 24
M  V30 24 1 24 25
M  V30 25 1 25 26
M  V30 26 2 26 27
M  V30 27 1 27 28
M  V30 28 2 28 29
M  V30 29 1 29 30
M  V30 30 1 24 31
M  V30 31 1 31 32
M  V30 32 2 32 33
M  V30 33 1 32 34
M  V30 34 1 34 35
M  V30 35 1 35 36
M  V30 36 1 36 37
M  V30 37 1 36 38
M  V30 38 1 34 39
M  V30 39 1 39 40
M  V30 40 2 40 41
M  V30 41 1 40 42
M  V30 42 1 42 43
M  V30 43 1 43 44
M  V30 44 1 44 45
M  V30 45 1 45 46
M  V30 46 1 46 47
M  V30 47 2 47 48
M  V30 48 1 47 49
M  V30 49 1 49 50
M  V30 50 1 50 51
M  V30 51 1 51 52
M  V30 52 1 52 53
M  V30 53 1 53 54
M  V30 54 2 54 55
M  V30 55 1 54 56
M  V30 56 1 56 57
M  V30 57 1 57 58
M  V30 58 2 58 59
M  V30 59 1 58 60
M  V30 60 1 56 61
M  V30 61 1 61 62
M  V30 62 2 62 63
M  V30 63 1 62 64
M  V30 64 1 64 65
M  V30 65 1 65 66
M  V30 66 2 66 67
M  V30 67 1 67 68
M  V30 68 2 68 69
M  V30 69 1 69 70
M  V30 70 1 69 71
M  V30 71 1 71 72
M  V30 72 2 71 73
M  V30 73 1 64 74
M  V30 74 1 74 75
M  V30 75 2 75 76
M  V30 76 1 75 77
M  V30 77 1 77 78
M  V30 78 1 78 79
M  V30 79 1 79 80
M  V30 80 2 79 81
M  V30 81 1 77 82
M  V30 82 1 82 83
M  V30 83 1 82 84
M  V30 84 1 14 85
M  V30 85 1 85 86
M  V30 86 1 85 87
M  V30 87 1 87 88
M  V30 88 2 88 89
M  V30 89 1 88 90
M  V30 90 1 88 91
M  V30 91 1 5 92
M  V30 92 2 92 93
M  V30 93 1 92 94
M  V30 94 1 94 95
M  V30 95 1 95 96
M  V30 96 1 96 97
M  V30 97 2 97 98
M  V30 98 1 98 99
M  V30 99 2 99 100
M  V30 100 1 100 101
M  V30 101 1 100 102
M  V30 102 2 102 103
M  V30 103 1 95 104
M  V30 104 2 104 105
M  V30 105 1 104 106
M  V30 106 1 106 107
M  V30 107 1 107 108
M  V30 108 1 107 109
M  V30 109 2 109 110
M  V30 110 1 109 111
M  V30 111 1 111 112
M  V30 112 1 112 113
M  V30 113 1 113 114
M  V30 114 1 114 115
M  V30 115 2 114 116
M  V30 116 1 112 117
M  V30 117 1 117 118
M  V30 118 2 117 119
M  V30 119 1 30 26
M  V30 120 1 46 42
M  V30 121 1 53 49
M  V30 122 1 73 66
M  V30 123 1 103 97
M  V30 124 1 1 120
M  V30 125 1 1 121
M  V30 126 1 1 122
M  V30 127 1 2 123
M  V30 128 1 2 124
M  V30 129 1 3 125 CFG=3
M  V30 130 1 4 126
M  V30 131 1 4 127
M  V30 132 1 4 128
M  V30 133 1 5 129 CFG=1
M  V30 134 1 6 130
M  V30 135 1 9 131 CFG=3
M  V30 136 1 10 132
M  V30 137 1 10 133
M  V30 138 1 10 134
M  V30 139 1 11 135
M  V30 140 1 14 136 CFG=3
M  V30 141 1 15 137
M  V30 142 1 18 138 CFG=1
M  V30 143 1 19 139
M  V30 144 1 19 140
M  V30 145 1 20 141
M  V30 146 1 21 142
M  V30 147 1 24 143 CFG=3
M  V30 148 1 25 144
M  V30 149 1 25 145
M  V30 150 1 27 146
M  V30 151 1 29 147
M  V30 152 1 30 148
M  V30 153 1 31 149
M  V30 154 1 34 150 CFG=1
M  V30 155 1 35 151
M  V30 156 1 35 152
M  V30 157 1 36 153
M  V30 158 1 37 154
M  V30 159 1 37 155
M  V30 160 1 37 156
M  V30 161 1 38 157
M  V30 162 1 38 158
M  V30 163 1 38 159
M  V30 164 1 39 160
M  V30 165 1 42 161 CFG=3
M  V30 166 1 43 162
M  V30 167 1 43 163
M  V30 168 1 44 164
M  V30 169 1 44 165
M  V30 170 1 45 166
M  V30 171 1 45 167
M  V30 172 1 49 168 CFG=3
M  V30 173 1 50 169
M  V30 174 1 50 170
M  V30 175 1 51 171
M  V30 176 1 51 172
M  V30 177 1 52 173
M  V30 178 1 52 174
M  V30 179 1 56 175 CFG=1
M  V30 180 1 57 176
M  V30 181 1 57 177
M  V30 182 1 60 178
M  V30 183 1 61 179
M  V30 184 1 64 180 CFG=1
M  V30 185 1 65 181
M  V30 186 1 65 182
M  V30 187 1 67 183
M  V30 188 1 68 184
M  V30 189 1 73 185
M  V30 190 1 74 186
M  V30 191 1 77 187 CFG=1
M  V30 192 1 78 188
M  V30 193 1 80 189
M  V30 194 1 80 190
M  V30 195 1 80 191
M  V30 196 1 82 192 CFG=3
M  V30 197 1 83 193
M  V30 198 1 83 194
M  V30 199 1 83 195
M  V30 200 1 84 196
M  V30 201 1 85 197 CFG=3
M  V30 202 1 86 198
M  V30 203 1 86 199
M  V30 204 1 86 200
M  V30 205 1 90 201
M  V30 206 1 91 202
M  V30 207 1 94 203
M  V30 208 1 95 204 CFG=1
M  V30 209 1 96 205
M  V30 210 1 96 206
M  V30 211 1 98 207
M  V30 212 1 99 208
M  V30 213 1 101 209
M  V30 214 1 102 210
M  V30 215 1 103 211
M  V30 216 1 106 212
M  V30 217 1 107 213 CFG=3
M  V30 218 1 108 214
M  V30 219 1 108 215
M  V30 220 1 108 216
M  V30 221 1 111 217
M  V30 222 1 112 218 CFG=3
M  V30 223 1 113 219
M  V30 224 1 113 220
M  V30 225 1 115 221
M  V30 226 1 115 222
M  V30 227 1 118 223
M  V30 228 1 118 224
M  V30 END BOND
M  V30 END CTAB
M  END
>  <Dataset>  (456) 
ChEMBL_Kinases

>  <Ligand_Instance>  (456) 
nan

>  <PDB_ID>  (456) 
nan

>  <Standardized_SMILES>  (456) 
CC[C@H](C)[C@H](NC(=O)[C@H](C)NC(=O)[C@@H](NC(=O)[C@H](CO)NC(=O)[C@H](Cc1cnc[nH]1)NC(=O)[C@H](CC(C)C)NC(=O)[C@@H]1CCCN1C(=O)[C@@H]1CCCN1C(=O)[C@H](CC(=O)O)NC(=O)[C@H](Cc1ccc(Cl)c(Cl)c1)NC(=O)[C@@H](NC(C)=O)[C@@H](C)O)[C@@H](C)OP(=O)(O)O)C(=O)N[C@@H](Cc1ccc(O)cc1)C(=O)N[C@@H](C)C(=O)N[C@@H](CC(N)=O)C(N)=O

>  <Name>  (456) 
nan

>  <Pocket>  (456) 
nan

>  <ATP_Site>  (456) 
nan

>  <Peripheral>  (456) 
nan

>  <Num_H_Atoms_ProtBoundConf>  (456) 
nan

>  <Num_Resolved_Atoms>  (456) 
nan

>  <Num_Not_Resolved_Atoms>  (456) 
nan

$$$$
CHEMBL4791260
     RDKit          3D

  0  0  0  0  0  0  0  0  0  0999 V3000
M  V30 BEGIN CTAB
M  V30 COUNTS 59 62 0 0 0
M  V30 BEGIN ATOM
M  V30 1 C 4.191735 -4.662779 3.979983 0
M  V30 2 C 3.213071 -3.990413 3.095336 0
M  V30 3 N 3.351208 -2.775952 2.560410 0
M  V30 4 C 2.327157 -2.402823 1.800592 0
M  V30 5 C 1.924019 -1.276095 0.979345 0
M  V30 6 C 2.588767 -0.600386 0.061144 0
M  V30 7 C 3.952237 -0.912160 -0.305832 0
M  V30 8 O 4.661142 -1.823367 0.149962 0
M  V30 9 N 4.360499 0.014414 -1.298694 0
M  V30 10 C 3.251757 0.872944 -1.525176 0
M  V30 11 C 3.113248 1.942217 -2.384526 0
M  V30 12 C 1.895294 2.626065 -2.406310 0
M  V30 13 C 0.808854 2.302963 -1.619475 0
M  V30 14 C -0.405817 3.100686 -1.734929 0
M  V30 15 O -0.360784 4.065447 -2.541960 0
M  V30 16 N -1.566468 2.792258 -0.971525 0
M  V30 17 C -2.838572 3.459624 -0.952149 0 CFG=2
M  V30 18 C -3.201527 3.973319 0.421397 0
M  V30 19 C -3.955946 2.604087 -1.414151 0
M  V30 20 C -4.949515 3.027992 -2.302133 0
M  V30 21 C -5.975850 2.213969 -2.715401 0
M  V30 22 C -6.048852 0.917223 -2.246073 0
M  V30 23 C -5.103188 0.422754 -1.364129 0
M  V30 24 C -4.092539 1.302724 -0.988764 0
M  V30 25 C 0.973855 1.233354 -0.772378 0
M  V30 26 C 2.170017 0.545525 -0.736731 0
M  V30 27 C 1.452030 -3.499920 1.865990 0
M  V30 28 C 0.122792 -3.747430 1.249512 0
M  V30 29 C 1.999668 -4.479592 2.665304 0
M  V30 30 N 1.526605 -5.765212 3.049705 0
M  V30 31 C 0.734006 -5.944085 4.225709 0
M  V30 32 O 0.477060 -4.913709 4.899497 0
M  V30 33 C 0.314219 -7.353522 4.495000 0
M  V30 34 Cl -0.661435 -7.438817 5.976195 0
M  V30 35 H 3.632050 -4.941101 4.905090 0
M  V30 36 H 5.046703 -4.007584 4.175986 0
M  V30 37 H 4.556802 -5.623051 3.558749 0
M  V30 38 H 4.156879 -2.169641 2.721697 0
M  V30 39 H 0.897566 -0.884300 1.114356 0
M  V30 40 H 5.304721 0.015826 -1.740841 0
M  V30 41 H 3.942636 2.219753 -3.011984 0
M  V30 42 H 1.883804 3.449804 -3.113120 0
M  V30 43 H -1.598240 1.993800 -0.308704 0
M  V30 44 H -2.786195 4.313842 -1.663338 0
M  V30 45 H -3.622597 3.159091 1.064007 0
M  V30 46 H -3.925740 4.824108 0.351210 0
M  V30 47 H -2.335214 4.381098 0.981243 0
M  V30 48 H -4.861917 4.057388 -2.653139 0
M  V30 49 H -6.725845 2.583702 -3.405539 0
M  V30 50 H -6.832325 0.236455 -2.537558 0
M  V30 51 H -5.153093 -0.584594 -0.994779 0
M  V30 52 H -3.346550 0.916754 -0.294553 0
M  V30 53 H 0.143407 0.950347 -0.140065 0
M  V30 54 H 0.263671 -4.501123 0.453433 0
M  V30 55 H -0.280049 -2.842114 0.751391 0
M  V30 56 H -0.573667 -4.163537 2.009862 0
M  V30 57 H 1.786698 -6.564170 2.432767 0
M  V30 58 H 1.169398 -8.037156 4.537342 0
M  V30 59 H -0.322777 -7.629834 3.621288 0
M  V30 END ATOM
M  V30 BEGIN BOND
M  V30 1 1 1 2
M  V30 2 1 2 3
M  V30 3 1 3 4
M  V30 4 1 4 5
M  V30 5 2 5 6
M  V30 6 1 6 7
M  V30 7 2 7 8
M  V30 8 1 7 9
M  V30 9 1 9 10
M  V30 10 2 10 11
M  V30 11 1 11 12
M  V30 12 2 12 13
M  V30 13 1 13 14
M  V30 14 2 14 15
M  V30 15 1 14 16
M  V30 16 1 16 17
M  V30 17 1 17 18
M  V30 18 1 17 19
M  V30 19 2 19 20
M  V30 20 1 20 21
M  V30 21 2 21 22
M  V30 22 1 22 23
M  V30 23 2 23 24
M  V30 24 1 13 25
M  V30 25 2 25 26
M  V30 26 2 4 27
M  V30 27 1 27 28
M  V30 28 1 27 29
M  V30 29 1 29 30
M  V30 30 1 30 31
M  V30 31 2 31 32
M  V30 32 1 31 33
M  V30 33 1 33 34
M  V30 34 2 29 2
M  V30 35 1 26 6
M  V30 36 1 26 10
M  V30 37 1 24 19
M  V30 38 1 1 35
M  V30 39 1 1 36
M  V30 40 1 1 37
M  V30 41 1 3 38
M  V30 42 1 5 39
M  V30 43 1 9 40
M  V30 44 1 11 41
M  V30 45 1 12 42
M  V30 46 1 16 43
M  V30 47 1 17 44 CFG=3
M  V30 48 1 18 45
M  V30 49 1 18 46
M  V30 50 1 18 47
M  V30 51 1 20 48
M  V30 52 1 21 49
M  V30 53 1 22 50
M  V30 54 1 23 51
M  V30 55 1 24 52
M  V30 56 1 25 53
M  V30 57 1 28 54
M  V30 58 1 28 55
M  V30 59 1 28 56
M  V30 60 1 30 57
M  V30 61 1 33 58
M  V30 62 1 33 59
M  V30 END BOND
M  V30 END CTAB
M  END
>  <Dataset>  (457) 
ChEMBL_Kinases

>  <Ligand_Instance>  (457) 
nan

>  <PDB_ID>  (457) 
nan

>  <Standardized_SMILES>  (457) 
Cc1[nH]c(/C=C2\C(=O)Nc3ccc(C(=O)N[C@H](C)c4ccccc4)cc32)c(C)c1NC(=O)CCl

>  <Name>  (457) 
nan

>  <Pocket>  (457) 
nan

>  <ATP_Site>  (457) 
nan

>  <Peripheral>  (457) 
nan

>  <Num_H_Atoms_ProtBoundConf>  (457) 
nan

>  <Num_Resolved_Atoms>  (457) 
nan

>  <Num_Not_Resolved_Atoms>  (457) 
nan

$$$$
CHEMBL4790751
     RDKit          3D

  0  0  0  0  0  0  0  0  0  0999 V3000
M  V30 BEGIN CTAB
M  V30 COUNTS 69 74 0 0 0
M  V30 BEGIN ATOM
M  V30 1 C 8.248711 0.299784 1.970173 0
M  V30 2 N 6.927118 0.894166 1.983050 0
M  V30 3 C 6.620497 2.260590 2.100818 0
M  V30 4 O 7.580776 3.096245 2.210460 0
M  V30 5 C 5.275987 2.799401 2.107230 0
M  V30 6 C 5.124921 4.183535 2.234529 0
M  V30 7 N 3.896896 4.753250 2.246527 0
M  V30 8 C 2.802839 3.974990 2.134100 0
M  V30 9 N 1.491672 4.281445 2.116933 0
M  V30 10 C 0.730447 3.178675 1.984303 0
M  V30 11 C 1.616917 2.120350 1.914385 0
M  V30 12 C 1.238575 0.716109 1.770759 0
M  V30 13 C 1.852634 -0.196729 2.591181 0
M  V30 14 C 1.539440 -1.537908 2.500568 0
M  V30 15 C 0.613942 -1.974044 1.592520 0
M  V30 16 N 0.242954 -3.238680 1.424780 0
M  V30 17 C -0.689320 -3.579646 0.490331 0
M  V30 18 C -1.317211 -2.682773 -0.342537 0
M  V30 19 N -2.260022 -3.165581 -1.278471 0
M  V30 20 C -2.838415 -4.407704 -1.666879 0
M  V30 21 C -3.660879 -5.078868 -0.638102 0
M  V30 22 C -4.976256 -4.593735 -0.657572 0
M  V30 23 C -5.943751 -5.065319 0.198474 0
M  V30 24 C -5.634106 -6.047682 1.115473 0
M  V30 25 C -4.354297 -6.529382 1.144398 0
M  V30 26 Cl -3.813765 -7.774041 2.251809 0
M  V30 27 C -3.393630 -6.055673 0.288132 0
M  V30 28 C -0.940401 -1.347205 -0.180911 0
M  V30 29 N -1.570141 -0.392481 -1.025358 0
M  V30 30 C -1.074878 0.003592 -2.299386 0
M  V30 31 C -2.148634 0.236797 -3.334051 0
M  V30 32 C -3.176757 1.176448 -2.734210 0
M  V30 33 C -3.825524 0.422740 -1.605020 0 CFG=2
M  V30 34 N -4.937372 1.137126 -1.036392 0
M  V30 35 C -2.778959 0.194375 -0.541910 0
M  V30 36 C 0.001962 -1.052307 0.772500 0
M  V30 37 C 0.296134 0.293858 0.842275 0
M  V30 38 C 2.923290 2.617431 2.008290 0
M  V30 39 C 4.167070 1.976119 1.990005 0
M  V30 40 H 9.068496 1.025077 2.090104 0
M  V30 41 H 8.312216 -0.496810 2.740905 0
M  V30 42 H 8.333745 -0.259630 0.995509 0
M  V30 43 H 6.162365 0.190106 1.892855 0
M  V30 44 H 5.963287 4.882083 2.329782 0
M  V30 45 H 1.144880 5.283872 2.200472 0
M  V30 46 H -0.353008 3.163745 1.944979 0
M  V30 47 H 2.596024 0.011107 3.348702 0
M  V30 48 H 1.986317 -2.316002 3.118573 0
M  V30 49 H -0.839415 -4.640015 0.515329 0
M  V30 50 H -2.634765 -2.341949 -1.847492 0
M  V30 51 H -3.378615 -4.334171 -2.609412 0
M  V30 52 H -1.974172 -5.116492 -1.904751 0
M  V30 53 H -5.372472 -3.825063 -1.318051 0
M  V30 54 H -6.970976 -4.731963 0.231327 0
M  V30 55 H -6.303188 -6.500887 1.840832 0
M  V30 56 H -2.371196 -6.387066 0.241090 0
M  V30 57 H -0.473319 0.955668 -2.273524 0
M  V30 58 H -0.373140 -0.755632 -2.733027 0
M  V30 59 H -2.669281 -0.679405 -3.648177 0
M  V30 60 H -1.708891 0.791683 -4.192769 0
M  V30 61 H -3.915676 1.535307 -3.481147 0
M  V30 62 H -2.585689 2.003599 -2.267553 0
M  V30 63 H -4.228955 -0.526089 -2.004784 0
M  V30 64 H -4.600984 2.045320 -0.627473 0
M  V30 65 H -5.301487 0.575734 -0.241497 0
M  V30 66 H -2.618103 1.179718 -0.042359 0
M  V30 67 H -3.268203 -0.435542 0.233296 0
M  V30 68 H -0.136670 1.080644 0.238160 0
M  V30 69 H 4.261252 0.920010 1.891223 0
M  V30 END ATOM
M  V30 BEGIN BOND
M  V30 1 1 1 2
M  V30 2 1 2 3
M  V30 3 2 3 4
M  V30 4 1 3 5
M  V30 5 2 5 6
M  V30 6 1 6 7
M  V30 7 2 7 8
M  V30 8 1 8 9
M  V30 9 1 9 10
M  V30 10 2 10 11
M  V30 11 1 11 12
M  V30 12 2 12 13
M  V30 13 1 13 14
M  V30 14 2 14 15
M  V30 15 1 15 16
M  V30 16 2 16 17
M  V30 17 1 17 18
M  V30 18 1 18 19
M  V30 19 1 19 20
M  V30 20 1 20 21
M  V30 21 2 21 22
M  V30 22 1 22 23
M  V30 23 2 23 24
M  V30 24 1 24 25
M  V30 25 1 25 26
M  V30 26 2 25 27
M  V30 27 2 18 28
M  V30 28 1 28 29
M  V30 29 1 29 30
M  V30 30 1 30 31
M  V30 31 1 31 32
M  V30 32 1 32 33
M  V30 33 1 33 34
M  V30 34 1 33 35
M  V30 35 1 28 36
M  V30 36 2 36 37
M  V30 37 1 11 38
M  V30 38 2 38 39
M  V30 39 1 39 5
M  V30 40 1 38 8
M  V30 41 1 37 12
M  V30 42 1 36 15
M  V30 43 1 27 21
M  V30 44 1 35 29
M  V30 45 1 1 40
M  V30 46 1 1 41
M  V30 47 1 1 42
M  V30 48 1 2 43
M  V30 49 1 6 44
M  V30 50 1 9 45
M  V30 51 1 10 46
M  V30 52 1 13 47
M  V30 53 1 14 48
M  V30 54 1 17 49
M  V30 55 1 19 50
M  V30 56 1 20 51
M  V30 57 1 20 52
M  V30 58 1 22 53
M  V30 59 1 23 54
M  V30 60 1 24 55
M  V30 61 1 27 56
M  V30 62 1 30 57
M  V30 63 1 30 58
M  V30 64 1 31 59
M  V30 65 1 31 60
M  V30 66 1 32 61
M  V30 67 1 32 62
M  V30 68 1 33 63 CFG=3
M  V30 69 1 34 64
M  V30 70 1 34 65
M  V30 71 1 35 66
M  V30 72 1 35 67
M  V30 73 1 37 68
M  V30 74 1 39 69
M  V30 END BOND
M  V30 END CTAB
M  END
>  <Dataset>  (458) 
ChEMBL_Kinases

>  <Ligand_Instance>  (458) 
nan

>  <PDB_ID>  (458) 
nan

>  <Standardized_SMILES>  (458) 
CNC(=O)c1cnc2[nH]cc(-c3ccc4ncc(NCc5cccc(Cl)c5)c(N5CCC[C@H](N)C5)c4c3)c2c1

>  <Name>  (458) 
nan

>  <Pocket>  (458) 
nan

>  <ATP_Site>  (458) 
nan

>  <Peripheral>  (458) 
nan

>  <Num_H_Atoms_ProtBoundConf>  (458) 
nan

>  <Num_Resolved_Atoms>  (458) 
nan

>  <Num_Not_Resolved_Atoms>  (458) 
nan

$$$$
CHEMBL4790807
     RDKit          3D

  0  0  0  0  0  0  0  0  0  0999 V3000
M  V30 BEGIN CTAB
M  V30 COUNTS 70 74 0 0 0
M  V30 BEGIN ATOM
M  V30 1 C 6.028163 -2.001040 5.167754 0
M  V30 2 O 5.184945 -0.900913 5.471955 0
M  V30 3 C 4.784687 0.003777 4.527958 0
M  V30 4 O 5.195128 -0.171713 3.356686 0
M  V30 5 C 3.922421 1.156746 4.756446 0
M  V30 6 C 3.421955 1.428602 5.997843 0
M  V30 7 C 2.593659 2.553391 6.147396 0
M  V30 8 S 2.543370 3.233992 4.427142 0
M  V30 9 C 3.586894 1.989579 3.753633 0
M  V30 10 N 3.915915 2.034347 2.367456 0
M  V30 11 C 3.423517 2.999118 1.448267 0
M  V30 12 N 2.362565 2.733977 0.687808 0
M  V30 13 C 1.788818 3.532565 -0.217295 0
M  V30 14 N 0.657940 3.193648 -1.009608 0
M  V30 15 C -0.135228 2.017278 -1.035937 0
M  V30 16 C 0.110210 1.005547 -0.165122 0
M  V30 17 C -0.630082 -0.156400 -0.141259 0
M  V30 18 C -1.684829 -0.363204 -1.018251 0
M  V30 19 N -2.480092 -1.560867 -1.010442 0
M  V30 20 C -3.374249 -1.953777 -2.091805 0
M  V30 21 C -4.641366 -2.471880 -1.451111 0
M  V30 22 C -4.254145 -3.729996 -0.707225 0
M  V30 23 N -3.550691 -4.630058 -1.570931 0
M  V30 24 C -4.362326 -5.033427 -2.677078 0
M  V30 25 C -3.887018 -6.439891 -3.051682 0
M  V30 26 C -2.858923 -6.770754 -2.007058 0
M  V30 27 C -3.228605 -5.858879 -0.863445 0
M  V30 28 C -3.439168 -3.299508 0.481986 0
M  V30 29 C -2.334103 -2.368748 0.170847 0
M  V30 30 C -1.924908 0.677312 -1.901690 0
M  V30 31 C -1.178393 1.832493 -1.915668 0
M  V30 32 O -1.441857 2.862358 -2.815352 0
M  V30 33 C -2.508940 2.683292 -3.723305 0
M  V30 34 N 2.344302 4.725695 -0.370974 0
M  V30 35 C 3.414105 5.107575 0.336515 0
M  V30 36 C 3.967146 4.247511 1.255652 0
M  V30 37 N 5.113717 4.591573 2.049744 0 CHG=1 VAL=4
M  V30 38 O 5.257670 5.811233 2.267370 0
M  V30 39 O 6.017717 3.676710 2.557184 0 CHG=-1 VAL=1
M  V30 40 H 7.062426 -1.700105 4.935891 0
M  V30 41 H 6.017494 -2.680182 6.030688 0
M  V30 42 H 5.640755 -2.568839 4.282958 0
M  V30 43 H 3.599681 0.857679 6.901984 0
M  V30 44 H 2.103066 2.927484 7.063078 0
M  V30 45 H 4.530158 1.423888 1.794134 0
M  V30 46 H 0.331479 3.929093 -1.707858 0
M  V30 47 H 0.873489 0.982708 0.580216 0
M  V30 48 H -0.449449 -0.975701 0.541322 0
M  V30 49 H -2.823677 -2.808408 -2.595173 0
M  V30 50 H -3.559436 -1.160119 -2.817990 0
M  V30 51 H -5.451433 -2.635962 -2.187399 0
M  V30 52 H -4.932938 -1.715847 -0.679539 0
M  V30 53 H -5.202748 -4.171076 -0.308630 0
M  V30 54 H -5.442001 -5.096719 -2.431592 0
M  V30 55 H -4.270352 -4.437001 -3.583876 0
M  V30 56 H -4.723771 -7.142867 -3.112775 0
M  V30 57 H -3.384467 -6.456030 -4.044053 0
M  V30 58 H -3.033326 -7.851937 -1.740013 0
M  V30 59 H -1.809802 -6.620133 -2.346479 0
M  V30 60 H -4.098438 -6.295488 -0.369900 0
M  V30 61 H -2.348859 -5.757602 -0.210932 0
M  V30 62 H -3.033616 -4.206217 0.974833 0
M  V30 63 H -4.171921 -2.853629 1.206904 0
M  V30 64 H -1.327207 -2.879093 0.164965 0
M  V30 65 H -2.271330 -1.666324 1.048144 0
M  V30 66 H -2.717893 0.636929 -2.630982 0
M  V30 67 H -2.620904 3.551354 -4.405797 0
M  V30 68 H -2.339899 1.739369 -4.302441 0
M  V30 69 H -3.436506 2.518334 -3.109997 0
M  V30 70 H 3.853276 6.090855 0.194410 0
M  V30 END ATOM
M  V30 BEGIN BOND
M  V30 1 1 1 2
M  V30 2 1 2 3
M  V30 3 2 3 4
M  V30 4 1 3 5
M  V30 5 1 5 6
M  V30 6 2 6 7
M  V30 7 1 7 8
M  V30 8 1 8 9
M  V30 9 1 9 10
M  V30 10 1 10 11
M  V30 11 2 11 12
M  V30 12 1 12 13
M  V30 13 1 13 14
M  V30 14 1 14 15
M  V30 15 2 15 16
M  V30 16 1 16 17
M  V30 17 2 17 18
M  V30 18 1 18 19
M  V30 19 1 19 20
M  V30 20 1 20 21
M  V30 21 1 21 22
M  V30 22 1 22 23
M  V30 23 1 23 24
M  V30 24 1 24 25
M  V30 25 1 25 26
M  V30 26 1 26 27
M  V30 27 1 22 28
M  V30 28 1 28 29
M  V30 29 1 18 30
M  V30 30 2 30 31
M  V30 31 1 31 32
M  V30 32 1 32 33
M  V30 33 2 13 34
M  V30 34 1 34 35
M  V30 35 2 35 36
M  V30 36 1 36 37
M  V30 37 2 37 38
M  V30 38 1 37 39
M  V30 39 2 9 5
M  V30 40 1 36 11
M  V30 41 1 31 15
M  V30 42 1 29 19
M  V30 43 1 27 23
M  V30 44 1 1 40
M  V30 45 1 1 41
M  V30 46 1 1 42
M  V30 47 1 6 43
M  V30 48 1 7 44
M  V30 49 1 10 45
M  V30 50 1 14 46
M  V30 51 1 16 47
M  V30 52 1 17 48
M  V30 53 1 20 49
M  V30 54 1 20 50
M  V30 55 1 21 51
M  V30 56 1 21 52
M  V30 57 1 22 53
M  V30 58 1 24 54
M  V30 59 1 24 55
M  V30 60 1 25 56
M  V30 61 1 25 57
M  V30 62 1 26 58
M  V30 63 1 26 59
M  V30 64 1 27 60
M  V30 65 1 27 61
M  V30 66 1 28 62
M  V30 67 1 28 63
M  V30 68 1 29 64
M  V30 69 1 29 65
M  V30 70 1 30 66
M  V30 71 1 33 67
M  V30 72 1 33 68
M  V30 73 1 33 69
M  V30 74 1 35 70
M  V30 END BOND
M  V30 END CTAB
M  END
>  <Dataset>  (459) 
ChEMBL_Kinases

>  <Ligand_Instance>  (459) 
nan

>  <PDB_ID>  (459) 
nan

>  <Standardized_SMILES>  (459) 
COC(=O)c1ccsc1Nc1nc(Nc2ccc(N3CCC(N4CCCC4)CC3)cc2OC)ncc1[N+](=O)[O-]

>  <Name>  (459) 
nan

>  <Pocket>  (459) 
nan

>  <ATP_Site>  (459) 
nan

>  <Peripheral>  (459) 
nan

>  <Num_H_Atoms_ProtBoundConf>  (459) 
nan

>  <Num_Resolved_Atoms>  (459) 
nan

>  <Num_Not_Resolved_Atoms>  (459) 
nan

$$$$
CHEMBL4790863
     RDKit          3D

  0  0  0  0  0  0  0  0  0  0999 V3000
M  V30 BEGIN CTAB
M  V30 COUNTS 84 87 0 0 0
M  V30 BEGIN ATOM
M  V30 1 C -0.734592 1.447417 3.050405 0
M  V30 2 C -0.652315 0.019118 3.503345 0
M  V30 3 C -1.953970 -0.719214 3.354585 0
M  V30 4 C -1.813517 -2.138615 3.831300 0
M  V30 5 O -1.069336 -2.835722 2.881819 0
M  V30 6 N -2.606574 -0.565279 2.088583 0
M  V30 7 C -3.638730 -0.098749 1.226014 0
M  V30 8 O -4.151332 0.433581 2.293965 0
M  V30 9 C -3.542277 -0.440090 -0.193025 0 CFG=2
M  V30 10 C -4.763444 -0.572777 -0.997704 0
M  V30 11 C -5.557821 0.613406 -1.236923 0
M  V30 12 C -6.187701 1.531839 -0.310541 0
M  V30 13 C -7.176740 1.041165 0.685634 0
M  V30 14 C -7.521896 2.192272 1.609670 0
M  V30 15 C -7.542989 3.535316 0.963873 0
M  V30 16 C -6.234650 3.920190 0.300600 0
M  V30 17 C -5.367586 2.652165 0.272762 0
M  V30 18 N -2.497147 -1.427730 -0.445693 0
M  V30 19 C -1.595196 -1.082024 -1.521558 0
M  V30 20 O -1.700053 -0.034817 -2.199949 0
M  V30 21 C -0.519140 -2.029549 -1.808378 0
M  V30 22 C -0.018708 -2.851092 -0.830463 0
M  V30 23 C 0.981843 -3.746064 -1.131200 0
M  V30 24 C 1.537913 -3.874430 -2.419868 0
M  V30 25 C 2.669645 -4.870864 -2.572476 0
M  V30 26 N 3.935084 -4.153432 -2.660437 0
M  V30 27 C 4.586894 -3.421551 -1.665807 0
M  V30 28 O 3.875523 -3.472210 -0.604445 0
M  V30 29 C 5.833330 -2.726450 -1.836570 0
M  V30 30 C 6.675675 -2.747679 -2.921213 0
M  V30 31 N 7.728839 -1.940255 -2.662080 0
M  V30 32 N 7.630818 -1.396371 -1.486504 0
M  V30 33 C 8.366448 -0.485969 -0.688275 0
M  V30 34 C 9.617250 -0.621528 -0.160394 0
M  V30 35 C 10.255139 0.310388 0.603431 0
M  V30 36 C 9.539747 1.485730 0.845619 0
M  V30 37 C 8.246907 1.720359 0.347937 0
M  V30 38 C 7.674869 0.702775 -0.429033 0
M  V30 39 C 6.464990 -1.864379 -0.945276 0
M  V30 40 N 5.850367 -1.606484 0.332015 0
M  V30 41 C 1.046462 -3.050478 -3.437470 0
M  V30 42 C 0.044611 -2.177722 -3.058407 0
M  V30 43 H -0.016507 1.631444 2.225369 0
M  V30 44 H -1.762542 1.610287 2.687495 0
M  V30 45 H -0.552131 2.193325 3.844295 0
M  V30 46 H -0.432619 0.057443 4.599954 0
M  V30 47 H 0.196691 -0.552013 3.069545 0
M  V30 48 H -2.645213 -0.220879 4.104748 0
M  V30 49 H -1.188430 -2.183836 4.762095 0
M  V30 50 H -2.766494 -2.622650 4.108874 0
M  V30 51 H -0.527234 -3.561660 3.268684 0
M  V30 52 H -1.797883 -1.135850 1.620260 0
M  V30 53 H -3.121787 0.581605 -0.646915 0
M  V30 54 H -4.375890 -0.903244 -2.041024 0
M  V30 55 H -5.371139 -1.492894 -0.729574 0
M  V30 56 H -6.418678 0.331477 -1.996806 0
M  V30 57 H -4.982036 1.315889 -1.986210 0
M  V30 58 H -6.936972 2.201975 -1.000759 0
M  V30 59 H -6.731015 0.251916 1.299849 0
M  V30 60 H -8.149490 0.764856 0.201892 0
M  V30 61 H -6.823518 2.251665 2.494968 0
M  V30 62 H -8.529074 2.023702 2.083660 0
M  V30 63 H -8.406171 3.696792 0.294266 0
M  V30 64 H -7.694399 4.274187 1.803288 0
M  V30 65 H -5.704241 4.676033 0.899194 0
M  V30 66 H -6.436949 4.294999 -0.703241 0
M  V30 67 H -4.454897 2.854336 -0.332914 0
M  V30 68 H -5.154307 2.448255 1.328486 0
M  V30 69 H -2.451390 -2.298853 0.125432 0
M  V30 70 H -0.426176 -2.774433 0.165501 0
M  V30 71 H 1.308475 -4.350424 -0.274375 0
M  V30 72 H 2.666492 -5.491407 -1.662949 0
M  V30 73 H 2.527903 -5.474021 -3.473324 0
M  V30 74 H 4.443960 -4.183092 -3.604901 0
M  V30 75 H 6.501927 -3.334901 -3.838763 0
M  V30 76 H 10.119192 -1.554075 -0.379006 0
M  V30 77 H 11.248055 0.196252 1.019646 0
M  V30 78 H 10.070630 2.220309 1.467227 0
M  V30 79 H 7.810479 2.667998 0.609366 0
M  V30 80 H 6.683852 1.019716 -0.742092 0
M  V30 81 H 6.126320 -1.982923 1.263109 0
M  V30 82 H 5.006438 -0.963976 0.397222 0
M  V30 83 H 1.464333 -3.142715 -4.421017 0
M  V30 84 H -0.367933 -1.507975 -3.828089 0
M  V30 END ATOM
M  V30 BEGIN BOND
M  V30 1 1 1 2
M  V30 2 1 2 3
M  V30 3 1 3 4
M  V30 4 1 4 5
M  V30 5 1 3 6
M  V30 6 1 6 7
M  V30 7 2 7 8
M  V30 8 1 7 9
M  V30 9 1 9 10
M  V30 10 1 10 11
M  V30 11 1 11 12
M  V30 12 1 12 13
M  V30 13 1 13 14
M  V30 14 1 14 15
M  V30 15 1 15 16
M  V30 16 1 16 17
M  V30 17 1 9 18
M  V30 18 1 18 19
M  V30 19 2 19 20
M  V30 20 1 19 21
M  V30 21 2 21 22
M  V30 22 1 22 23
M  V30 23 2 23 24
M  V30 24 1 24 25
M  V30 25 1 25 26
M  V30 26 1 26 27
M  V30 27 2 27 28
M  V30 28 1 27 29
M  V30 29 1 29 30
M  V30 30 2 30 31
M  V30 31 1 31 32
M  V30 32 1 32 33
M  V30 33 2 33 34
M  V30 34 1 34 35
M  V30 35 2 35 36
M  V30 36 1 36 37
M  V30 37 2 37 38
M  V30 38 1 32 39
M  V30 39 1 39 40
M  V30 40 1 24 41
M  V30 41 2 41 42
M  V30 42 1 17 12
M  V30 43 1 42 21
M  V30 44 2 39 29
M  V30 45 1 38 33
M  V30 46 1 1 43
M  V30 47 1 1 44
M  V30 48 1 1 45
M  V30 49 1 2 46
M  V30 50 1 2 47
M  V30 51 1 3 48
M  V30 52 1 4 49
M  V30 53 1 4 50
M  V30 54 1 5 51
M  V30 55 1 6 52
M  V30 56 1 9 53 CFG=3
M  V30 57 1 10 54
M  V30 58 1 10 55
M  V30 59 1 11 56
M  V30 60 1 11 57
M  V30 61 1 12 58
M  V30 62 1 13 59
M  V30 63 1 13 60
M  V30 64 1 14 61
M  V30 65 1 14 62
M  V30 66 1 15 63
M  V30 67 1 15 64
M  V30 68 1 16 65
M  V30 69 1 16 66
M  V30 70 1 17 67
M  V30 71 1 17 68
M  V30 72 1 18 69
M  V30 73 1 22 70
M  V30 74 1 23 71
M  V30 75 1 25 72
M  V30 76 1 25 73
M  V30 77 1 26 74
M  V30 78 1 30 75
M  V30 79 1 34 76
M  V30 80 1 35 77
M  V30 81 1 36 78
M  V30 82 1 37 79
M  V30 83 1 38 80
M  V30 84 1 40 81
M  V30 85 1 40 82
M  V30 86 1 41 83
M  V30 87 1 42 84
M  V30 END BOND
M  V30 END CTAB
M  END
>  <Dataset>  (460) 
ChEMBL_Kinases

>  <Ligand_Instance>  (460) 
nan

>  <PDB_ID>  (460) 
nan

>  <Standardized_SMILES>  (460) 
CCC(CO)NC(=O)[C@H](CCC1CCCCC1)NC(=O)c1ccc(CNC(=O)c2cnn(-c3ccccc3)c2N)cc1

>  <Name>  (460) 
nan

>  <Pocket>  (460) 
nan

>  <ATP_Site>  (460) 
nan

>  <Peripheral>  (460) 
nan

>  <Num_H_Atoms_ProtBoundConf>  (460) 
nan

>  <Num_Resolved_Atoms>  (460) 
nan

>  <Num_Not_Resolved_Atoms>  (460) 
nan

$$$$
CHEMBL4790872
     RDKit          3D

  0  0  0  0  0  0  0  0  0  0999 V3000
M  V30 BEGIN CTAB
M  V30 COUNTS 43 46 0 0 0
M  V30 BEGIN ATOM
M  V30 1 C 3.272692 -8.165036 0.013169 0
M  V30 2 N 2.804796 -6.795861 0.185579 0
M  V30 3 C 3.298402 -5.874439 -0.753898 0
M  V30 4 O 4.062729 -6.533005 -1.542403 0
M  V30 5 C 3.138288 -4.465552 -0.994547 0
M  V30 6 N 3.816613 -3.953959 -2.038569 0
M  V30 7 N 3.558133 -2.638896 -2.121241 0
M  V30 8 C 2.717030 -2.224284 -1.160488 0
M  V30 9 C 2.133337 -1.036086 -0.780483 0
M  V30 10 C 1.278020 -1.009175 0.321975 0
M  V30 11 C 0.647860 0.242317 0.742130 0
M  V30 12 C -0.710079 0.135628 1.040887 0
M  V30 13 C -1.402493 1.281051 1.452698 0
M  V30 14 C -0.760723 2.497456 1.563647 0
M  V30 15 C -1.565409 3.632336 1.999575 0
M  V30 16 C -1.094334 4.915483 2.165551 0
M  V30 17 N -1.876221 5.929330 2.569925 0
M  V30 18 C -3.179756 5.734250 2.836345 0
M  V30 19 C -3.680092 4.441286 2.675180 0
M  V30 20 C -5.113585 4.217319 2.966100 0
M  V30 21 N -2.863540 3.427880 2.262691 0
M  V30 22 C 0.582371 2.589227 1.265185 0
M  V30 23 C 1.279150 1.468783 0.857754 0
M  V30 24 Cl 2.984543 1.518809 0.464410 0
M  V30 25 C 1.053955 -2.212361 0.995934 0
M  V30 26 C 1.636039 -3.402948 0.618715 0
M  V30 27 C 2.470949 -3.389681 -0.469992 0
M  V30 28 H 4.387313 -8.206643 -0.149782 0
M  V30 29 H 2.790225 -8.693147 -0.822961 0
M  V30 30 H 3.063368 -8.757533 0.949365 0
M  V30 31 H 2.174734 -6.384636 0.876567 0
M  V30 32 H 3.977212 -2.030607 -2.859191 0
M  V30 33 H 2.355823 -0.161160 -1.347914 0
M  V30 34 H -1.247295 -0.805446 0.964693 0
M  V30 35 H -2.458154 1.142220 1.672851 0
M  V30 36 H -0.053826 5.106613 1.960547 0
M  V30 37 H -3.853623 6.513761 3.164475 0
M  V30 38 H -5.484453 4.796382 3.834200 0
M  V30 39 H -5.345917 3.135810 3.061879 0
M  V30 40 H -5.718695 4.554096 2.077458 0
M  V30 41 H 1.086913 3.534115 1.349998 0
M  V30 42 H 0.380756 -2.153995 1.851838 0
M  V30 43 H 1.431910 -4.299078 1.168939 0
M  V30 END ATOM
M  V30 BEGIN BOND
M  V30 1 1 1 2
M  V30 2 1 2 3
M  V30 3 2 3 4
M  V30 4 1 3 5
M  V30 5 2 5 6
M  V30 6 1 6 7
M  V30 7 1 7 8
M  V30 8 2 8 9
M  V30 9 1 9 10
M  V30 10 1 10 11
M  V30 11 2 11 12
M  V30 12 1 12 13
M  V30 13 2 13 14
M  V30 14 1 14 15
M  V30 15 2 15 16
M  V30 16 1 16 17
M  V30 17 2 17 18
M  V30 18 1 18 19
M  V30 19 1 19 20
M  V30 20 2 19 21
M  V30 21 1 14 22
M  V30 22 2 22 23
M  V30 23 1 23 24
M  V30 24 2 10 25
M  V30 25 1 25 26
M  V30 26 2 26 27
M  V30 27 1 27 5
M  V30 28 1 27 8
M  V30 29 1 23 11
M  V30 30 1 21 15
M  V30 31 1 1 28
M  V30 32 1 1 29
M  V30 33 1 1 30
M  V30 34 1 2 31
M  V30 35 1 7 32
M  V30 36 1 9 33
M  V30 37 1 12 34
M  V30 38 1 13 35
M  V30 39 1 16 36
M  V30 40 1 18 37
M  V30 41 1 20 38
M  V30 42 1 20 39
M  V30 43 1 20 40
M  V30 44 1 22 41
M  V30 45 1 25 42
M  V30 46 1 26 43
M  V30 END BOND
M  V30 END CTAB
M  END
>  <Dataset>  (461) 
ChEMBL_Kinases

>  <Ligand_Instance>  (461) 
nan

>  <PDB_ID>  (461) 
nan

>  <Standardized_SMILES>  (461) 
CNC(=O)c1n[nH]c2cc(-c3ccc(-c4cncc(C)n4)cc3Cl)ccc12

>  <Name>  (461) 
nan

>  <Pocket>  (461) 
nan

>  <ATP_Site>  (461) 
nan

>  <Peripheral>  (461) 
nan

>  <Num_H_Atoms_ProtBoundConf>  (461) 
nan

>  <Num_Resolved_Atoms>  (461) 
nan

>  <Num_Not_Resolved_Atoms>  (461) 
nan

$$$$
CHEMBL4790926
     RDKit          3D

  0  0  0  0  0  0  0  0  0  0999 V3000
M  V30 BEGIN CTAB
M  V30 COUNTS 59 64 0 0 0
M  V30 BEGIN ATOM
M  V30 1 C 2.325947 0.037227 5.194517 0
M  V30 2 N 3.195058 -0.681893 4.295133 0
M  V30 3 C 4.390743 0.089770 3.951758 0
M  V30 4 C 3.966764 1.108497 2.973520 0
M  V30 5 C 2.942895 1.236488 2.163580 0
M  V30 6 C 2.660393 2.316258 1.246977 0
M  V30 7 C 3.502503 3.390513 1.050752 0
M  V30 8 O 4.712009 3.540697 1.688616 0
M  V30 9 C 3.263830 4.445186 0.207949 0
M  V30 10 C 2.091803 4.468417 -0.522910 0
M  V30 11 O 1.784925 5.501877 -1.393559 0
M  V30 12 C 1.227303 3.383683 -0.333604 0
M  V30 13 C 0.061190 3.435593 -1.078558 0
M  V30 14 O -0.168382 4.409601 -1.862297 0
M  V30 15 C -0.852026 2.410829 -0.957645 0
M  V30 16 C -0.541294 1.381597 -0.088052 0
M  V30 17 C -1.524467 0.311728 0.018173 0
M  V30 18 C -1.377700 -0.810973 0.805970 0
M  V30 19 C -2.278802 -1.832566 0.938985 0
M  V30 20 C -3.456786 -1.768925 0.233959 0
M  V30 21 S -4.662910 -3.077826 0.377500 0
M  V30 22 C -4.357281 -4.337554 -0.852625 0
M  V30 23 N -4.768658 -4.542024 -2.109789 0
M  V30 24 C -4.223680 -5.678401 -2.600690 0
M  V30 25 C -4.318063 -6.328818 -3.814224 0
M  V30 26 C -3.622465 -7.520513 -4.044180 0
M  V30 27 C -2.843329 -8.016683 -3.016708 0
M  V30 28 C -2.740293 -7.374576 -1.795929 0
M  V30 29 C -3.431598 -6.189242 -1.565836 0
M  V30 30 N -3.522066 -5.353720 -0.493122 0
M  V30 31 C -3.674534 -0.676306 -0.575465 0
M  V30 32 C -2.712053 0.306290 -0.649169 0
M  V30 33 O 0.564756 1.363603 0.598134 0
M  V30 34 C 1.465791 2.304980 0.524991 0
M  V30 35 C 2.032088 0.090611 2.250477 0
M  V30 36 C 2.557359 -1.064451 3.078052 0
M  V30 37 H 1.346109 0.221161 4.746548 0
M  V30 38 H 2.139442 -0.535019 6.147807 0
M  V30 39 H 2.815207 1.021376 5.406575 0
M  V30 40 H 4.830915 0.519681 4.889454 0
M  V30 41 H 5.134137 -0.632611 3.559056 0
M  V30 42 H 4.723138 1.866009 3.003017 0
M  V30 43 H 5.578212 3.454080 1.138589 0
M  V30 44 H 3.910721 5.292543 0.042358 0
M  V30 45 H 2.514862 5.803073 -2.044188 0
M  V30 46 H -1.723382 2.539032 -1.573938 0
M  V30 47 H -0.485147 -0.954537 1.394407 0
M  V30 48 H -2.124945 -2.692268 1.565691 0
M  V30 49 H -4.955229 -5.882264 -4.591386 0
M  V30 50 H -3.698063 -8.031802 -5.001816 0
M  V30 51 H -2.287926 -8.920409 -3.126956 0
M  V30 52 H -2.117508 -7.794923 -1.010535 0
M  V30 53 H -2.986847 -5.578314 0.390933 0
M  V30 54 H -4.611324 -0.665134 -1.111763 0
M  V30 55 H -3.007726 1.098726 -1.312888 0
M  V30 56 H 1.894401 -0.332660 1.220699 0
M  V30 57 H 1.036942 0.349823 2.641291 0
M  V30 58 H 3.326480 -1.650864 2.494079 0
M  V30 59 H 1.747431 -1.788610 3.297826 0
M  V30 END ATOM
M  V30 BEGIN BOND
M  V30 1 1 1 2
M  V30 2 1 2 3
M  V30 3 1 3 4
M  V30 4 2 4 5
M  V30 5 1 5 6
M  V30 6 2 6 7
M  V30 7 1 7 8
M  V30 8 1 7 9
M  V30 9 2 9 10
M  V30 10 1 10 11
M  V30 11 1 10 12
M  V30 12 1 12 13
M  V30 13 2 13 14
M  V30 14 1 13 15
M  V30 15 2 15 16
M  V30 16 1 16 17
M  V30 17 2 17 18
M  V30 18 1 18 19
M  V30 19 2 19 20
M  V30 20 1 20 21
M  V30 21 1 21 22
M  V30 22 2 22 23
M  V30 23 1 23 24
M  V30 24 2 24 25
M  V30 25 1 25 26
M  V30 26 2 26 27
M  V30 27 1 27 28
M  V30 28 2 28 29
M  V30 29 1 29 30
M  V30 30 1 20 31
M  V30 31 2 31 32
M  V30 32 1 16 33
M  V30 33 1 33 34
M  V30 34 1 5 35
M  V30 35 1 35 36
M  V30 36 1 36 2
M  V30 37 1 34 6
M  V30 38 2 34 12
M  V30 39 1 32 17
M  V30 40 1 30 22
M  V30 41 1 29 24
M  V30 42 1 1 37
M  V30 43 1 1 38
M  V30 44 1 1 39
M  V30 45 1 3 40
M  V30 46 1 3 41
M  V30 47 1 4 42
M  V30 48 1 8 43
M  V30 49 1 9 44
M  V30 50 1 11 45
M  V30 51 1 15 46
M  V30 52 1 18 47
M  V30 53 1 19 48
M  V30 54 1 25 49
M  V30 55 1 26 50
M  V30 56 1 27 51
M  V30 57 1 28 52
M  V30 58 1 30 53
M  V30 59 1 31 54
M  V30 60 1 32 55
M  V30 61 1 35 56
M  V30 62 1 35 57
M  V30 63 1 36 58
M  V30 64 1 36 59
M  V30 END BOND
M  V30 END CTAB
M  END
>  <Dataset>  (462) 
ChEMBL_Kinases

>  <Ligand_Instance>  (462) 
nan

>  <PDB_ID>  (462) 
nan

>  <Standardized_SMILES>  (462) 
CN1CC=C(c2c(O)cc(O)c3c(=O)cc(-c4ccc(Sc5nc6ccccc6[nH]5)cc4)oc23)CC1

>  <Name>  (462) 
nan

>  <Pocket>  (462) 
nan

>  <ATP_Site>  (462) 
nan

>  <Peripheral>  (462) 
nan

>  <Num_H_Atoms_ProtBoundConf>  (462) 
nan

>  <Num_Resolved_Atoms>  (462) 
nan

>  <Num_Not_Resolved_Atoms>  (462) 
nan

$$$$
CHEMBL4790962
     RDKit          3D

  0  0  0  0  0  0  0  0  0  0999 V3000
M  V30 BEGIN CTAB
M  V30 COUNTS 50 53 0 0 0
M  V30 BEGIN ATOM
M  V30 1 C 0.933957 -2.206194 -3.917461 0
M  V30 2 N 1.502336 -2.452493 -2.597457 0
M  V30 3 C 1.348992 -1.621555 -1.532850 0
M  V30 4 C 2.004828 -2.104748 -0.373875 0
M  V30 5 C 1.793597 -1.156525 0.753197 0
M  V30 6 C 2.710623 -0.142954 0.619579 0
M  V30 7 N 2.645832 0.882451 1.515722 0
M  V30 8 C 1.729955 0.884248 2.474217 0
M  V30 9 N 1.479709 1.959618 3.402721 0
M  V30 10 C 2.123688 3.101100 2.785188 0
M  V30 11 C 1.197075 3.477464 1.784581 0
M  V30 12 N 1.336395 4.509309 0.907470 0
M  V30 13 C 2.471114 5.236697 1.014502 0
M  V30 14 C 2.739073 6.332137 0.138773 0
M  V30 15 N 2.939667 7.226617 -0.577548 0
M  V30 16 C 3.378267 4.865319 2.002982 0
M  V30 17 N 3.239909 3.844260 2.869662 0
M  V30 18 C 0.805484 -0.112046 2.635174 0
M  V30 19 C 0.825905 -1.171478 1.752946 0
M  V30 20 N 0.049674 -2.319098 1.604949 0
M  V30 21 C -0.724012 -3.459611 1.460132 0
M  V30 22 C -2.186695 -3.267408 1.105167 0 CFG=1
M  V30 23 C -2.869406 -2.348372 2.102414 0
M  V30 24 N -4.267672 -2.288911 1.781800 0
M  V30 25 C -4.529520 -2.030825 0.408229 0
M  V30 26 C -3.636770 -2.822522 -0.526718 0
M  V30 27 O -2.295715 -2.623530 -0.139643 0
M  V30 28 C 2.556086 -3.284044 -0.842871 0
M  V30 29 N 2.239643 -3.440113 -2.127477 0
M  V30 30 H -0.116170 -1.874003 -3.832087 0
M  V30 31 H 1.493610 -1.319139 -4.343134 0
M  V30 32 H 1.090002 -3.023357 -4.601024 0
M  V30 33 H 0.756685 -0.697597 -1.699541 0
M  V30 34 H 3.505558 0.001403 -0.096018 0
M  V30 35 H 0.958363 1.846082 4.284947 0
M  V30 36 H 0.218014 3.018937 1.521404 0
M  V30 37 H 4.305145 5.396385 2.155349 0
M  V30 38 H 0.056829 -0.172144 3.380434 0
M  V30 39 H -0.626583 -2.090249 2.398045 0
M  V30 40 H -0.370384 -4.153522 0.624900 0
M  V30 41 H -0.683898 -4.159312 2.316022 0
M  V30 42 H -2.737372 -4.198963 1.057142 0
M  V30 43 H -2.783901 -2.815860 3.114450 0
M  V30 44 H -2.469540 -1.312962 2.047828 0
M  V30 45 H -4.741821 -3.153979 2.118941 0
M  V30 46 H -5.567133 -2.365600 0.170339 0
M  V30 47 H -4.375383 -0.967128 0.155732 0
M  V30 48 H -3.731415 -2.436258 -1.535649 0
M  V30 49 H -3.908482 -3.882735 -0.510905 0
M  V30 50 H 3.087380 -3.748232 -0.041417 0
M  V30 END ATOM
M  V30 BEGIN BOND
M  V30 1 1 1 2
M  V30 2 1 2 3
M  V30 3 2 3 4
M  V30 4 1 4 5
M  V30 5 2 5 6
M  V30 6 1 6 7
M  V30 7 2 7 8
M  V30 8 1 8 9
M  V30 9 1 9 10
M  V30 10 2 10 11
M  V30 11 1 11 12
M  V30 12 2 12 13
M  V30 13 1 13 14
M  V30 14 3 14 15
M  V30 15 1 13 16
M  V30 16 2 16 17
M  V30 17 1 8 18
M  V30 18 2 18 19
M  V30 19 1 19 20
M  V30 20 1 20 21
M  V30 21 1 21 22
M  V30 22 1 22 23
M  V30 23 1 23 24
M  V30 24 1 24 25
M  V30 25 1 25 26
M  V30 26 1 26 27
M  V30 27 1 4 28
M  V30 28 2 28 29
M  V30 29 1 29 2
M  V30 30 1 19 5
M  V30 31 1 27 22
M  V30 32 1 17 10
M  V30 33 1 1 30
M  V30 34 1 1 31
M  V30 35 1 1 32
M  V30 36 1 3 33
M  V30 37 1 6 34
M  V30 38 1 9 35
M  V30 39 1 11 36
M  V30 40 1 16 37
M  V30 41 1 18 38
M  V30 42 1 20 39
M  V30 43 1 21 40
M  V30 44 1 21 41
M  V30 45 1 22 42 CFG=3
M  V30 46 1 23 43
M  V30 47 1 23 44
M  V30 48 1 24 45
M  V30 49 1 25 46
M  V30 50 1 25 47
M  V30 51 1 26 48
M  V30 52 1 26 49
M  V30 53 1 28 50
M  V30 END BOND
M  V30 END CTAB
M  END
>  <Dataset>  (463) 
ChEMBL_Kinases

>  <Ligand_Instance>  (463) 
nan

>  <PDB_ID>  (463) 
nan

>  <Standardized_SMILES>  (463) 
Cn1cc(-c2cnc(Nc3cnc(C#N)cn3)cc2NC[C@H]2CNCCO2)cn1

>  <Name>  (463) 
nan

>  <Pocket>  (463) 
nan

>  <ATP_Site>  (463) 
nan

>  <Peripheral>  (463) 
nan

>  <Num_H_Atoms_ProtBoundConf>  (463) 
nan

>  <Num_Resolved_Atoms>  (463) 
nan

>  <Num_Not_Resolved_Atoms>  (463) 
nan

$$$$
CHEMBL4791065
     RDKit          3D

  0  0  0  0  0  0  0  0  0  0999 V3000
M  V30 BEGIN CTAB
M  V30 COUNTS 98 103 0 0 0
M  V30 BEGIN ATOM
M  V30 1 C 2.973552 -5.510104 4.386194 0
M  V30 2 N 2.355970 -4.380193 3.739988 0
M  V30 3 C 1.986171 -3.216071 4.367542 0
M  V30 4 O 2.275669 -3.268899 5.683776 0
M  V30 5 C 1.552764 -1.976178 4.831145 0
M  V30 6 S 0.994572 -0.434167 5.309345 0
M  V30 7 C 0.362908 0.394858 4.040167 0
M  V30 8 C -0.217519 1.728261 3.939019 0
M  V30 9 C -0.859907 2.610108 4.725388 0
M  V30 10 C -1.057610 3.875249 4.244482 0
M  V30 11 N -0.725923 4.453461 3.083764 0
M  V30 12 C -0.053820 3.676200 2.143450 0
M  V30 13 N 0.522286 3.761804 0.852422 0
M  V30 14 C 1.820160 4.094900 1.277991 0
M  V30 15 O 2.290104 4.318304 2.428412 0
M  V30 16 C 3.209602 4.346643 0.734247 0
M  V30 17 C 3.913408 2.919465 0.729456 0
M  V30 18 C 3.739478 3.743069 -0.464378 0
M  V30 19 C 0.104095 2.385272 2.740827 0
M  V30 20 N 0.473812 -0.489710 2.945775 0
M  V30 21 C 1.061895 -1.668932 3.349551 0
M  V30 22 O 1.080324 -2.336186 2.191004 0
M  V30 23 C 0.611242 -2.292997 0.917506 0
M  V30 24 C 1.358862 -3.188015 -0.055522 0
M  V30 25 O 2.682165 -2.588413 -0.266433 0
M  V30 26 C 2.311599 -1.511269 -1.107462 0
M  V30 27 C 3.321302 -0.516627 -1.435446 0
M  V30 28 O 2.700490 0.513380 -2.231104 0
M  V30 29 C 2.285797 0.030503 -3.444991 0
M  V30 30 C 1.482544 1.073661 -4.194774 0
M  V30 31 O 1.053125 0.617167 -5.449652 0
M  V30 32 C 0.366279 1.634004 -6.012187 0
M  V30 33 C -1.039696 1.978151 -5.666335 0
M  V30 34 O -1.987664 1.130614 -5.879873 0
M  V30 35 C -2.591542 0.067426 -5.580816 0
M  V30 36 C -3.748255 -0.008516 -4.573946 0
M  V30 37 O -3.456260 0.273852 -3.290362 0
M  V30 38 C -3.163450 0.781832 -2.181907 0
M  V30 39 C -2.850798 2.055705 -1.616685 0
M  V30 40 C -2.586261 1.907539 -0.304013 0
M  V30 41 C -2.523274 0.996865 0.634220 0
M  V30 42 C -2.844504 -0.242367 0.048983 0
M  V30 43 C -3.162453 -0.382526 -1.327717 0
M  V30 44 C -3.443026 -1.800303 -1.405440 0
M  V30 45 O -3.781681 -2.351795 -2.501425 0
M  V30 46 N -3.330765 -2.583778 -0.225133 0
M  V30 47 C -3.656134 -3.981163 -0.120042 0
M  V30 48 C -4.470186 -4.341741 1.058704 0
M  V30 49 C -3.754850 -5.144437 2.098549 0
M  V30 50 C -2.299531 -4.940252 2.163069 0
M  V30 51 O -1.685098 -4.565664 3.212406 0
M  V30 52 N -1.583111 -5.190160 0.934934 0
M  V30 53 C -2.411034 -4.865356 -0.187249 0
M  V30 54 O -2.046286 -5.372888 -1.309920 0
M  V30 55 C -2.942744 -1.566804 0.720281 0
M  V30 56 O -2.737756 -1.846563 1.926382 0
M  V30 57 H 2.457597 -6.442072 4.011291 0
M  V30 58 H 2.889633 -5.423148 5.474868 0
M  V30 59 H 4.051271 -5.480196 4.064281 0
M  V30 60 H 2.048006 -4.121564 2.771379 0
M  V30 61 H -1.137383 2.150896 5.640921 0
M  V30 62 H -1.587690 4.572878 4.933208 0
M  V30 63 H 0.450943 3.707764 -0.138934 0
M  V30 64 H 3.845745 4.996367 1.411858 0
M  V30 65 H 3.299983 2.042012 0.909809 0
M  V30 66 H 4.892345 2.865212 1.282613 0
M  V30 67 H 3.078010 3.348414 -1.307931 0
M  V30 68 H 4.663978 4.188799 -0.916878 0
M  V30 69 H 0.654578 1.750006 1.993210 0
M  V30 70 H 0.415484 -1.285835 0.551955 0
M  V30 71 H -0.442990 -2.775600 0.926623 0
M  V30 72 H 0.873239 -3.195214 -1.011828 0
M  V30 73 H 1.483363 -4.143561 0.409756 0
M  V30 74 H 2.217993 -2.144829 -2.130451 0
M  V30 75 H 1.312054 -1.093313 -0.949831 0
M  V30 76 H 3.790749 0.005703 -0.602715 0
M  V30 77 H 4.180414 -0.920375 -2.039565 0
M  V30 78 H 3.222237 -0.238129 -4.047435 0
M  V30 79 H 1.634772 -0.836195 -3.318979 0
M  V30 80 H 0.600576 1.389679 -3.591730 0
M  V30 81 H 2.106013 1.995375 -4.314176 0
M  V30 82 H 0.538448 1.544674 -7.147222 0
M  V30 83 H 0.951960 2.624675 -5.804405 0
M  V30 84 H -1.236242 2.923460 -6.354677 0
M  V30 85 H -1.069249 2.501140 -4.643758 0
M  V30 86 H -1.859205 -0.682111 -4.985874 0
M  V30 87 H -2.888870 -0.603114 -6.441293 0
M  V30 88 H -4.215980 -1.011535 -4.696545 0
M  V30 89 H -4.587567 0.666252 -4.974142 0
M  V30 90 H -2.899596 2.856823 -2.312104 0
M  V30 91 H -2.357188 2.937189 0.074783 0
M  V30 92 H -2.288952 0.997843 1.675524 0
M  V30 93 H -4.176048 -4.280364 -1.056021 0
M  V30 94 H -5.394500 -4.937514 0.751445 0
M  V30 95 H -4.953848 -3.406421 1.463108 0
M  V30 96 H -3.939031 -6.241408 1.990207 0
M  V30 97 H -4.177500 -4.881973 3.114500 0
M  V30 98 H -0.586181 -5.550630 0.934617 0
M  V30 END ATOM
M  V30 BEGIN BOND
M  V30 1 1 1 2
M  V30 2 1 2 3
M  V30 3 2 3 4
M  V30 4 1 3 5
M  V30 5 1 5 6
M  V30 6 1 6 7
M  V30 7 1 7 8
M  V30 8 2 8 9
M  V30 9 1 9 10
M  V30 10 2 10 11
M  V30 11 1 11 12
M  V30 12 1 12 13
M  V30 13 1 13 14
M  V30 14 2 14 15
M  V30 15 1 14 16
M  V30 16 1 16 17
M  V30 17 1 17 18
M  V30 18 2 12 19
M  V30 19 2 7 20
M  V30 20 1 20 21
M  V30 21 1 21 22
M  V30 22 1 22 23
M  V30 23 1 23 24
M  V30 24 1 24 25
M  V30 25 1 25 26
M  V30 26 1 26 27
M  V30 27 1 27 28
M  V30 28 1 28 29
M  V30 29 1 29 30
M  V30 30 1 30 31
M  V30 31 1 31 32
M  V30 32 1 32 33
M  V30 33 1 33 34
M  V30 34 1 34 35
M  V30 35 1 35 36
M  V30 36 1 36 37
M  V30 37 1 37 38
M  V30 38 2 38 39
M  V30 39 1 39 40
M  V30 40 2 40 41
M  V30 41 1 41 42
M  V30 42 2 42 43
M  V30 43 1 43 44
M  V30 44 2 44 45
M  V30 45 1 44 46
M  V30 46 1 46 47
M  V30 47 1 47 48
M  V30 48 1 48 49
M  V30 49 1 49 50
M  V30 50 2 50 51
M  V30 51 1 50 52
M  V30 52 1 52 53
M  V30 53 2 53 54
M  V30 54 1 46 55
M  V30 55 2 55 56
M  V30 56 2 21 5
M  V30 57 1 43 38
M  V30 58 1 53 47
M  V30 59 1 19 8
M  V30 60 1 55 42
M  V30 61 1 18 16
M  V30 62 1 1 57
M  V30 63 1 1 58
M  V30 64 1 1 59
M  V30 65 1 2 60
M  V30 66 1 9 61
M  V30 67 1 10 62
M  V30 68 1 13 63
M  V30 69 1 16 64
M  V30 70 1 17 65
M  V30 71 1 17 66
M  V30 72 1 18 67
M  V30 73 1 18 68
M  V30 74 1 19 69
M  V30 75 1 23 70
M  V30 76 1 23 71
M  V30 77 1 24 72
M  V30 78 1 24 73
M  V30 79 1 26 74
M  V30 80 1 26 75
M  V30 81 1 27 76
M  V30 82 1 27 77
M  V30 83 1 29 78
M  V30 84 1 29 79
M  V30 85 1 30 80
M  V30 86 1 30 81
M  V30 87 1 32 82
M  V30 88 1 32 83
M  V30 89 1 33 84
M  V30 90 1 33 85
M  V30 91 1 35 86
M  V30 92 1 35 87
M  V30 93 1 36 88
M  V30 94 1 36 89
M  V30 95 1 39 90
M  V30 96 1 40 91
M  V30 97 1 41 92
M  V30 98 1 47 93
M  V30 99 1 48 94
M  V30 100 1 48 95
M  V30 101 1 49 96
M  V30 102 1 49 97
M  V30 103 1 52 98
M  V30 END BOND
M  V30 END CTAB
M  END
>  <Dataset>  (464) 
ChEMBL_Kinases

>  <Ligand_Instance>  (464) 
nan

>  <PDB_ID>  (464) 
nan

>  <Standardized_SMILES>  (464) 
CNC(=O)c1sc(-c2ccnc(NC(=O)C3CC3)c2)nc1OCCOCCOCCOCCOCCOc1cccc2c1C(=O)N(C1CCC(=O)NC1=O)C2=O

>  <Name>  (464) 
nan

>  <Pocket>  (464) 
nan

>  <ATP_Site>  (464) 
nan

>  <Peripheral>  (464) 
nan

>  <Num_H_Atoms_ProtBoundConf>  (464) 
nan

>  <Num_Resolved_Atoms>  (464) 
nan

>  <Num_Not_Resolved_Atoms>  (464) 
nan

$$$$
CHEMBL4791089
     RDKit          3D

  0  0  0  0  0  0  0  0  0  0999 V3000
M  V30 BEGIN CTAB
M  V30 COUNTS 67 71 0 0 0
M  V30 BEGIN ATOM
M  V30 1 C 5.750643 -3.445738 5.955198 0
M  V30 2 N 5.092674 -2.440757 5.125792 0
M  V30 3 C 3.879966 -2.866565 4.583456 0
M  V30 4 O 3.605582 -4.038050 4.926287 0
M  V30 5 C 3.063904 -1.951692 3.698337 0
M  V30 6 S 3.674554 -0.295584 3.347270 0
M  V30 7 C 2.164524 0.093761 2.273093 0
M  V30 8 C 2.081432 1.469926 1.629205 0
M  V30 9 C 3.057649 2.397692 1.820317 0
M  V30 10 C 2.841432 3.610404 1.167475 0
M  V30 11 N 1.716280 3.773387 0.416583 0
M  V30 12 C 0.788241 2.812332 0.268847 0
M  V30 13 N -0.389659 3.034955 -0.536358 0
M  V30 14 C -1.414809 3.556647 0.299351 0
M  V30 15 O -1.027837 3.685074 1.511046 0
M  V30 16 C -2.775273 3.914242 -0.161649 0
M  V30 17 C -3.374291 3.037523 -1.272865 0
M  V30 18 C -2.994594 4.445908 -1.528976 0
M  V30 19 C 0.935020 1.566756 0.893822 0
M  V30 20 N 1.662692 -0.881032 2.394383 0
M  V30 21 C 1.877676 -2.005509 3.010512 0
M  V30 22 O 1.332558 -3.232316 3.216755 0
M  V30 23 C 0.167356 -3.735032 2.732508 0
M  V30 24 C -0.041856 -3.890253 1.274958 0
M  V30 25 C -1.445859 -4.500176 1.108849 0
M  V30 26 C -2.396362 -3.488606 0.564647 0
M  V30 27 N -2.014302 -3.025263 -0.756498 0
M  V30 28 C -2.849217 -1.945271 -1.167845 0
M  V30 29 C -2.529791 -1.376677 -2.496430 0
M  V30 30 C -3.150061 -1.973015 -3.595228 0
M  V30 31 C -2.877644 -1.463976 -4.846591 0
M  V30 32 C -2.029570 -0.403002 -5.066223 0
M  V30 33 Cl -1.671060 0.258392 -6.646141 0
M  V30 34 C -1.415728 0.187440 -3.979846 0
M  V30 35 C -1.682890 -0.315391 -2.727677 0
M  V30 36 C -0.612411 -2.838891 -0.914983 0
M  V30 37 C 0.099002 -2.670946 0.426935 0
M  V30 38 H 6.606238 -2.989681 6.462199 0
M  V30 39 H 5.968837 -4.360045 5.380495 0
M  V30 40 H 5.014653 -3.709869 6.765577 0
M  V30 41 H 5.483095 -1.468320 4.938606 0
M  V30 42 H 3.916627 2.181012 2.433972 0
M  V30 43 H 3.588599 4.399028 1.279798 0
M  V30 44 H -0.603000 2.889466 -1.552996 0
M  V30 45 H -3.435393 4.296704 0.629171 0
M  V30 46 H -4.450560 2.770800 -1.213772 0
M  V30 47 H -2.741731 2.216208 -1.667152 0
M  V30 48 H -3.829212 5.160808 -1.673272 0
M  V30 49 H -2.137250 4.587208 -2.205545 0
M  V30 50 H 0.187445 0.799632 0.771077 0
M  V30 51 H -0.736979 -3.136898 3.100910 0
M  V30 52 H -0.026948 -4.753930 3.183178 0
M  V30 53 H 0.672408 -4.654320 0.898351 0
M  V30 54 H -1.408855 -5.362538 0.402999 0
M  V30 55 H -1.836850 -4.895344 2.054538 0
M  V30 56 H -2.359034 -2.602084 1.236043 0
M  V30 57 H -3.400326 -3.941535 0.559447 0
M  V30 58 H -2.741721 -1.119967 -0.433278 0
M  V30 59 H -3.923742 -2.241160 -1.113296 0
M  V30 60 H -3.821167 -2.803485 -3.484747 0
M  V30 61 H -3.321524 -1.874269 -5.746250 0
M  V30 62 H -0.742989 1.020091 -4.094604 0
M  V30 63 H -1.207795 0.148203 -1.892171 0
M  V30 64 H -0.322767 -2.045182 -1.612994 0
M  V30 65 H -0.208990 -3.786521 -1.359521 0
M  V30 66 H 1.140157 -2.448705 0.193827 0
M  V30 67 H -0.408437 -1.836218 0.915872 0
M  V30 END ATOM
M  V30 BEGIN BOND
M  V30 1 1 1 2
M  V30 2 1 2 3
M  V30 3 2 3 4
M  V30 4 1 3 5
M  V30 5 1 5 6
M  V30 6 1 6 7
M  V30 7 1 7 8
M  V30 8 2 8 9
M  V30 9 1 9 10
M  V30 10 2 10 11
M  V30 11 1 11 12
M  V30 12 1 12 13
M  V30 13 1 13 14
M  V30 14 2 14 15
M  V30 15 1 14 16
M  V30 16 1 16 17
M  V30 17 1 17 18
M  V30 18 2 12 19
M  V30 19 2 7 20
M  V30 20 1 20 21
M  V30 21 1 21 22
M  V30 22 1 22 23
M  V30 23 1 23 24
M  V30 24 1 24 25
M  V30 25 1 25 26
M  V30 26 1 26 27
M  V30 27 1 27 28
M  V30 28 1 28 29
M  V30 29 2 29 30
M  V30 30 1 30 31
M  V30 31 2 31 32
M  V30 32 1 32 33
M  V30 33 1 32 34
M  V30 34 2 34 35
M  V30 35 1 27 36
M  V30 36 1 36 37
M  V30 37 2 21 5
M  V30 38 1 37 24
M  V30 39 1 19 8
M  V30 40 1 35 29
M  V30 41 1 18 16
M  V30 42 1 1 38
M  V30 43 1 1 39
M  V30 44 1 1 40
M  V30 45 1 2 41
M  V30 46 1 9 42
M  V30 47 1 10 43
M  V30 48 1 13 44
M  V30 49 1 16 45
M  V30 50 1 17 46
M  V30 51 1 17 47
M  V30 52 1 18 48
M  V30 53 1 18 49
M  V30 54 1 19 50
M  V30 55 1 23 51
M  V30 56 1 23 52
M  V30 57 1 24 53
M  V30 58 1 25 54
M  V30 59 1 25 55
M  V30 60 1 26 56
M  V30 61 1 26 57
M  V30 62 1 28 58
M  V30 63 1 28 59
M  V30 64 1 30 60
M  V30 65 1 31 61
M  V30 66 1 34 62
M  V30 67 1 35 63
M  V30 68 1 36 64
M  V30 69 1 36 65
M  V30 70 1 37 66
M  V30 71 1 37 67
M  V30 END BOND
M  V30 END CTAB
M  END
>  <Dataset>  (465) 
ChEMBL_Kinases

>  <Ligand_Instance>  (465) 
nan

>  <PDB_ID>  (465) 
nan

>  <Standardized_SMILES>  (465) 
CNC(=O)c1sc(-c2ccnc(NC(=O)C3CC3)c2)nc1OCC1CCN(Cc2ccc(Cl)cc2)CC1

>  <Name>  (465) 
nan

>  <Pocket>  (465) 
nan

>  <ATP_Site>  (465) 
nan

>  <Peripheral>  (465) 
nan

>  <Num_H_Atoms_ProtBoundConf>  (465) 
nan

>  <Num_Resolved_Atoms>  (465) 
nan

>  <Num_Not_Resolved_Atoms>  (465) 
nan

$$$$
CHEMBL4791091
     RDKit          3D

  0  0  0  0  0  0  0  0  0  0999 V3000
M  V30 BEGIN CTAB
M  V30 COUNTS 63 66 0 0 0
M  V30 BEGIN ATOM
M  V30 1 C 6.427103 -0.424490 6.534699 0
M  V30 2 N 6.469440 0.084500 5.172484 0
M  V30 3 C 5.656645 1.233249 4.923207 0
M  V30 4 C 4.381004 0.907455 4.516705 0
M  V30 5 C 3.469460 1.900906 4.236314 0
M  V30 6 O 2.151816 1.897561 3.818473 0
M  V30 7 C 1.497917 0.708049 3.644289 0
M  V30 8 C 0.984523 0.221321 2.463633 0
M  V30 9 C 0.333572 -0.987075 2.356342 0
M  V30 10 C -0.201016 -1.479685 1.090988 0
M  V30 11 O -0.786494 -2.591952 1.046127 0
M  V30 12 N -0.091596 -0.753603 -0.113738 0
M  V30 13 C -0.580603 -1.154263 -1.389793 0
M  V30 14 C -1.852085 -0.830674 -1.813689 0
M  V30 15 C -2.362461 -1.191237 -3.024657 0
M  V30 16 N -3.668957 -0.871658 -3.483999 0
M  V30 17 C -4.639193 -0.131524 -2.706913 0
M  V30 18 C -5.971634 -0.884372 -2.819150 0
M  V30 19 N -6.416836 -1.000401 -4.174593 0
M  V30 20 C -6.876578 -2.348151 -4.430550 0
M  V30 21 C -5.403397 -0.635743 -5.131562 0
M  V30 22 C -4.072717 -1.302956 -4.806526 0
M  V30 23 C -1.504728 -1.919556 -3.821101 0
M  V30 24 C -0.225972 -2.265605 -3.438523 0
M  V30 25 C 0.673008 -3.052556 -4.322919 0
M  V30 26 F 0.760939 -4.325304 -3.749643 0
M  V30 27 F 1.914947 -2.458020 -4.336973 0
M  V30 28 F 0.142877 -3.227876 -5.574248 0
M  V30 29 C 0.261449 -1.882820 -2.200326 0
M  V30 30 C 0.192739 -1.745126 3.500282 0
M  V30 31 C 0.693607 -1.296479 4.714925 0
M  V30 32 C 1.348320 -0.070020 4.798451 0
M  V30 33 C 1.803462 0.255161 6.189286 0
M  V30 34 N 3.867292 3.198770 4.372133 0
M  V30 35 C 5.136248 3.508037 4.776129 0
M  V30 36 N 6.027907 2.537822 5.050976 0
M  V30 37 H 5.367522 -0.406263 6.892386 0
M  V30 38 H 6.686336 -1.521921 6.550970 0
M  V30 39 H 7.115459 0.161206 7.143418 0
M  V30 40 H 7.093135 -0.436883 4.492114 0
M  V30 41 H 3.957009 -0.069976 4.364668 0
M  V30 42 H 1.125336 0.850954 1.621229 0
M  V30 43 H 0.381677 0.175492 -0.148604 0
M  V30 44 H -2.441185 -0.263525 -1.125548 0
M  V30 45 H -4.380744 -0.030986 -1.652740 0
M  V30 46 H -4.830368 0.865742 -3.183507 0
M  V30 47 H -6.732007 -0.340975 -2.214453 0
M  V30 48 H -5.810065 -1.855891 -2.348624 0
M  V30 49 H -7.673087 -2.640975 -3.722809 0
M  V30 50 H -6.064790 -3.085748 -4.284565 0
M  V30 51 H -7.292416 -2.420617 -5.445537 0
M  V30 52 H -5.758191 -0.953160 -6.139707 0
M  V30 53 H -5.261025 0.454036 -5.132017 0
M  V30 54 H -4.201941 -2.416436 -4.813882 0
M  V30 55 H -3.290198 -1.007501 -5.525717 0
M  V30 56 H -1.785785 -2.273735 -4.817872 0
M  V30 57 H 1.238178 -2.124432 -1.859472 0
M  V30 58 H -0.323994 -2.696724 3.395339 0
M  V30 59 H 0.537579 -1.955944 5.557818 0
M  V30 60 H 2.053172 1.313159 6.273793 0
M  V30 61 H 0.969429 0.047084 6.913218 0
M  V30 62 H 2.620073 -0.431733 6.463204 0
M  V30 63 H 5.505418 4.511501 4.900646 0
M  V30 END ATOM
M  V30 BEGIN BOND
M  V30 1 1 1 2
M  V30 2 1 2 3
M  V30 3 2 3 4
M  V30 4 1 4 5
M  V30 5 1 5 6
M  V30 6 1 6 7
M  V30 7 2 7 8
M  V30 8 1 8 9
M  V30 9 1 9 10
M  V30 10 2 10 11
M  V30 11 1 10 12
M  V30 12 1 12 13
M  V30 13 2 13 14
M  V30 14 1 14 15
M  V30 15 1 15 16
M  V30 16 1 16 17
M  V30 17 1 17 18
M  V30 18 1 18 19
M  V30 19 1 19 20
M  V30 20 1 19 21
M  V30 21 1 21 22
M  V30 22 2 15 23
M  V30 23 1 23 24
M  V30 24 1 24 25
M  V30 25 1 25 26
M  V30 26 1 25 27
M  V30 27 1 25 28
M  V30 28 2 24 29
M  V30 29 2 9 30
M  V30 30 1 30 31
M  V30 31 2 31 32
M  V30 32 1 32 33
M  V30 33 2 5 34
M  V30 34 1 34 35
M  V30 35 2 35 36
M  V30 36 1 36 3
M  V30 37 1 32 7
M  V30 38 1 29 13
M  V30 39 1 22 16
M  V30 40 1 1 37
M  V30 41 1 1 38
M  V30 42 1 1 39
M  V30 43 1 2 40
M  V30 44 1 4 41
M  V30 45 1 8 42
M  V30 46 1 12 43
M  V30 47 1 14 44
M  V30 48 1 17 45
M  V30 49 1 17 46
M  V30 50 1 18 47
M  V30 51 1 18 48
M  V30 52 1 20 49
M  V30 53 1 20 50
M  V30 54 1 20 51
M  V30 55 1 21 52
M  V30 56 1 21 53
M  V30 57 1 22 54
M  V30 58 1 22 55
M  V30 59 1 23 56
M  V30 60 1 29 57
M  V30 61 1 30 58
M  V30 62 1 31 59
M  V30 63 1 33 60
M  V30 64 1 33 61
M  V30 65 1 33 62
M  V30 66 1 35 63
M  V30 END BOND
M  V30 END CTAB
M  END
>  <Dataset>  (466) 
ChEMBL_Kinases

>  <Ligand_Instance>  (466) 
nan

>  <PDB_ID>  (466) 
nan

>  <Standardized_SMILES>  (466) 
CNc1cc(Oc2cc(C(=O)Nc3cc(N4CCN(C)CC4)cc(C(F)(F)F)c3)ccc2C)ncn1

>  <Name>  (466) 
nan

>  <Pocket>  (466) 
nan

>  <ATP_Site>  (466) 
nan

>  <Peripheral>  (466) 
nan

>  <Num_H_Atoms_ProtBoundConf>  (466) 
nan

>  <Num_Resolved_Atoms>  (466) 
nan

>  <Num_Not_Resolved_Atoms>  (466) 
nan

$$$$
CHEMBL4128950
     RDKit          3D

  0  0  0  0  0  0  0  0  0  0999 V3000
M  V30 BEGIN CTAB
M  V30 COUNTS 53 57 0 0 0
M  V30 BEGIN ATOM
M  V30 1 N 0.107848 -5.370699 2.675778 0
M  V30 2 C -0.193717 -4.763439 1.428276 0
M  V30 3 O -0.817035 -5.845413 1.309428 0
M  V30 4 C 0.196450 -3.477592 0.862605 0
M  V30 5 C 0.993525 -2.697769 1.664130 0
M  V30 6 C 1.337860 -1.491444 1.089601 0
M  V30 7 C 0.909118 -1.128608 -0.170334 0
M  V30 8 C 1.274370 0.153063 -0.781737 0
M  V30 9 C 1.707832 0.355399 -2.056187 0
M  V30 10 N 1.952997 1.658424 -2.277577 0
M  V30 11 C 1.678168 2.333733 -1.132317 0
M  V30 12 N 1.762751 3.646240 -0.846309 0
M  V30 13 C 1.422973 4.067756 0.396560 0
M  V30 14 C 0.986058 3.202636 1.403818 0
M  V30 15 C 0.628344 3.691047 2.732590 0
M  V30 16 C 1.395420 4.594483 3.440654 0
M  V30 17 C 1.079456 5.067422 4.695401 0
M  V30 18 C -0.085487 4.618759 5.310223 0
M  V30 19 C -0.850691 3.710784 4.591837 0
M  V30 20 C -0.549309 3.226304 3.333569 0
M  V30 21 O -1.392472 2.311502 2.697682 0
M  V30 22 C 0.913616 1.854004 1.063539 0
M  V30 23 C 1.254137 1.403391 -0.193714 0
M  V30 24 C 0.109097 -1.975483 -0.906752 0
M  V30 25 C -0.283305 -3.216961 -0.392871 0
M  V30 26 C -1.122530 -4.164230 -1.103092 0
M  V30 27 C -2.594168 -4.069447 -0.906568 0
M  V30 28 C -3.104630 -5.005241 -2.009713 0
M  V30 29 C -2.024202 -5.056918 -3.060912 0
M  V30 30 C -1.021967 -3.987392 -2.625767 0
M  V30 31 H -0.046062 -4.678727 3.472432 0
M  V30 32 H 0.189582 -5.352585 3.717544 0
M  V30 33 H 1.307892 -3.015033 2.642794 0
M  V30 34 H 1.971470 -0.802154 1.653153 0
M  V30 35 H 1.832837 -0.447423 -2.786309 0
M  V30 36 H 2.297784 2.006628 -3.210172 0
M  V30 37 H 1.492585 5.132393 0.629470 0
M  V30 38 H 2.320026 4.972392 2.996007 0
M  V30 39 H 1.709371 5.784344 5.228362 0
M  V30 40 H -0.413298 4.932323 6.290448 0
M  V30 41 H -1.779764 3.325171 5.031932 0
M  V30 42 H -1.733608 1.534181 3.275270 0
M  V30 43 H 0.583847 1.149892 1.799814 0
M  V30 44 H -0.216815 -1.676560 -1.887582 0
M  V30 45 H -0.810014 -5.213118 -0.922832 0
M  V30 46 H -2.942963 -4.528104 0.043862 0
M  V30 47 H -3.034146 -3.095465 -1.142147 0
M  V30 48 H -3.344821 -5.997994 -1.607311 0
M  V30 49 H -4.051956 -4.618604 -2.457116 0
M  V30 50 H -2.447188 -4.833503 -4.051865 0
M  V30 51 H -1.550412 -6.044693 -2.989536 0
M  V30 52 H -0.021579 -4.209379 -3.003954 0
M  V30 53 H -1.397211 -2.982275 -2.886504 0
M  V30 END ATOM
M  V30 BEGIN BOND
M  V30 1 1 1 2
M  V30 2 2 2 3
M  V30 3 1 2 4
M  V30 4 2 4 5
M  V30 5 1 5 6
M  V30 6 2 6 7
M  V30 7 1 7 8
M  V30 8 2 8 9
M  V30 9 1 9 10
M  V30 10 1 10 11
M  V30 11 2 11 12
M  V30 12 1 12 13
M  V30 13 2 13 14
M  V30 14 1 14 15
M  V30 15 2 15 16
M  V30 16 1 16 17
M  V30 17 2 17 18
M  V30 18 1 18 19
M  V30 19 2 19 20
M  V30 20 1 20 21
M  V30 21 1 14 22
M  V30 22 2 22 23
M  V30 23 1 7 24
M  V30 24 2 24 25
M  V30 25 1 25 26
M  V30 26 1 26 27
M  V30 27 1 27 28
M  V30 28 1 28 29
M  V30 29 1 29 30
M  V30 30 1 25 4
M  V30 31 1 30 26
M  V30 32 1 23 8
M  V30 33 1 23 11
M  V30 34 1 20 15
M  V30 35 1 1 31
M  V30 36 1 1 32
M  V30 37 1 5 33
M  V30 38 1 6 34
M  V30 39 1 9 35
M  V30 40 1 10 36
M  V30 41 1 13 37
M  V30 42 1 16 38
M  V30 43 1 17 39
M  V30 44 1 18 40
M  V30 45 1 19 41
M  V30 46 1 21 42
M  V30 47 1 22 43
M  V30 48 1 24 44
M  V30 49 1 26 45
M  V30 50 1 27 46
M  V30 51 1 27 47
M  V30 52 1 28 48
M  V30 53 1 28 49
M  V30 54 1 29 50
M  V30 55 1 29 51
M  V30 56 1 30 52
M  V30 57 1 30 53
M  V30 END BOND
M  V30 END CTAB
M  END
>  <Dataset>  (467) 
ChEMBL_Kinases

>  <Ligand_Instance>  (467) 
nan

>  <PDB_ID>  (467) 
nan

>  <Standardized_SMILES>  (467) 
NC(=O)c1ccc(-c2c[nH]c3ncc(-c4ccccc4O)cc23)cc1C1CCCC1

>  <Name>  (467) 
nan

>  <Pocket>  (467) 
nan

>  <ATP_Site>  (467) 
nan

>  <Peripheral>  (467) 
nan

>  <Num_H_Atoms_ProtBoundConf>  (467) 
nan

>  <Num_Resolved_Atoms>  (467) 
nan

>  <Num_Not_Resolved_Atoms>  (467) 
nan

$$$$
CHEMBL4791163
     RDKit          3D

  0  0  0  0  0  0  0  0  0  0999 V3000
M  V30 BEGIN CTAB
M  V30 COUNTS 61 65 0 0 0
M  V30 BEGIN ATOM
M  V30 1 C 5.205867 -0.462805 5.251850 0
M  V30 2 C 4.067571 -0.732970 4.362902 0
M  V30 3 N 3.845513 -0.471157 3.063600 0
M  V30 4 C 2.664610 -0.891014 2.643668 0
M  V30 5 C 1.960546 -0.809422 1.368958 0
M  V30 6 C 1.740628 0.221969 0.589912 0
M  V30 7 C 2.192278 1.585765 0.877243 0
M  V30 8 O 2.833452 1.910284 1.892876 0
M  V30 9 N 1.759102 2.388843 -0.190998 0
M  V30 10 C 1.066569 1.565674 -1.108095 0
M  V30 11 C 0.453550 1.866763 -2.300441 0
M  V30 12 C -0.174383 0.903712 -3.046459 0
M  V30 13 C -0.233812 -0.416788 -2.657318 0
M  V30 14 C -0.908578 -1.509813 -3.395244 0
M  V30 15 O -0.660852 -2.688473 -3.091998 0
M  V30 16 N -1.793711 -1.024088 -4.397951 0
M  V30 17 C -2.590735 -1.871324 -5.286998 0 CFG=2
M  V30 18 C -2.581193 -1.355395 -6.689834 0
M  V30 19 C -3.992289 -1.879115 -4.722470 0
M  V30 20 C -4.696663 -3.084586 -4.605956 0
M  V30 21 C -5.979970 -3.143000 -4.096463 0
M  V30 22 C -6.563658 -1.955239 -3.695977 0
M  V30 23 C -5.913762 -0.743112 -3.789185 0
M  V30 24 C -4.614186 -0.703082 -4.307702 0
M  V30 25 C 0.389497 -0.732059 -1.442310 0
M  V30 26 C 1.030258 0.256190 -0.681957 0
M  V30 27 C 2.029426 -1.480247 3.718413 0
M  V30 28 C 0.680081 -2.116964 3.795343 0
M  V30 29 C 2.919266 -1.368844 4.770819 0
M  V30 30 N 2.643660 -1.842897 6.083940 0
M  V30 31 C 2.056440 -0.770255 6.786568 0
M  V30 32 O 1.698945 0.448398 6.646033 0
M  V30 33 C 1.491055 -0.323734 8.060974 0
M  V30 34 C 0.800606 -1.111284 9.031369 0
M  V30 35 O 2.148980 -0.633965 9.283628 0
M  V30 36 H 6.141190 -0.177249 4.699605 0
M  V30 37 H 4.972498 0.382593 5.932475 0
M  V30 38 H 5.478109 -1.338337 5.875796 0
M  V30 39 H 4.571507 0.005056 2.486756 0
M  V30 40 H 1.539325 -1.757856 0.984376 0
M  V30 41 H 1.954495 3.404979 -0.225239 0
M  V30 42 H 0.471410 2.888947 -2.646106 0
M  V30 43 H -0.627304 1.208364 -3.961050 0
M  V30 44 H -2.012576 -0.040322 -4.645675 0
M  V30 45 H -2.241972 -2.899897 -5.194154 0
M  V30 46 H -3.014551 -2.059042 -7.419747 0
M  V30 47 H -3.146336 -0.401939 -6.797180 0
M  V30 48 H -1.553984 -1.114273 -7.028057 0
M  V30 49 H -4.216267 -4.013697 -4.927895 0
M  V30 50 H -6.519023 -4.077552 -4.008270 0
M  V30 51 H -7.567395 -1.903371 -3.280135 0
M  V30 52 H -6.330712 0.207485 -3.491172 0
M  V30 53 H -4.024353 0.190835 -4.421911 0
M  V30 54 H 0.411989 -1.739071 -1.028717 0
M  V30 55 H 0.517868 -2.621105 4.751295 0
M  V30 56 H 0.613834 -2.861692 2.952315 0
M  V30 57 H -0.049131 -1.320908 3.561810 0
M  V30 58 H 2.645731 -2.579613 6.810810 0
M  V30 59 H 1.215907 0.770491 8.026516 0
M  V30 60 H -0.003643 -0.637440 9.638802 0
M  V30 61 H 0.771461 -2.201969 9.069442 0
M  V30 END ATOM
M  V30 BEGIN BOND
M  V30 1 1 1 2
M  V30 2 1 2 3
M  V30 3 1 3 4
M  V30 4 1 4 5
M  V30 5 2 5 6
M  V30 6 1 6 7
M  V30 7 2 7 8
M  V30 8 1 7 9
M  V30 9 1 9 10
M  V30 10 2 10 11
M  V30 11 1 11 12
M  V30 12 2 12 13
M  V30 13 1 13 14
M  V30 14 2 14 15
M  V30 15 1 14 16
M  V30 16 1 16 17
M  V30 17 1 17 18
M  V30 18 1 17 19
M  V30 19 2 19 20
M  V30 20 1 20 21
M  V30 21 2 21 22
M  V30 22 1 22 23
M  V30 23 2 23 24
M  V30 24 1 13 25
M  V30 25 2 25 26
M  V30 26 2 4 27
M  V30 27 1 27 28
M  V30 28 1 27 29
M  V30 29 1 29 30
M  V30 30 1 30 31
M  V30 31 2 31 32
M  V30 32 1 31 33
M  V30 33 1 33 34
M  V30 34 1 34 35
M  V30 35 2 29 2
M  V30 36 1 35 33
M  V30 37 1 26 6
M  V30 38 1 26 10
M  V30 39 1 24 19
M  V30 40 1 1 36
M  V30 41 1 1 37
M  V30 42 1 1 38
M  V30 43 1 3 39
M  V30 44 1 5 40
M  V30 45 1 9 41
M  V30 46 1 11 42
M  V30 47 1 12 43
M  V30 48 1 16 44
M  V30 49 1 17 45 CFG=3
M  V30 50 1 18 46
M  V30 51 1 18 47
M  V30 52 1 18 48
M  V30 53 1 20 49
M  V30 54 1 21 50
M  V30 55 1 22 51
M  V30 56 1 23 52
M  V30 57 1 24 53
M  V30 58 1 25 54
M  V30 59 1 28 55
M  V30 60 1 28 56
M  V30 61 1 28 57
M  V30 62 1 30 58
M  V30 63 1 33 59
M  V30 64 1 34 60
M  V30 65 1 34 61
M  V30 END BOND
M  V30 END CTAB
M  END
>  <Dataset>  (468) 
ChEMBL_Kinases

>  <Ligand_Instance>  (468) 
nan

>  <PDB_ID>  (468) 
nan

>  <Standardized_SMILES>  (468) 
Cc1[nH]c(/C=C2\C(=O)Nc3ccc(C(=O)N[C@H](C)c4ccccc4)cc32)c(C)c1NC(=O)C1CO1

>  <Name>  (468) 
nan

>  <Pocket>  (468) 
nan

>  <ATP_Site>  (468) 
nan

>  <Peripheral>  (468) 
nan

>  <Num_H_Atoms_ProtBoundConf>  (468) 
nan

>  <Num_Resolved_Atoms>  (468) 
nan

>  <Num_Not_Resolved_Atoms>  (468) 
nan

$$$$
CHEMBL4791205
     RDKit          3D

  0  0  0  0  0  0  0  0  0  0999 V3000
M  V30 BEGIN CTAB
M  V30 COUNTS 50 53 0 0 0
M  V30 BEGIN ATOM
M  V30 1 C 5.094679 0.039255 4.981885 0
M  V30 2 C 3.814662 0.216943 5.764612 0
M  V30 3 C 2.627471 0.523875 4.843652 0
M  V30 4 S 2.380071 -0.806482 3.695214 0
M  V30 5 O 2.044079 -2.016444 4.549395 0
M  V30 6 O 3.632308 -1.091594 2.947201 0
M  V30 7 N 1.065325 -0.537986 2.626050 0
M  V30 8 C 1.041980 0.553259 1.720420 0
M  V30 9 C 2.187306 1.307457 1.533922 0
M  V30 10 C 2.175884 2.366445 0.654020 0
M  V30 11 C 1.019441 2.697382 -0.062181 0
M  V30 12 F 1.116833 3.759479 -0.902442 0
M  V30 13 C -0.133593 1.963417 0.102921 0
M  V30 14 C -1.301932 2.378951 -0.639260 0
M  V30 15 O -1.252913 3.623614 -0.911387 0
M  V30 16 C -2.496751 1.742498 -1.142687 0
M  V30 17 N -3.622122 2.465181 -1.347670 0
M  V30 18 N -4.562261 1.652008 -1.843845 0
M  V30 19 C -4.127139 0.388018 -1.991589 0
M  V30 20 N -4.667556 -0.738607 -2.444052 0
M  V30 21 C -3.964901 -1.889813 -2.496909 0
M  V30 22 C -2.661018 -1.821280 -2.054884 0
M  V30 23 C -1.877057 -3.061071 -2.104810 0
M  V30 24 C -2.579487 -4.243145 -1.916290 0
M  V30 25 C -1.970216 -5.482377 -1.937772 0
M  V30 26 C -0.595821 -5.563550 -2.156514 0
M  V30 27 Cl 0.185925 -7.132576 -2.185715 0
M  V30 28 C 0.078023 -4.389604 -2.339878 0
M  V30 29 C -0.516719 -3.140966 -2.321355 0
M  V30 30 C -2.063149 -0.675791 -1.578435 0
M  V30 31 C -2.824532 0.469756 -1.544590 0
M  V30 32 C -0.057882 0.926419 0.991581 0
M  V30 33 F -1.145182 0.179144 1.259530 0
M  V30 34 H 5.933613 0.615747 5.460881 0
M  V30 35 H 5.371993 -1.033345 4.884602 0
M  V30 36 H 4.986730 0.506176 3.978838 0
M  V30 37 H 3.933866 1.050152 6.476364 0
M  V30 38 H 3.580488 -0.734351 6.309055 0
M  V30 39 H 2.865483 1.484390 4.378458 0
M  V30 40 H 1.731609 0.678961 5.483397 0
M  V30 41 H 0.223586 -1.184055 2.608013 0
M  V30 42 H 3.118154 1.125326 2.035919 0
M  V30 43 H 3.083105 2.967365 0.504703 0
M  V30 44 H -5.511045 2.016856 -2.073226 0
M  V30 45 H -4.437498 -2.786261 -2.871022 0
M  V30 46 H -3.639317 -4.291428 -1.740383 0
M  V30 47 H -2.500903 -6.410335 -1.793424 0
M  V30 48 H 1.154099 -4.450714 -2.511800 0
M  V30 49 H 0.003934 -2.225457 -2.463467 0
M  V30 50 H -1.040131 -0.632278 -1.245779 0
M  V30 END ATOM
M  V30 BEGIN BOND
M  V30 1 1 1 2
M  V30 2 1 2 3
M  V30 3 1 3 4
M  V30 4 2 4 5
M  V30 5 2 4 6
M  V30 6 1 4 7
M  V30 7 1 7 8
M  V30 8 2 8 9
M  V30 9 1 9 10
M  V30 10 2 10 11
M  V30 11 1 11 12
M  V30 12 1 11 13
M  V30 13 1 13 14
M  V30 14 2 14 15
M  V30 15 1 14 16
M  V30 16 2 16 17
M  V30 17 1 17 18
M  V30 18 1 18 19
M  V30 19 2 19 20
M  V30 20 1 20 21
M  V30 21 2 21 22
M  V30 22 1 22 23
M  V30 23 2 23 24
M  V30 24 1 24 25
M  V30 25 2 25 26
M  V30 26 1 26 27
M  V30 27 1 26 28
M  V30 28 2 28 29
M  V30 29 1 22 30
M  V30 30 2 30 31
M  V30 31 2 13 32
M  V30 32 1 32 33
M  V30 33 1 32 8
M  V30 34 1 31 16
M  V30 35 1 31 19
M  V30 36 1 29 23
M  V30 37 1 1 34
M  V30 38 1 1 35
M  V30 39 1 1 36
M  V30 40 1 2 37
M  V30 41 1 2 38
M  V30 42 1 3 39
M  V30 43 1 3 40
M  V30 44 1 7 41
M  V30 45 1 9 42
M  V30 46 1 10 43
M  V30 47 1 18 44
M  V30 48 1 21 45
M  V30 49 1 24 46
M  V30 50 1 25 47
M  V30 51 1 28 48
M  V30 52 1 29 49
M  V30 53 1 30 50
M  V30 END BOND
M  V30 END CTAB
M  END
>  <Dataset>  (469) 
ChEMBL_Kinases

>  <Ligand_Instance>  (469) 
nan

>  <PDB_ID>  (469) 
nan

>  <Standardized_SMILES>  (469) 
CCCS(=O)(=O)Nc1ccc(F)c(C(=O)c2n[nH]c3ncc(-c4ccc(Cl)cc4)cc23)c1F

>  <Name>  (469) 
nan

>  <Pocket>  (469) 
nan

>  <ATP_Site>  (469) 
nan

>  <Peripheral>  (469) 
nan

>  <Num_H_Atoms_ProtBoundConf>  (469) 
nan

>  <Num_Resolved_Atoms>  (469) 
nan

>  <Num_Not_Resolved_Atoms>  (469) 
nan

$$$$
CHEMBL4790705
     RDKit          3D

  0  0  0  0  0  0  0  0  0  0999 V3000
M  V30 BEGIN CTAB
M  V30 COUNTS 56 59 0 0 0
M  V30 BEGIN ATOM
M  V30 1 C 3.015810 -2.670393 3.169053 0
M  V30 2 C 2.742121 -3.475808 2.166896 0
M  V30 3 C 2.750438 -3.767024 0.741778 0
M  V30 4 O 2.257597 -4.882670 0.446293 0
M  V30 5 N 3.289655 -2.808390 -0.149680 0
M  V30 6 C 3.854341 -1.531016 0.241213 0
M  V30 7 C 4.182394 -0.683530 -0.960623 0
M  V30 8 C 2.991669 -0.552434 -1.920160 0
M  V30 9 C 2.026292 0.327094 -1.260581 0
M  V30 10 C 1.717870 1.572342 -1.760645 0
M  V30 11 C 0.809446 2.415707 -1.145359 0
M  V30 12 C 0.186814 1.995057 0.014748 0
M  V30 13 C -0.812858 2.692899 0.863618 0
M  V30 14 C -0.308391 2.906373 2.287442 0
M  V30 15 C -2.031769 1.834911 1.000311 0
M  V30 16 O -2.457137 1.396927 2.125970 0
M  V30 17 N -2.855012 1.408649 -0.094503 0
M  V30 18 C -3.911826 0.610396 0.448992 0
M  V30 19 C -3.995549 -0.766872 0.665143 0
M  V30 20 C -5.210250 -1.078582 1.216217 0
M  V30 21 C -5.588512 -2.466805 1.551224 0
M  V30 22 C -5.231468 -3.585786 0.643273 0
M  V30 23 C -4.518077 -3.414432 1.968999 0
M  V30 24 N -5.852649 0.097364 1.331439 0
M  V30 25 N -5.106286 1.092456 0.887384 0
M  V30 26 C 0.502353 0.734943 0.516201 0
M  V30 27 N 1.400568 -0.071141 -0.113128 0
M  V30 28 C 2.534549 -1.906284 -2.303927 0
M  V30 29 C 3.327388 -3.011603 -1.590428 0
M  V30 30 H 3.403075 -1.760944 3.551495 0
M  V30 31 H 3.472663 -1.678929 3.312267 0
M  V30 32 H 2.367332 -4.111576 2.954977 0
M  V30 33 H 4.846430 -1.785151 0.711120 0
M  V30 34 H 3.262131 -1.040459 1.009762 0
M  V30 35 H 4.357020 0.353383 -0.578635 0
M  V30 36 H 5.101301 -0.975634 -1.460946 0
M  V30 37 H 3.385100 -0.002434 -2.802055 0
M  V30 38 H 2.166912 1.963336 -2.661883 0
M  V30 39 H 0.500842 3.393824 -1.447616 0
M  V30 40 H -1.080777 3.688376 0.451902 0
M  V30 41 H -0.365934 1.926618 2.808785 0
M  V30 42 H 0.704913 3.350977 2.290193 0
M  V30 43 H -0.989655 3.641717 2.760277 0
M  V30 44 H -2.584675 1.716298 -1.046037 0
M  V30 45 H -3.169722 -1.405186 0.401440 0
M  V30 46 H -6.550170 -2.542465 2.071769 0
M  V30 47 H -4.700098 -3.402572 -0.301056 0
M  V30 48 H -5.919279 -4.462581 0.626240 0
M  V30 49 H -4.691447 -4.178555 2.770608 0
M  V30 50 H -3.440127 -3.188688 1.834288 0
M  V30 51 H -6.818465 0.168346 1.727035 0
M  V30 52 H 0.084002 0.287582 1.416061 0
M  V30 53 H 1.469600 -2.134153 -2.155667 0
M  V30 54 H 2.745071 -2.074531 -3.381796 0
M  V30 55 H 4.402838 -2.964872 -1.883545 0
M  V30 56 H 2.955107 -3.999937 -1.843300 0
M  V30 END ATOM
M  V30 BEGIN BOND
M  V30 1 2 1 2
M  V30 2 1 2 3
M  V30 3 2 3 4
M  V30 4 1 3 5
M  V30 5 1 5 6
M  V30 6 1 6 7
M  V30 7 1 7 8
M  V30 8 1 8 9
M  V30 9 2 9 10
M  V30 10 1 10 11
M  V30 11 2 11 12
M  V30 12 1 12 13
M  V30 13 1 13 14
M  V30 14 1 13 15
M  V30 15 2 15 16
M  V30 16 1 15 17
M  V30 17 1 17 18
M  V30 18 1 18 19
M  V30 19 2 19 20
M  V30 20 1 20 21
M  V30 21 1 21 22
M  V30 22 1 22 23
M  V30 23 1 20 24
M  V30 24 1 24 25
M  V30 25 1 12 26
M  V30 26 2 26 27
M  V30 27 1 8 28
M  V30 28 1 28 29
M  V30 29 1 29 5
M  V30 30 1 27 9
M  V30 31 2 25 18
M  V30 32 1 23 21
M  V30 33 1 1 30
M  V30 34 1 1 31
M  V30 35 1 2 32
M  V30 36 1 6 33
M  V30 37 1 6 34
M  V30 38 1 7 35
M  V30 39 1 7 36
M  V30 40 1 8 37
M  V30 41 1 10 38
M  V30 42 1 11 39
M  V30 43 1 13 40
M  V30 44 1 14 41
M  V30 45 1 14 42
M  V30 46 1 14 43
M  V30 47 1 17 44
M  V30 48 1 19 45
M  V30 49 1 21 46
M  V30 50 1 22 47
M  V30 51 1 22 48
M  V30 52 1 23 49
M  V30 53 1 23 50
M  V30 54 1 24 51
M  V30 55 1 26 52
M  V30 56 1 28 53
M  V30 57 1 28 54
M  V30 58 1 29 55
M  V30 59 1 29 56
M  V30 END BOND
M  V30 END CTAB
M  END
>  <Dataset>  (470) 
ChEMBL_Kinases

>  <Ligand_Instance>  (470) 
nan

>  <PDB_ID>  (470) 
nan

>  <Standardized_SMILES>  (470) 
C=CC(=O)N1CCC(c2ccc(C(C)C(=O)Nc3cc(C4CC4)[nH]n3)cn2)CC1

>  <Name>  (470) 
nan

>  <Pocket>  (470) 
nan

>  <ATP_Site>  (470) 
nan

>  <Peripheral>  (470) 
nan

>  <Num_H_Atoms_ProtBoundConf>  (470) 
nan

>  <Num_Resolved_Atoms>  (470) 
nan

>  <Num_Not_Resolved_Atoms>  (470) 
nan

$$$$
CHEMBL4792749
     RDKit          3D

  0  0  0  0  0  0  0  0  0  0999 V3000
M  V30 BEGIN CTAB
M  V30 COUNTS 60 64 0 0 0
M  V30 BEGIN ATOM
M  V30 1 O 3.805264 -3.930654 2.477621 0
M  V30 2 S 5.062551 -3.084223 2.364515 0
M  V30 3 O 6.199777 -4.035462 2.644446 0
M  V30 4 N 5.120765 -2.515869 0.740346 0
M  V30 5 C 4.129608 -1.669909 0.185376 0
M  V30 6 C 2.783531 -1.874380 0.396173 0
M  V30 7 C 1.896088 -0.995807 -0.183083 0
M  V30 8 C 2.283618 0.074434 -0.960436 0
M  V30 9 C 1.327844 0.998978 -1.561438 0
M  V30 10 N -0.017943 0.876467 -1.371823 0
M  V30 11 C -0.676338 1.846042 -2.027504 0
M  V30 12 C -2.124178 2.023367 -2.043106 0
M  V30 13 C -2.689822 3.092385 -2.751411 0
M  V30 14 C -4.064222 3.154381 -2.682912 0
M  V30 15 N -4.847426 2.294126 -2.012415 0
M  V30 16 C -4.323535 1.266589 -1.331016 0
M  V30 17 N -4.989455 0.271062 -0.567898 0
M  V30 18 C -5.579997 -0.965507 -0.905789 0
M  V30 19 C -5.666928 -1.349465 -2.221896 0
M  V30 20 C -6.254151 -2.575203 -2.504687 0
M  V30 21 C -6.717559 -3.336426 -1.432756 0
M  V30 22 O -7.322121 -4.579238 -1.613164 0
M  V30 23 C -8.723250 -4.685551 -1.791140 0
M  V30 24 F -9.318593 -4.155952 -0.647515 0
M  V30 25 F -9.173622 -3.955660 -2.877856 0
M  V30 26 F -9.059701 -6.013473 -1.869586 0
M  V30 27 C -6.623528 -2.935319 -0.097932 0
M  V30 28 C -6.035932 -1.714003 0.153095 0
M  V30 29 C -2.945127 1.151206 -1.361725 0
M  V30 30 N 0.297870 2.555515 -2.616322 0
M  V30 31 O 1.471112 2.043678 -2.331563 0
M  V30 32 C 3.654309 0.274177 -1.169259 0
M  V30 33 C 4.579168 -0.603726 -0.592272 0
M  V30 34 C 5.111193 -1.833387 3.551167 0
M  V30 35 C 3.912337 -1.278173 3.951611 0
M  V30 36 C 3.899353 -0.283071 4.902632 0
M  V30 37 C 5.082188 0.176586 5.472015 0
M  V30 38 C 6.274828 -0.383528 5.065963 0
M  V30 39 C 7.564573 0.070730 5.647046 0
M  V30 40 F 8.524131 -0.046864 4.642046 0
M  V30 41 F 7.473579 1.413942 5.963503 0
M  V30 42 F 7.909573 -0.682085 6.749072 0
M  V30 43 C 6.294917 -1.380016 4.114178 0
M  V30 44 H 5.905954 -2.786659 0.109912 0
M  V30 45 H 2.430489 -2.699143 0.997954 0
M  V30 46 H 0.825749 -1.149798 -0.020996 0
M  V30 47 H -2.083697 3.798888 -3.299336 0
M  V30 48 H -4.601126 3.944279 -3.196060 0
M  V30 49 H -4.948019 0.684196 0.388130 0
M  V30 50 H -5.297791 -0.738726 -3.051720 0
M  V30 51 H -6.368000 -2.962572 -3.506641 0
M  V30 52 H -6.986948 -3.537938 0.707477 0
M  V30 53 H -5.949946 -1.379541 1.181457 0
M  V30 54 H -2.427927 0.336844 -0.829886 0
M  V30 55 H 4.033268 1.099382 -1.772796 0
M  V30 56 H 5.628903 -0.424350 -0.770450 0
M  V30 57 H 2.977352 -1.603077 3.538030 0
M  V30 58 H 2.999147 0.179012 5.247231 0
M  V30 59 H 5.082838 0.962728 6.224760 0
M  V30 60 H 7.231681 -1.789205 3.823502 0
M  V30 END ATOM
M  V30 BEGIN BOND
M  V30 1 2 1 2
M  V30 2 2 2 3
M  V30 3 1 2 4
M  V30 4 1 4 5
M  V30 5 2 5 6
M  V30 6 1 6 7
M  V30 7 2 7 8
M  V30 8 1 8 9
M  V30 9 2 9 10
M  V30 10 1 10 11
M  V30 11 1 11 12
M  V30 12 2 12 13
M  V30 13 1 13 14
M  V30 14 2 14 15
M  V30 15 1 15 16
M  V30 16 1 16 17
M  V30 17 1 17 18
M  V30 18 2 18 19
M  V30 19 1 19 20
M  V30 20 2 20 21
M  V30 21 1 21 22
M  V30 22 1 22 23
M  V30 23 1 23 24
M  V30 24 1 23 25
M  V30 25 1 23 26
M  V30 26 1 21 27
M  V30 27 2 27 28
M  V30 28 2 16 29
M  V30 29 2 11 30
M  V30 30 1 30 31
M  V30 31 1 8 32
M  V30 32 2 32 33
M  V30 33 1 2 34
M  V30 34 2 34 35
M  V30 35 1 35 36
M  V30 36 2 36 37
M  V30 37 1 37 38
M  V30 38 1 38 39
M  V30 39 1 39 40
M  V30 40 1 39 41
M  V30 41 1 39 42
M  V30 42 2 38 43
M  V30 43 1 33 5
M  V30 44 1 43 34
M  V30 45 1 31 9
M  V30 46 1 29 12
M  V30 47 1 28 18
M  V30 48 1 4 44
M  V30 49 1 6 45
M  V30 50 1 7 46
M  V30 51 1 13 47
M  V30 52 1 14 48
M  V30 53 1 17 49
M  V30 54 1 19 50
M  V30 55 1 20 51
M  V30 56 1 27 52
M  V30 57 1 28 53
M  V30 58 1 29 54
M  V30 59 1 32 55
M  V30 60 1 33 56
M  V30 61 1 35 57
M  V30 62 1 36 58
M  V30 63 1 37 59
M  V30 64 1 43 60
M  V30 END BOND
M  V30 END CTAB
M  END
>  <Dataset>  (471) 
ChEMBL_Kinases

>  <Ligand_Instance>  (471) 
nan

>  <PDB_ID>  (471) 
nan

>  <Standardized_SMILES>  (471) 
O=S(=O)(Nc1ccc(-c2nc(-c3ccnc(Nc4ccc(OC(F)(F)F)cc4)c3)no2)cc1)c1cccc(C(F)(F)F)c1

>  <Name>  (471) 
nan

>  <Pocket>  (471) 
nan

>  <ATP_Site>  (471) 
nan

>  <Peripheral>  (471) 
nan

>  <Num_H_Atoms_ProtBoundConf>  (471) 
nan

>  <Num_Resolved_Atoms>  (471) 
nan

>  <Num_Not_Resolved_Atoms>  (471) 
nan

$$$$
CHEMBL4792789
     RDKit          3D

  0  0  0  0  0  0  0  0  0  0999 V3000
M  V30 BEGIN CTAB
M  V30 COUNTS 45 48 0 0 0
M  V30 BEGIN ATOM
M  V30 1 O 0.070035 -3.510475 1.119089 0
M  V30 2 C -1.058163 -3.985918 0.773531 0
M  V30 3 N -2.015520 -3.028262 0.341188 0
M  V30 4 C -1.645326 -1.660529 0.330732 0
M  V30 5 C -1.057929 -0.966136 -0.734919 0
M  V30 6 C -0.756016 0.404228 -0.560425 0
M  V30 7 C -0.999365 1.155716 0.621753 0
M  V30 8 O -0.541673 2.327665 0.241130 0
M  V30 9 C 0.402922 3.201830 0.535651 0
M  V30 10 C 1.155585 3.171214 -0.675620 0
M  V30 11 C 2.313458 3.935604 -0.925181 0
M  V30 12 C 2.780390 4.795428 0.070964 0
M  V30 13 C 3.887849 5.603864 -0.012154 0
M  V30 14 C 4.282557 6.424119 1.015813 0
M  V30 15 C 3.567008 6.467562 2.194016 0
M  V30 16 C 2.442283 5.660492 2.306190 0
M  V30 17 C 2.077793 4.851422 1.254345 0
M  V30 18 C 0.963377 4.073218 1.408700 0
M  V30 19 Br -0.028776 4.180353 3.001806 0
M  V30 20 C -1.572683 0.342189 1.562127 0
M  V30 21 Cl -1.917638 1.251154 3.006491 0
M  V30 22 C -1.903777 -0.981579 1.499577 0
M  V30 23 C -1.243184 -5.431703 0.856660 0
M  V30 24 C -2.447939 -5.999368 0.493784 0
M  V30 25 C -2.616515 -7.361185 0.574079 0
M  V30 26 C -1.649596 -8.222187 0.999887 0
M  V30 27 C -0.457720 -7.626818 1.355432 0
M  V30 28 O 0.602076 -8.432114 1.807994 0
M  V30 29 C -0.227671 -6.267789 1.296898 0
M  V30 30 O 1.006672 -5.726621 1.672821 0
M  V30 31 H -2.941610 -3.413493 0.057017 0
M  V30 32 H -0.933009 -1.651736 -1.555367 0
M  V30 33 H -0.322228 0.636654 -1.547353 0
M  V30 34 H 1.055666 2.620326 -1.618467 0
M  V30 35 H 2.966533 4.007576 -1.780138 0
M  V30 36 H 4.445145 5.564269 -0.941233 0
M  V30 37 H 5.166925 7.045741 0.901827 0
M  V30 38 H 3.825883 7.088737 3.033585 0
M  V30 39 H 1.880734 5.694681 3.231006 0
M  V30 40 H -2.342934 -1.404771 2.364537 0
M  V30 41 H -3.290685 -5.421684 0.140315 0
M  V30 42 H -3.582872 -7.801000 0.281424 0
M  V30 43 H -1.721153 -9.297734 1.084818 0
M  V30 44 H 1.550099 -8.123886 1.730040 0
M  V30 45 H 1.659824 -5.562061 0.905777 0
M  V30 END ATOM
M  V30 BEGIN BOND
M  V30 1 2 1 2
M  V30 2 1 2 3
M  V30 3 1 3 4
M  V30 4 2 4 5
M  V30 5 1 5 6
M  V30 6 2 6 7
M  V30 7 1 7 8
M  V30 8 1 8 9
M  V30 9 2 9 10
M  V30 10 1 10 11
M  V30 11 2 11 12
M  V30 12 1 12 13
M  V30 13 2 13 14
M  V30 14 1 14 15
M  V30 15 2 15 16
M  V30 16 1 16 17
M  V30 17 2 17 18
M  V30 18 1 18 19
M  V30 19 1 7 20
M  V30 20 1 20 21
M  V30 21 2 20 22
M  V30 22 1 2 23
M  V30 23 2 23 24
M  V30 24 1 24 25
M  V30 25 2 25 26
M  V30 26 1 26 27
M  V30 27 1 27 28
M  V30 28 2 27 29
M  V30 29 1 29 30
M  V30 30 1 22 4
M  V30 31 1 29 23
M  V30 32 1 18 9
M  V30 33 1 17 12
M  V30 34 1 3 31
M  V30 35 1 5 32
M  V30 36 1 6 33
M  V30 37 1 10 34
M  V30 38 1 11 35
M  V30 39 1 13 36
M  V30 40 1 14 37
M  V30 41 1 15 38
M  V30 42 1 16 39
M  V30 43 1 22 40
M  V30 44 1 24 41
M  V30 45 1 25 42
M  V30 46 1 26 43
M  V30 47 1 28 44
M  V30 48 1 30 45
M  V30 END BOND
M  V30 END CTAB
M  END
>  <Dataset>  (472) 
ChEMBL_Kinases

>  <Ligand_Instance>  (472) 
nan

>  <PDB_ID>  (472) 
nan

>  <Standardized_SMILES>  (472) 
O=C(Nc1ccc(Oc2ccc3ccccc3c2Br)c(Cl)c1)c1cccc(O)c1O

>  <Name>  (472) 
nan

>  <Pocket>  (472) 
nan

>  <ATP_Site>  (472) 
nan

>  <Peripheral>  (472) 
nan

>  <Num_H_Atoms_ProtBoundConf>  (472) 
nan

>  <Num_Resolved_Atoms>  (472) 
nan

>  <Num_Not_Resolved_Atoms>  (472) 
nan

$$$$
CHEMBL4792822
     RDKit          3D

  0  0  0  0  0  0  0  0  0  0999 V3000
M  V30 BEGIN CTAB
M  V30 COUNTS 65 69 0 0 0
M  V30 BEGIN ATOM
M  V30 1 C 4.633753 -1.663876 4.439584 0
M  V30 2 C 3.798333 -1.702496 3.182491 0
M  V30 3 C 2.369855 -1.983161 3.585074 0
M  V30 4 C 4.312140 -2.831003 2.312110 0
M  V30 5 C 3.877350 -0.398464 2.480635 0
M  V30 6 C 4.789359 -0.085618 1.501688 0
M  V30 7 C 4.847872 1.133326 0.861464 0
M  V30 8 C 3.940527 2.111456 1.214108 0
M  V30 9 S 3.859312 3.720869 0.491646 0
M  V30 10 O 5.237761 4.038969 0.002793 0
M  V30 11 O 3.391858 4.718683 1.501425 0
M  V30 12 N 2.770460 3.734066 -0.837304 0
M  V30 13 C 1.434846 3.410175 -0.507846 0
M  V30 14 C 0.640556 3.875982 0.514723 0
M  V30 15 C -0.655480 3.453428 0.708919 0
M  V30 16 C -1.143083 2.503772 -0.203330 0
M  V30 17 C -2.513909 2.033027 -0.016622 0
M  V30 18 N -3.130596 1.110417 -0.774788 0
M  V30 19 C -4.386541 0.897731 -0.340245 0
M  V30 20 C -5.295202 -0.064077 -0.960881 0
M  V30 21 C -6.669958 0.034883 -0.935235 0
M  V30 22 C -7.413120 -0.975317 -1.563049 0
M  V30 23 N -6.855681 -2.028104 -2.184317 0
M  V30 24 C -5.534304 -2.165684 -2.235407 0
M  V30 25 N -4.724960 -3.195681 -2.821791 0
M  V30 26 C -4.154969 -4.286918 -2.083976 0
M  V30 27 C -2.764092 -4.220832 -2.220580 0
M  V30 28 C -1.916350 -5.154701 -1.607168 0
M  V30 29 C -2.547759 -6.145654 -0.858385 0
M  V30 30 Cl -1.577051 -7.360661 -0.051041 0
M  V30 31 C -3.913967 -6.215193 -0.721195 0
M  V30 32 C -4.708630 -5.293560 -1.328777 0
M  V30 33 F -6.067430 -5.189791 -1.315362 0
M  V30 34 C -4.756610 -1.178603 -1.620461 0
M  V30 35 N -4.521004 1.723563 0.712647 0
M  V30 36 O -3.394583 2.389482 0.887057 0
M  V30 37 C -0.381673 2.013459 -1.238755 0
M  V30 38 C 0.918586 2.463135 -1.402073 0
M  V30 39 C 2.994381 1.833501 2.207417 0
M  V30 40 C 2.958618 0.594031 2.836770 0
M  V30 41 H 4.205237 -2.408572 5.146934 0
M  V30 42 H 5.685438 -1.951651 4.277553 0
M  V30 43 H 4.607029 -0.677543 4.943562 0
M  V30 44 H 1.642931 -1.531550 2.866714 0
M  V30 45 H 2.208644 -1.579444 4.601383 0
M  V30 46 H 2.213848 -3.083741 3.643539 0
M  V30 47 H 4.037752 -2.596291 1.276622 0
M  V30 48 H 5.414556 -2.885671 2.456992 0
M  V30 49 H 3.825159 -3.771206 2.613271 0
M  V30 50 H 5.511655 -0.842374 1.211419 0
M  V30 51 H 5.562072 1.381044 0.090942 0
M  V30 52 H 3.087431 3.966611 -1.802477 0
M  V30 53 H 1.112388 4.599323 1.151661 0
M  V30 54 H -1.238339 3.850581 1.525287 0
M  V30 55 H -7.115277 0.881927 -0.433244 0
M  V30 56 H -8.491448 -0.906680 -1.546855 0
M  V30 57 H -4.599418 -3.060985 -3.847425 0
M  V30 58 H -2.174834 -3.497544 -2.776166 0
M  V30 59 H -0.850008 -5.158937 -1.672740 0
M  V30 60 H -4.442578 -6.961290 -0.150122 0
M  V30 61 H -3.654747 -1.219098 -1.617734 0
M  V30 62 H -0.851449 1.277632 -1.894749 0
M  V30 63 H 1.419101 2.011448 -2.246625 0
M  V30 64 H 2.226400 2.539940 2.564186 0
M  V30 65 H 2.228778 0.361704 3.610896 0
M  V30 END ATOM
M  V30 BEGIN BOND
M  V30 1 1 1 2
M  V30 2 1 2 3
M  V30 3 1 2 4
M  V30 4 1 2 5
M  V30 5 2 5 6
M  V30 6 1 6 7
M  V30 7 2 7 8
M  V30 8 1 8 9
M  V30 9 2 9 10
M  V30 10 2 9 11
M  V30 11 1 9 12
M  V30 12 1 12 13
M  V30 13 2 13 14
M  V30 14 1 14 15
M  V30 15 2 15 16
M  V30 16 1 16 17
M  V30 17 2 17 18
M  V30 18 1 18 19
M  V30 19 1 19 20
M  V30 20 2 20 21
M  V30 21 1 21 22
M  V30 22 2 22 23
M  V30 23 1 23 24
M  V30 24 1 24 25
M  V30 25 1 25 26
M  V30 26 2 26 27
M  V30 27 1 27 28
M  V30 28 2 28 29
M  V30 29 1 29 30
M  V30 30 1 29 31
M  V30 31 2 31 32
M  V30 32 1 32 33
M  V30 33 2 24 34
M  V30 34 2 19 35
M  V30 35 1 35 36
M  V30 36 1 16 37
M  V30 37 2 37 38
M  V30 38 1 8 39
M  V30 39 2 39 40
M  V30 40 1 40 5
M  V30 41 1 38 13
M  V30 42 1 36 17
M  V30 43 1 34 20
M  V30 44 1 32 26
M  V30 45 1 1 41
M  V30 46 1 1 42
M  V30 47 1 1 43
M  V30 48 1 3 44
M  V30 49 1 3 45
M  V30 50 1 3 46
M  V30 51 1 4 47
M  V30 52 1 4 48
M  V30 53 1 4 49
M  V30 54 1 6 50
M  V30 55 1 7 51
M  V30 56 1 12 52
M  V30 57 1 14 53
M  V30 58 1 15 54
M  V30 59 1 21 55
M  V30 60 1 22 56
M  V30 61 1 25 57
M  V30 62 1 27 58
M  V30 63 1 28 59
M  V30 64 1 31 60
M  V30 65 1 34 61
M  V30 66 1 37 62
M  V30 67 1 38 63
M  V30 68 1 39 64
M  V30 69 1 40 65
M  V30 END BOND
M  V30 END CTAB
M  END
>  <Dataset>  (473) 
ChEMBL_Kinases

>  <Ligand_Instance>  (473) 
nan

>  <PDB_ID>  (473) 
nan

>  <Standardized_SMILES>  (473) 
CC(C)(C)c1ccc(S(=O)(=O)Nc2ccc(-c3nc(-c4ccnc(Nc5ccc(Cl)cc5F)c4)no3)cc2)cc1

>  <Name>  (473) 
nan

>  <Pocket>  (473) 
nan

>  <ATP_Site>  (473) 
nan

>  <Peripheral>  (473) 
nan

>  <Num_H_Atoms_ProtBoundConf>  (473) 
nan

>  <Num_Resolved_Atoms>  (473) 
nan

>  <Num_Not_Resolved_Atoms>  (473) 
nan

$$$$
CHEMBL4792842
     RDKit          3D

  0  0  0  0  0  0  0  0  0  0999 V3000
M  V30 BEGIN CTAB
M  V30 COUNTS 61 64 0 0 0
M  V30 BEGIN ATOM
M  V30 1 C 0.465516 -4.024153 6.114173 0
M  V30 2 C 1.469971 -3.190762 6.387550 0
M  V30 3 C 1.871026 -3.101636 4.990919 0
M  V30 4 O 1.001734 -3.867214 4.488065 0
M  V30 5 N 2.940536 -2.351194 4.432375 0
M  V30 6 C 3.762345 -1.563804 5.305246 0
M  V30 7 C 4.597644 -0.644129 4.441775 0
M  V30 8 C 3.943363 -0.242571 3.193526 0
M  V30 9 C 3.212708 -1.026336 2.405256 0
M  V30 10 C 2.553515 -0.653049 1.162459 0
M  V30 11 C 1.822138 -1.544288 0.406862 0
M  V30 12 C 1.219545 -1.129675 -0.761485 0
M  V30 13 C 1.278008 0.148892 -1.273769 0
M  V30 14 C 0.661519 0.652631 -2.493087 0
M  V30 15 C -0.783179 0.973552 -2.193580 0
M  V30 16 O -1.260363 2.148377 -2.311718 0
M  V30 17 N -1.773358 0.053989 -1.758052 0
M  V30 18 C -3.107195 0.477389 -1.507360 0
M  V30 19 C -4.139220 -0.341432 -1.085338 0
M  V30 20 C -5.268214 0.444817 -0.960134 0
M  V30 21 C -6.581781 -0.097620 -0.523827 0
M  V30 22 C -6.651720 -1.300736 0.332871 0
M  V30 23 C -6.964785 -1.461983 -1.124938 0
M  V30 24 N -4.933965 1.700611 -1.294860 0
M  V30 25 N -3.641777 1.705698 -1.619233 0
M  V30 26 C 0.676710 -0.221893 -3.684437 0
M  V30 27 C -0.000646 0.471071 -4.825190 0
M  V30 28 C 1.996555 -0.754274 -4.093978 0
M  V30 29 C 2.032499 1.018656 -0.471001 0
M  V30 30 C 2.655313 0.643516 0.710681 0
M  V30 31 C 3.173772 -2.397413 3.018732 0
M  V30 32 H -0.305196 -4.537290 6.685441 0
M  V30 33 H -0.319061 -4.699154 5.750738 0
M  V30 34 H 1.531878 -2.970913 7.446872 0
M  V30 35 H 3.099299 -0.928325 5.918792 0
M  V30 36 H 4.387372 -2.158267 5.986178 0
M  V30 37 H 5.583658 -1.130064 4.296065 0
M  V30 38 H 4.801660 0.261988 5.044946 0
M  V30 39 H 4.059921 0.797260 2.866967 0
M  V30 40 H 1.704490 -2.556272 0.694274 0
M  V30 41 H 0.658736 -1.853566 -1.335616 0
M  V30 42 H 1.118174 1.638349 -2.755271 0
M  V30 43 H -1.499492 -0.940873 -1.627149 0
M  V30 44 H -4.069228 -1.397764 -0.891399 0
M  V30 45 H -7.380107 0.663325 -0.466249 0
M  V30 46 H -7.501962 -1.389069 1.031389 0
M  V30 47 H -5.697959 -1.729183 0.723630 0
M  V30 48 H -6.226907 -1.950284 -1.810264 0
M  V30 49 H -8.018271 -1.597591 -1.439372 0
M  V30 50 H -5.617085 2.493035 -1.282113 0
M  V30 51 H 0.028643 -1.119270 -3.450008 0
M  V30 52 H 0.769438 1.088317 -5.347858 0
M  V30 53 H -0.477011 -0.281796 -5.494329 0
M  V30 54 H -0.744817 1.187757 -4.419273 0
M  V30 55 H 2.147775 -0.544992 -5.172270 0
M  V30 56 H 2.836651 -0.232624 -3.574279 0
M  V30 57 H 2.086461 -1.857488 -4.010229 0
M  V30 58 H 2.111223 2.051499 -0.833210 0
M  V30 59 H 3.192864 1.438592 1.199021 0
M  V30 60 H 4.113789 -2.954610 2.764312 0
M  V30 61 H 2.369033 -2.976381 2.527194 0
M  V30 END ATOM
M  V30 BEGIN BOND
M  V30 1 2 1 2
M  V30 2 1 2 3
M  V30 3 2 3 4
M  V30 4 1 3 5
M  V30 5 1 5 6
M  V30 6 1 6 7
M  V30 7 1 7 8
M  V30 8 2 8 9
M  V30 9 1 9 10
M  V30 10 2 10 11
M  V30 11 1 11 12
M  V30 12 2 12 13
M  V30 13 1 13 14
M  V30 14 1 14 15
M  V30 15 2 15 16
M  V30 16 1 15 17
M  V30 17 1 17 18
M  V30 18 1 18 19
M  V30 19 2 19 20
M  V30 20 1 20 21
M  V30 21 1 21 22
M  V30 22 1 22 23
M  V30 23 1 20 24
M  V30 24 1 24 25
M  V30 25 1 14 26
M  V30 26 1 26 27
M  V30 27 1 26 28
M  V30 28 1 13 29
M  V30 29 2 29 30
M  V30 30 1 9 31
M  V30 31 1 31 5
M  V30 32 1 30 10
M  V30 33 2 25 18
M  V30 34 1 23 21
M  V30 35 1 1 32
M  V30 36 1 1 33
M  V30 37 1 2 34
M  V30 38 1 6 35
M  V30 39 1 6 36
M  V30 40 1 7 37
M  V30 41 1 7 38
M  V30 42 1 8 39
M  V30 43 1 11 40
M  V30 44 1 12 41
M  V30 45 1 14 42
M  V30 46 1 17 43
M  V30 47 1 19 44
M  V30 48 1 21 45
M  V30 49 1 22 46
M  V30 50 1 22 47
M  V30 51 1 23 48
M  V30 52 1 23 49
M  V30 53 1 24 50
M  V30 54 1 26 51
M  V30 55 1 27 52
M  V30 56 1 27 53
M  V30 57 1 27 54
M  V30 58 1 28 55
M  V30 59 1 28 56
M  V30 60 1 28 57
M  V30 61 1 29 58
M  V30 62 1 30 59
M  V30 63 1 31 60
M  V30 64 1 31 61
M  V30 END BOND
M  V30 END CTAB
M  END
>  <Dataset>  (474) 
ChEMBL_Kinases

>  <Ligand_Instance>  (474) 
nan

>  <PDB_ID>  (474) 
nan

>  <Standardized_SMILES>  (474) 
C=CC(=O)N1CCC=C(c2ccc(C(C(=O)Nc3cc(C4CC4)[nH]n3)C(C)C)cc2)C1

>  <Name>  (474) 
nan

>  <Pocket>  (474) 
nan

>  <ATP_Site>  (474) 
nan

>  <Peripheral>  (474) 
nan

>  <Num_H_Atoms_ProtBoundConf>  (474) 
nan

>  <Num_Resolved_Atoms>  (474) 
nan

>  <Num_Not_Resolved_Atoms>  (474) 
nan

$$$$
CHEMBL4792880
     RDKit          3D

  0  0  0  0  0  0  0  0  0  0999 V3000
M  V30 BEGIN CTAB
M  V30 COUNTS 83 87 0 0 0
M  V30 BEGIN ATOM
M  V30 1 N 0.760964 4.353154 5.706087 0
M  V30 2 C 2.031470 4.290417 5.137990 0
M  V30 3 C 2.416093 4.437138 3.829990 0
M  V30 4 C 1.534121 4.708102 2.707387 0
M  V30 5 O 0.306325 4.824265 2.712873 0
M  V30 6 N 2.084930 4.874223 1.409858 0
M  V30 7 C 1.446063 5.152129 0.139718 0
M  V30 8 C 0.927662 3.881846 -0.448817 0
M  V30 9 C -0.233587 3.151038 -0.367247 0
M  V30 10 C -0.306772 1.990780 -1.109071 0
M  V30 11 C 0.666838 1.501458 -1.917705 0
M  V30 12 C 0.478801 0.211160 -2.652928 0
M  V30 13 O 1.394275 -0.007076 -3.499659 0
M  V30 14 N -0.633454 -0.598012 -2.350000 0
M  V30 15 C -0.590501 -1.795767 -3.187370 0 CFG=1
M  V30 16 C -0.709764 -3.038104 -2.347699 0
M  V30 17 C -1.975704 -3.175075 -1.552618 0
M  V30 18 C -2.033888 -4.410572 -0.724145 0
M  V30 19 C -1.918167 -5.700413 -1.549800 0
M  V30 20 C -1.734182 -6.868447 -0.570379 0
M  V30 21 C -2.428800 -6.576783 0.745993 0
M  V30 22 C -1.702729 -5.436904 1.426474 0
M  V30 23 C -1.037464 -4.548382 0.363613 0
M  V30 24 C -1.735731 -1.690634 -4.134781 0
M  V30 25 O -2.354073 -0.713313 -3.621785 0
M  V30 26 N -1.870179 -2.591185 -5.258811 0
M  V30 27 C -1.009673 -3.641623 -5.741252 0
M  V30 28 C -1.781292 -4.943611 -5.690740 0
M  V30 29 N -2.943373 -4.865189 -6.560024 0
M  V30 30 C -3.168275 -3.535774 -7.054511 0
M  V30 31 C -3.081169 -2.443565 -6.034598 0
M  V30 32 C 1.878295 2.210280 -2.037167 0
M  V30 33 C 1.956559 3.389395 -1.284842 0
M  V30 34 C 3.776176 4.272382 3.880274 0
M  V30 35 N 4.124541 4.046820 5.152801 0
M  V30 36 N 3.068578 4.053721 5.945183 0
M  V30 37 C 3.406055 3.821336 7.302848 0
M  V30 38 C 4.231697 4.677993 7.993362 0
M  V30 39 C 4.533971 4.382391 9.334569 0
M  V30 40 C 4.015492 3.248366 9.966374 0
M  V30 41 C 3.181624 2.429338 9.186669 0
M  V30 42 C 2.868469 2.692909 7.873271 0
M  V30 43 H -0.194191 4.321284 6.054241 0
M  V30 44 H 0.412707 4.999026 6.479305 0
M  V30 45 H 3.140207 4.790883 1.298250 0
M  V30 46 H 2.038620 5.752713 -0.545707 0
M  V30 47 H 0.501787 5.717685 0.424587 0
M  V30 48 H -0.907315 3.650447 0.300865 0
M  V30 49 H -1.276414 1.496590 -0.965640 0
M  V30 50 H -1.363273 -0.387360 -1.648907 0
M  V30 51 H 0.318881 -1.886691 -3.794362 0
M  V30 52 H -0.626842 -3.910093 -3.026477 0
M  V30 53 H 0.143542 -3.143334 -1.651281 0
M  V30 54 H -2.792886 -3.317823 -2.327688 0
M  V30 55 H -2.279260 -2.261458 -1.009643 0
M  V30 56 H -3.081238 -4.478187 -0.299035 0
M  V30 57 H -2.744269 -5.857904 -2.234914 0
M  V30 58 H -0.920326 -5.642383 -2.070959 0
M  V30 59 H -0.660499 -7.045512 -0.344709 0
M  V30 60 H -2.133343 -7.787753 -1.030856 0
M  V30 61 H -2.380802 -7.465508 1.369861 0
M  V30 62 H -3.503259 -6.353863 0.538433 0
M  V30 63 H -1.019717 -5.721384 2.216872 0
M  V30 64 H -2.509072 -4.781067 1.847631 0
M  V30 65 H -0.707792 -3.649593 0.872175 0
M  V30 66 H -0.104935 -5.080762 0.050305 0
M  V30 67 H -0.801142 -3.471536 -6.840986 0
M  V30 68 H -0.037070 -3.669401 -5.242732 0
M  V30 69 H -1.157096 -5.824829 -5.933676 0
M  V30 70 H -2.175694 -5.089678 -4.667541 0
M  V30 71 H -3.790468 -5.244943 -6.110642 0
M  V30 72 H -4.230742 -3.541757 -7.440771 0
M  V30 73 H -2.556690 -3.325120 -7.959064 0
M  V30 74 H -3.951878 -2.472913 -5.319851 0
M  V30 75 H -3.133837 -1.475723 -6.561073 0
M  V30 76 H 2.636159 1.806801 -2.677837 0
M  V30 77 H 2.948603 3.822765 -1.482306 0
M  V30 78 H 4.451101 4.316751 3.022907 0
M  V30 79 H 4.621118 5.550858 7.487417 0
M  V30 80 H 5.188512 5.083708 9.839626 0
M  V30 81 H 4.250721 3.024618 10.995757 0
M  V30 82 H 2.805848 1.554349 9.736746 0
M  V30 83 H 2.218479 1.959214 7.441695 0
M  V30 END ATOM
M  V30 BEGIN BOND
M  V30 1 1 1 2
M  V30 2 2 2 3
M  V30 3 1 3 4
M  V30 4 2 4 5
M  V30 5 1 4 6
M  V30 6 1 6 7
M  V30 7 1 7 8
M  V30 8 2 8 9
M  V30 9 1 9 10
M  V30 10 2 10 11
M  V30 11 1 11 12
M  V30 12 2 12 13
M  V30 13 1 12 14
M  V30 14 1 14 15
M  V30 15 1 15 16
M  V30 16 1 16 17
M  V30 17 1 17 18
M  V30 18 1 18 19
M  V30 19 1 19 20
M  V30 20 1 20 21
M  V30 21 1 21 22
M  V30 22 1 22 23
M  V30 23 1 15 24
M  V30 24 2 24 25
M  V30 25 1 24 26
M  V30 26 1 26 27
M  V30 27 1 27 28
M  V30 28 1 28 29
M  V30 29 1 29 30
M  V30 30 1 30 31
M  V30 31 1 11 32
M  V30 32 2 32 33
M  V30 33 1 3 34
M  V30 34 2 34 35
M  V30 35 1 35 36
M  V30 36 1 36 37
M  V30 37 2 37 38
M  V30 38 1 38 39
M  V30 39 2 39 40
M  V30 40 1 40 41
M  V30 41 2 41 42
M  V30 42 1 36 2
M  V30 43 1 42 37
M  V30 44 1 33 8
M  V30 45 1 23 18
M  V30 46 1 31 26
M  V30 47 1 1 43
M  V30 48 1 1 44
M  V30 49 1 6 45
M  V30 50 1 7 46
M  V30 51 1 7 47
M  V30 52 1 9 48
M  V30 53 1 10 49
M  V30 54 1 14 50
M  V30 55 1 15 51 CFG=3
M  V30 56 1 16 52
M  V30 57 1 16 53
M  V30 58 1 17 54
M  V30 59 1 17 55
M  V30 60 1 18 56
M  V30 61 1 19 57
M  V30 62 1 19 58
M  V30 63 1 20 59
M  V30 64 1 20 60
M  V30 65 1 21 61
M  V30 66 1 21 62
M  V30 67 1 22 63
M  V30 68 1 22 64
M  V30 69 1 23 65
M  V30 70 1 23 66
M  V30 71 1 27 67
M  V30 72 1 27 68
M  V30 73 1 28 69
M  V30 74 1 28 70
M  V30 75 1 29 71
M  V30 76 1 30 72
M  V30 77 1 30 73
M  V30 78 1 31 74
M  V30 79 1 31 75
M  V30 80 1 32 76
M  V30 81 1 33 77
M  V30 82 1 34 78
M  V30 83 1 38 79
M  V30 84 1 39 80
M  V30 85 1 40 81
M  V30 86 1 41 82
M  V30 87 1 42 83
M  V30 END BOND
M  V30 END CTAB
M  END
>  <Dataset>  (475) 
ChEMBL_Kinases

>  <Ligand_Instance>  (475) 
nan

>  <PDB_ID>  (475) 
nan

>  <Standardized_SMILES>  (475) 
Nc1c(C(=O)NCc2ccc(C(=O)N[C@@H](CCC3CCCCC3)C(=O)N3CCNCC3)cc2)cnn1-c1ccccc1

>  <Name>  (475) 
nan

>  <Pocket>  (475) 
nan

>  <ATP_Site>  (475) 
nan

>  <Peripheral>  (475) 
nan

>  <Num_H_Atoms_ProtBoundConf>  (475) 
nan

>  <Num_Resolved_Atoms>  (475) 
nan

>  <Num_Not_Resolved_Atoms>  (475) 
nan

$$$$
CHEMBL4127773
     RDKit          3D

  0  0  0  0  0  0  0  0  0  0999 V3000
M  V30 BEGIN CTAB
M  V30 COUNTS 53 56 0 0 0
M  V30 BEGIN ATOM
M  V30 1 C 4.044354 -3.818404 0.404625 0
M  V30 2 O 4.059911 -2.406653 0.297787 0
M  V30 3 C 4.271518 -1.692360 1.462212 0
M  V30 4 N 4.465257 -2.208802 2.694009 0
M  V30 5 C 4.664315 -1.461823 3.778746 0
M  V30 6 C 4.689555 -0.080905 3.734146 0
M  V30 7 C 4.490937 0.475789 2.467467 0
M  V30 8 C 4.284179 -0.334336 1.345652 0
M  V30 9 C 4.101652 0.451667 0.143293 0
M  V30 10 C 5.133270 0.847483 -0.692942 0
M  V30 11 N 4.567481 1.553467 -1.690442 0
M  V30 12 N 3.246406 1.596751 -1.487446 0
M  V30 13 C 2.295403 2.191702 -2.230660 0
M  V30 14 C 0.967782 2.128514 -1.858330 0
M  V30 15 C 0.631061 1.442352 -0.706815 0
M  V30 16 N -0.646741 1.233303 -0.114806 0
M  V30 17 C -0.981986 0.519299 1.079773 0
M  V30 18 C -1.804294 -0.715768 0.820421 0
M  V30 19 N -2.886737 -0.409312 -0.094546 0
M  V30 20 C -4.168461 -1.064976 -0.025292 0
M  V30 21 O -5.134566 -0.849544 -0.776101 0
M  V30 22 O -4.434804 -2.036871 0.934658 0
M  V30 23 C -5.656318 -2.702507 1.046597 0
M  V30 24 C -5.544812 -4.192452 0.792339 0
M  V30 25 C -6.355919 -2.440706 2.369134 0
M  V30 26 C -2.769506 0.578311 -1.150786 0
M  V30 27 C -1.923792 1.711775 -0.607025 0
M  V30 28 N 1.618467 0.848938 0.026512 0
M  V30 29 C 2.903550 0.923633 -0.355213 0
M  V30 30 H 3.447556 -4.313792 -0.380897 0
M  V30 31 H 3.533223 -4.075876 1.368967 0
M  V30 32 H 5.074280 -4.227262 0.512645 0
M  V30 33 H 4.807627 -1.995795 4.711471 0
M  V30 34 H 4.851129 0.521110 4.615225 0
M  V30 35 H 4.516000 1.575977 2.461516 0
M  V30 36 H 6.197097 0.633502 -0.573827 0
M  V30 37 H 2.456297 2.746235 -3.138425 0
M  V30 38 H 0.104847 2.555700 -2.355004 0
M  V30 39 H -0.059823 0.160729 1.618836 0
M  V30 40 H -1.491501 1.162003 1.851227 0
M  V30 41 H -2.191496 -1.068790 1.797271 0
M  V30 42 H -1.135587 -1.470147 0.357173 0
M  V30 43 H -6.333454 -2.312515 0.249414 0
M  V30 44 H -4.717147 -4.669712 1.354784 0
M  V30 45 H -5.412444 -4.315149 -0.309692 0
M  V30 46 H -6.522342 -4.648492 1.076791 0
M  V30 47 H -5.579079 -2.479382 3.160016 0
M  V30 48 H -7.102258 -3.262466 2.540544 0
M  V30 49 H -6.851328 -1.448269 2.364912 0
M  V30 50 H -2.191884 0.114005 -1.967888 0
M  V30 51 H -3.737934 0.980912 -1.465238 0
M  V30 52 H -1.739127 2.376900 -1.501376 0
M  V30 53 H -2.463749 2.359025 0.112189 0
M  V30 END ATOM
M  V30 BEGIN BOND
M  V30 1 1 1 2
M  V30 2 1 2 3
M  V30 3 2 3 4
M  V30 4 1 4 5
M  V30 5 2 5 6
M  V30 6 1 6 7
M  V30 7 2 7 8
M  V30 8 1 8 9
M  V30 9 1 9 10
M  V30 10 2 10 11
M  V30 11 1 11 12
M  V30 12 1 12 13
M  V30 13 2 13 14
M  V30 14 1 14 15
M  V30 15 1 15 16
M  V30 16 1 16 17
M  V30 17 1 17 18
M  V30 18 1 18 19
M  V30 19 1 19 20
M  V30 20 2 20 21
M  V30 21 1 20 22
M  V30 22 1 22 23
M  V30 23 1 23 24
M  V30 24 1 23 25
M  V30 25 1 19 26
M  V30 26 1 26 27
M  V30 27 2 15 28
M  V30 28 1 28 29
M  V30 29 1 8 3
M  V30 30 2 29 9
M  V30 31 1 29 12
M  V30 32 1 27 16
M  V30 33 1 1 30
M  V30 34 1 1 31
M  V30 35 1 1 32
M  V30 36 1 5 33
M  V30 37 1 6 34
M  V30 38 1 7 35
M  V30 39 1 10 36
M  V30 40 1 13 37
M  V30 41 1 14 38
M  V30 42 1 17 39
M  V30 43 1 17 40
M  V30 44 1 18 41
M  V30 45 1 18 42
M  V30 46 1 23 43
M  V30 47 1 24 44
M  V30 48 1 24 45
M  V30 49 1 24 46
M  V30 50 1 25 47
M  V30 51 1 25 48
M  V30 52 1 25 49
M  V30 53 1 26 50
M  V30 54 1 26 51
M  V30 55 1 27 52
M  V30 56 1 27 53
M  V30 END BOND
M  V30 END CTAB
M  END
>  <Dataset>  (476) 
ChEMBL_Kinases

>  <Ligand_Instance>  (476) 
nan

>  <PDB_ID>  (476) 
nan

>  <Standardized_SMILES>  (476) 
COc1ncccc1-c1cnn2ccc(N3CCN(C(=O)OC(C)C)CC3)nc12

>  <Name>  (476) 
nan

>  <Pocket>  (476) 
nan

>  <ATP_Site>  (476) 
nan

>  <Peripheral>  (476) 
nan

>  <Num_H_Atoms_ProtBoundConf>  (476) 
nan

>  <Num_Resolved_Atoms>  (476) 
nan

>  <Num_Not_Resolved_Atoms>  (476) 
nan

$$$$
CHEMBL4127706
     RDKit          3D

  0  0  0  0  0  0  0  0  0  0999 V3000
M  V30 BEGIN CTAB
M  V30 COUNTS 45 48 0 0 0
M  V30 BEGIN ATOM
M  V30 1 C 4.192858 -5.594744 -1.061700 0
M  V30 2 S 4.349624 -4.203052 -2.179385 0
M  V30 3 O 5.587447 -3.453224 -1.761852 0
M  V30 4 O 4.426775 -4.630568 -3.595134 0
M  V30 5 C 2.993427 -3.099963 -1.904553 0
M  V30 6 C 1.897330 -3.383098 -2.690081 0
M  V30 7 C 0.780553 -2.572573 -2.548598 0
M  V30 8 C 0.806697 -1.521324 -1.634723 0
M  V30 9 C 1.931929 -1.286529 -0.876275 0
M  V30 10 C 2.037893 -0.193864 0.112267 0
M  V30 11 C 3.241751 0.425384 0.384949 0
M  V30 12 N 3.273352 1.429462 1.309500 0
M  V30 13 C 2.160757 1.828060 1.959158 0
M  V30 14 N 1.882478 2.762836 2.897177 0
M  V30 15 C 0.562043 2.730726 3.199062 0
M  V30 16 C -0.049228 1.734742 2.427671 0
M  V30 17 C -1.480553 1.484464 2.555313 0
M  V30 18 C -2.327757 2.572891 2.582287 0
M  V30 19 C -3.702774 2.345186 2.705542 0
M  V30 20 C -4.129259 1.035596 2.793157 0
M  V30 21 C -5.533030 0.661815 2.925422 0
M  V30 22 N -6.695514 1.478474 2.992319 0
M  V30 23 O -6.004804 -0.512809 3.009567 0
M  V30 24 C -3.276751 -0.048499 2.765566 0
M  V30 25 C -1.915263 0.177781 2.643470 0
M  V30 26 C 0.970495 1.194305 1.669708 0
M  V30 27 C 0.847776 0.172846 0.751844 0
M  V30 28 C 3.078850 -2.079660 -0.987944 0
M  V30 29 H 4.749122 -5.438087 -0.125869 0
M  V30 30 H 4.632878 -6.466536 -1.577076 0
M  V30 31 H 3.113027 -5.803098 -0.846306 0
M  V30 32 H 1.834793 -4.177102 -3.401298 0
M  V30 33 H -0.124879 -2.722337 -3.124898 0
M  V30 34 H -0.016908 -0.843553 -1.462147 0
M  V30 35 H 4.142043 0.124477 -0.120777 0
M  V30 36 H 2.659340 3.357189 3.254235 0
M  V30 37 H 0.094872 3.389597 3.928228 0
M  V30 38 H -1.990426 3.603735 2.513096 0
M  V30 39 H -4.414111 3.142755 2.732760 0
M  V30 40 H -6.436343 2.488636 2.965074 0
M  V30 41 H -6.391072 2.495275 2.962107 0
M  V30 42 H -3.584964 -1.077246 2.832366 0
M  V30 43 H -1.231085 -0.665558 2.620305 0
M  V30 44 H -0.089045 -0.310082 0.538800 0
M  V30 45 H 3.974487 -1.925731 -0.412186 0
M  V30 END ATOM
M  V30 BEGIN BOND
M  V30 1 1 1 2
M  V30 2 2 2 3
M  V30 3 2 2 4
M  V30 4 1 2 5
M  V30 5 2 5 6
M  V30 6 1 6 7
M  V30 7 2 7 8
M  V30 8 1 8 9
M  V30 9 1 9 10
M  V30 10 2 10 11
M  V30 11 1 11 12
M  V30 12 2 12 13
M  V30 13 1 13 14
M  V30 14 1 14 15
M  V30 15 2 15 16
M  V30 16 1 16 17
M  V30 17 2 17 18
M  V30 18 1 18 19
M  V30 19 2 19 20
M  V30 20 1 20 21
M  V30 21 1 21 22
M  V30 22 2 21 23
M  V30 23 1 20 24
M  V30 24 2 24 25
M  V30 25 1 16 26
M  V30 26 2 26 27
M  V30 27 2 9 28
M  V30 28 1 28 5
M  V30 29 1 27 10
M  V30 30 1 26 13
M  V30 31 1 25 17
M  V30 32 1 1 29
M  V30 33 1 1 30
M  V30 34 1 1 31
M  V30 35 1 6 32
M  V30 36 1 7 33
M  V30 37 1 8 34
M  V30 38 1 11 35
M  V30 39 1 14 36
M  V30 40 1 15 37
M  V30 41 1 18 38
M  V30 42 1 19 39
M  V30 43 1 22 40
M  V30 44 1 22 41
M  V30 45 1 24 42
M  V30 46 1 25 43
M  V30 47 1 27 44
M  V30 48 1 28 45
M  V30 END BOND
M  V30 END CTAB
M  END
>  <Dataset>  (477) 
ChEMBL_Kinases

>  <Ligand_Instance>  (477) 
nan

>  <PDB_ID>  (477) 
nan

>  <Standardized_SMILES>  (477) 
CS(=O)(=O)c1cccc(-c2cnc3[nH]cc(-c4ccc(C(N)=O)cc4)c3c2)c1

>  <Name>  (477) 
nan

>  <Pocket>  (477) 
nan

>  <ATP_Site>  (477) 
nan

>  <Peripheral>  (477) 
nan

>  <Num_H_Atoms_ProtBoundConf>  (477) 
nan

>  <Num_Resolved_Atoms>  (477) 
nan

>  <Num_Not_Resolved_Atoms>  (477) 
nan

$$$$
CHEMBL479290
     RDKit          3D

  0  0  0  0  0  0  0  0  0  0999 V3000
M  V30 BEGIN CTAB
M  V30 COUNTS 51 54 0 0 0
M  V30 BEGIN ATOM
M  V30 1 C 0.000454 -4.153027 3.416723 0
M  V30 2 O 1.276103 -4.536958 3.899384 0
M  V30 3 C 2.455961 -4.086557 3.316631 0
M  V30 4 C 3.697039 -4.447939 3.770726 0
M  V30 5 C 4.843877 -3.979499 3.165122 0
M  V30 6 C 4.699666 -3.125235 2.074501 0
M  V30 7 C 3.486465 -2.735902 1.584520 0
M  V30 8 C 3.436645 -1.837166 0.436491 0
M  V30 9 C 2.264641 -1.389517 -0.128270 0
M  V30 10 C 2.362250 -0.548674 -1.203237 0
M  V30 11 N 1.156019 -0.078253 -1.796883 0
M  V30 12 C -0.114912 -0.493879 -1.258239 0
M  V30 13 C -1.231125 -0.392157 -0.418316 0
M  V30 14 N -1.217745 0.727489 0.453878 0
M  V30 15 C -1.685294 2.079751 0.333244 0 CFG=2
M  V30 16 C -1.402320 2.884119 1.586704 0
M  V30 17 C -3.134005 2.082495 0.043697 0
M  V30 18 C -3.818787 1.397286 -0.926855 0
M  V30 19 C -5.183687 1.468857 -1.098201 0
M  V30 20 C -5.950820 2.261524 -0.272171 0
M  V30 21 C -5.337892 2.978393 0.722881 0
M  V30 22 C -3.970471 2.868169 0.847641 0
M  V30 23 C -1.707948 -1.541315 -0.996344 0
M  V30 24 O -2.834217 -1.884549 -0.498640 0
M  V30 25 C -0.624439 -1.643281 -1.814716 0
M  V30 26 O -0.663956 -2.643356 -2.574038 0
M  V30 27 C 3.556418 -0.126433 -1.750094 0
M  V30 28 C 4.692834 -0.607344 -1.142618 0
M  V30 29 N 4.618532 -1.444993 -0.071875 0
M  V30 30 C 2.379825 -3.239746 2.235112 0
M  V30 31 H -0.745408 -4.687501 4.052672 0
M  V30 32 H -0.167461 -3.044828 3.527989 0
M  V30 33 H -0.153883 -4.492402 2.386789 0
M  V30 34 H 3.759163 -5.120710 4.629958 0
M  V30 35 H 5.803326 -4.274261 3.535832 0
M  V30 36 H 5.639195 -2.791335 1.642071 0
M  V30 37 H 1.328282 -1.697957 0.271597 0
M  V30 38 H 1.157248 0.573700 -2.629738 0
M  V30 39 H -0.766418 0.500663 1.391511 0
M  V30 40 H -1.103043 2.595567 -0.473748 0
M  V30 41 H -1.943432 2.506656 2.476733 0
M  V30 42 H -0.291865 2.762610 1.755055 0
M  V30 43 H -1.579839 3.946502 1.418084 0
M  V30 44 H -3.227033 0.785327 -1.579185 0
M  V30 45 H -5.627056 0.874627 -1.910761 0
M  V30 46 H -7.013051 2.265343 -0.469088 0
M  V30 47 H -5.921201 3.598176 1.371628 0
M  V30 48 H -3.545717 3.469026 1.664622 0
M  V30 49 H 3.543424 0.533352 -2.593035 0
M  V30 50 H 5.652196 -0.288229 -1.556274 0
M  V30 51 H 1.401163 -2.953333 1.875191 0
M  V30 END ATOM
M  V30 BEGIN BOND
M  V30 1 1 1 2
M  V30 2 1 2 3
M  V30 3 2 3 4
M  V30 4 1 4 5
M  V30 5 2 5 6
M  V30 6 1 6 7
M  V30 7 1 7 8
M  V30 8 2 8 9
M  V30 9 1 9 10
M  V30 10 1 10 11
M  V30 11 1 11 12
M  V30 12 2 12 13
M  V30 13 1 13 14
M  V30 14 1 14 15
M  V30 15 1 15 16
M  V30 16 1 15 17
M  V30 17 2 17 18
M  V30 18 1 18 19
M  V30 19 2 19 20
M  V30 20 1 20 21
M  V30 21 2 21 22
M  V30 22 1 13 23
M  V30 23 2 23 24
M  V30 24 1 23 25
M  V30 25 2 25 26
M  V30 26 2 10 27
M  V30 27 1 27 28
M  V30 28 2 28 29
M  V30 29 2 7 30
M  V30 30 1 30 3
M  V30 31 1 29 8
M  V30 32 1 25 12
M  V30 33 1 22 17
M  V30 34 1 1 31
M  V30 35 1 1 32
M  V30 36 1 1 33
M  V30 37 1 4 34
M  V30 38 1 5 35
M  V30 39 1 6 36
M  V30 40 1 9 37
M  V30 41 1 11 38
M  V30 42 1 14 39
M  V30 43 1 15 40 CFG=3
M  V30 44 1 16 41
M  V30 45 1 16 42
M  V30 46 1 16 43
M  V30 47 1 18 44
M  V30 48 1 19 45
M  V30 49 1 20 46
M  V30 50 1 21 47
M  V30 51 1 22 48
M  V30 52 1 27 49
M  V30 53 1 28 50
M  V30 54 1 30 51
M  V30 END BOND
M  V30 END CTAB
M  END
>  <Dataset>  (478) 
ChEMBL_Kinases

>  <Ligand_Instance>  (478) 
nan

>  <PDB_ID>  (478) 
nan

>  <Standardized_SMILES>  (478) 
COc1cccc(-c2cc(Nc3c(N[C@H](C)c4ccccc4)c(=O)c3=O)ccn2)c1

>  <Name>  (478) 
nan

>  <Pocket>  (478) 
nan

>  <ATP_Site>  (478) 
nan

>  <Peripheral>  (478) 
nan

>  <Num_H_Atoms_ProtBoundConf>  (478) 
nan

>  <Num_Resolved_Atoms>  (478) 
nan

>  <Num_Not_Resolved_Atoms>  (478) 
nan

$$$$
CHEMBL4127627
     RDKit          3D

  0  0  0  0  0  0  0  0  0  0999 V3000
M  V30 BEGIN CTAB
M  V30 COUNTS 241 245 0 0 0
M  V30 BEGIN ATOM
M  V30 1 C -0.992319 -6.115506 -3.674061 0
M  V30 2 C -0.857226 -6.954806 -2.437556 0
M  V30 3 C -0.810697 -6.198936 -1.150509 0 CFG=2
M  V30 4 C -0.662171 -7.251420 -0.030605 0
M  V30 5 C -2.047865 -5.417618 -0.868072 0 CFG=2
M  V30 6 N -2.310088 -4.404076 -1.908339 0
M  V30 7 C -3.684007 -4.083960 -2.145549 0
M  V30 8 O -4.498357 -4.735660 -1.377688 0
M  V30 9 C -4.590692 -3.263584 -2.952068 0 CFG=2
M  V30 10 C -5.869168 -3.994432 -3.368048 0
M  V30 11 N -4.056558 -2.575611 -4.081140 0
M  V30 12 C -3.617796 -1.345960 -4.584377 0
M  V30 13 O -3.617143 -0.308440 -3.832835 0
M  V30 14 C -3.114590 -0.906826 -5.876709 0 CFG=1
M  V30 15 N -2.615941 0.470110 -5.821470 0
M  V30 16 C -3.093340 1.594317 -6.595976 0
M  V30 17 O -4.025996 1.497054 -7.433298 0
M  V30 18 C -2.600808 2.970815 -6.546445 0 CFG=2
M  V30 19 C -2.069233 3.370652 -7.910273 0
M  V30 20 O -1.029684 2.610981 -8.370325 0
M  V30 21 N -1.592495 3.063449 -5.518213 0
M  V30 22 C -1.819241 4.161940 -4.606323 0
M  V30 23 O -2.739209 5.024084 -4.609246 0
M  V30 24 C -0.916636 4.451164 -3.416026 0 CFG=2
M  V30 25 C -0.264090 5.779783 -3.661888 0
M  V30 26 C 0.610817 6.083137 -2.526186 0
M  V30 27 C -0.494455 6.633308 -1.687883 0
M  V30 28 N -0.179381 7.094131 -0.425203 0
M  V30 29 C 1.136834 6.902662 -0.298049 0
M  V30 30 N 1.384008 6.371527 -1.478375 0
M  V30 31 N 0.082262 3.412946 -3.453066 0
M  V30 32 C -0.213544 2.296595 -2.578636 0
M  V30 33 O -1.280039 2.372534 -1.916686 0
M  V30 34 C 0.477387 1.036628 -2.281902 0 CFG=2
M  V30 35 C 0.622961 0.646547 -0.865042 0
M  V30 36 C -0.644247 0.484255 -0.102132 0
M  V30 37 C -0.233982 0.030198 1.316012 0
M  V30 38 C -1.627863 -0.486410 -0.625457 0
M  V30 39 N 1.731883 1.023507 -3.002793 0
M  V30 40 C 2.183471 0.096978 -3.963530 0
M  V30 41 O 1.443270 -0.858247 -4.275525 0
M  V30 42 C 3.465708 0.145453 -4.650710 0 CFG=2
M  V30 43 C 3.518376 -0.648762 -5.935731 0
M  V30 44 C 5.026361 -0.543229 -6.226552 0
M  V30 45 C 5.679210 -0.504334 -4.865127 0
M  V30 46 N 4.591004 -0.303062 -3.893687 0
M  V30 47 C 4.682528 -0.519808 -2.471540 0
M  V30 48 O 3.676287 -0.319151 -1.759714 0
M  V30 49 C 6.029980 -0.987212 -1.943296 0 CFG=2
M  V30 50 C 6.142537 -2.452936 -2.258924 0
M  V30 51 C 6.022119 -3.111214 -0.911669 0
M  V30 52 C 6.796278 -2.081128 -0.068875 0
M  V30 53 N 6.134138 -0.867004 -0.522531 0
M  V30 54 C 5.632518 0.278424 0.107660 0
M  V30 55 O 5.075527 1.290794 -0.394583 0
M  V30 56 C 5.519983 0.784259 1.450282 0 CFG=2
M  V30 57 C 4.647298 -0.133526 2.336210 0
M  V30 58 C 4.759278 0.514350 3.698278 0
M  V30 59 O 5.641246 1.443366 3.689241 0
M  V30 60 O 4.436265 0.684117 5.015237 0
M  V30 61 N 4.759688 2.037609 1.423030 0
M  V30 62 C 3.683864 2.650085 2.018283 0
M  V30 63 O 2.906686 2.246015 2.881245 0
M  V30 64 C 2.943558 3.901451 1.996133 0 CFG=2
M  V30 65 C 3.724554 5.082942 2.472377 0
M  V30 66 C 4.956774 5.382807 1.756168 0
M  V30 67 C 6.073753 4.764398 2.350419 0
M  V30 68 C 7.384177 4.827283 1.929516 0
M  V30 69 C 7.610075 5.598743 0.783197 0
M  V30 70 Cl 9.249043 5.736306 0.163262 0
M  V30 71 C 6.535406 6.229631 0.161408 0
M  V30 72 Cl 6.809262 7.200561 -1.269193 0
M  V30 73 C 5.242527 6.117941 0.648748 0
M  V30 74 N 1.785149 3.798986 2.913909 0
M  V30 75 C 0.421823 3.651019 2.615738 0
M  V30 76 O 0.088717 3.588168 1.383112 0
M  V30 77 C -0.756556 3.546207 3.463271 0 CFG=1
M  V30 78 N -1.978022 3.341081 2.658496 0
M  V30 79 C -3.024477 4.260692 2.408099 0
M  V30 80 O -3.214419 5.449245 2.754453 0
M  V30 81 C -4.197979 3.922600 1.600551 0 CFG=2
M  V30 82 C -3.795405 3.537992 0.136149 0
M  V30 83 C -5.068739 3.099692 -0.517325 0
M  V30 84 C -4.879397 2.751279 -1.946367 0
M  V30 85 N -6.017819 2.279207 -2.642087 0
M  V30 86 O -4.159324 2.647796 -2.963793 0
M  V30 87 N -4.966786 5.187445 1.417537 0
M  V30 88 C -5.452801 6.075574 0.451602 0
M  V30 89 C -6.243778 7.263883 0.816039 0
M  V30 90 O -5.319211 6.028205 -0.782960 0
M  V30 91 C -0.738933 2.484066 4.509649 0 CFG=1
M  V30 92 C 0.380424 2.557999 5.494579 0
M  V30 93 O -1.930691 2.656049 5.264142 0
M  V30 94 C -2.269841 -1.844074 -6.659689 0 CFG=1
M  V30 95 C -0.805412 -1.793399 -6.381170 0
M  V30 96 O -2.773302 -3.134685 -6.705349 0
M  V30 97 P -3.397686 -3.334752 -8.275194 0
M  V30 98 O -2.523840 -2.695515 -9.320931 0
M  V30 99 O -4.892249 -2.539441 -8.326890 0
M  V30 100 O -3.552717 -4.959475 -8.694568 0
M  V30 101 C -2.042407 -4.756655 0.462334 0
M  V30 102 O -2.094414 -3.656912 -0.148029 0
M  V30 103 N -2.007237 -5.081469 1.822677 0
M  V30 104 C -2.027783 -4.196227 2.988501 0 CFG=1
M  V30 105 C -3.422286 -4.170931 3.583882 0
M  V30 106 C -3.563058 -3.299540 4.755047 0
M  V30 107 C -3.814793 -1.951737 4.446373 0
M  V30 108 C -3.991737 -0.940123 5.358015 0
M  V30 109 C -3.921237 -1.250367 6.681554 0
M  V30 110 O -4.087899 -0.279859 7.660276 0
M  V30 111 C -3.680068 -2.550045 7.036490 0
M  V30 112 C -3.503527 -3.556684 6.116965 0
M  V30 113 C -1.014358 -4.553185 3.964512 0
M  V30 114 O -1.107167 -3.847452 5.000245 0
M  V30 115 N 0.029278 -5.519079 3.978762 0
M  V30 116 C 0.775828 -5.537201 5.211807 0 CFG=1
M  V30 117 C 1.571879 -6.769864 5.438419 0
M  V30 118 C 1.742584 -4.363534 5.176713 0
M  V30 119 O 1.637661 -3.735727 4.069541 0
M  V30 120 N 2.550248 -4.173765 6.320236 0
M  V30 121 C 3.545760 -3.136618 6.571501 0 CFG=1
M  V30 122 C 3.200717 -2.352311 7.805217 0
M  V30 123 C 4.215996 -1.295838 8.031468 0
M  V30 124 N 3.784779 0.001850 8.380690 0
M  V30 125 O 5.457325 -1.153829 8.007058 0
M  V30 126 C 4.881101 -3.766333 6.708660 0
M  V30 127 N 5.478435 -5.051654 6.657677 0
M  V30 128 O 6.052982 -3.402870 6.928425 0
M  V30 129 H -0.300006 -5.250363 -3.566845 0
M  V30 130 H -1.994736 -5.736604 -3.857374 0
M  V30 131 H -0.716539 -6.712777 -4.592301 0
M  V30 132 H 0.112905 -7.519436 -2.567175 0
M  V30 133 H -1.626568 -7.776023 -2.412195 0
M  V30 134 H 0.107343 -5.570786 -1.180317 0
M  V30 135 H -0.049609 -6.903522 0.800082 0
M  V30 136 H -0.063437 -8.106012 -0.477873 0
M  V30 137 H -1.622880 -7.713396 0.227710 0
M  V30 138 H -2.923223 -6.110733 -0.905631 0
M  V30 139 H -1.830221 -3.770671 -2.589298 0
M  V30 140 H -4.995214 -2.471978 -2.207738 0
M  V30 141 H -5.545772 -4.891131 -3.906829 0
M  V30 142 H -6.549065 -4.158541 -2.522936 0
M  V30 143 H -6.357116 -3.314679 -4.128314 0
M  V30 144 H -3.969072 -3.319267 -4.806029 0
M  V30 145 H -4.069574 -0.780446 -6.519757 0
M  V30 146 H -1.829541 0.781096 -5.180160 0
M  V30 147 H -3.404436 3.666002 -6.322721 0
M  V30 148 H -2.904118 3.324654 -8.630542 0
M  V30 149 H -1.706186 4.439773 -7.895191 0
M  V30 150 H -0.185096 2.756806 -7.863326 0
M  V30 151 H -0.736862 2.514289 -5.294461 0
M  V30 152 H -1.529979 4.405760 -2.496071 0
M  V30 153 H -0.882164 6.575691 -4.052999 0
M  V30 154 H 0.494739 5.638873 -4.552241 0
M  V30 155 H -1.610663 6.875384 -1.595504 0
M  V30 156 H 2.031606 6.988539 0.306884 0
M  V30 157 H 2.296708 6.004039 -1.972624 0
M  V30 158 H 0.977098 3.234592 -3.944901 0
M  V30 159 H -0.148476 0.225744 -2.761925 0
M  V30 160 H 1.117791 -0.364559 -0.856486 0
M  V30 161 H 1.275571 1.316704 -0.265964 0
M  V30 162 H -1.120806 1.485706 0.128123 0
M  V30 163 H 0.631596 -0.670723 1.237557 0
M  V30 164 H 0.067662 0.864857 1.947810 0
M  V30 165 H -1.073643 -0.540946 1.727927 0
M  V30 166 H -1.151197 -1.306744 -1.196151 0
M  V30 167 H -2.142836 -0.947845 0.240052 0
M  V30 168 H -2.396533 -0.066120 -1.295301 0
M  V30 169 H 2.352360 1.850373 -2.741664 0
M  V30 170 H 3.739401 1.198750 -4.971818 0
M  V30 171 H 2.997462 -0.076610 -6.734958 0
M  V30 172 H 3.194246 -1.683546 -5.825801 0
M  V30 173 H 5.338460 -1.390737 -6.839972 0
M  V30 174 H 5.251614 0.387914 -6.804743 0
M  V30 175 H 6.197763 -1.469044 -4.688089 0
M  V30 176 H 6.394129 0.334242 -4.809145 0
M  V30 177 H 6.840150 -0.447717 -2.483803 0
M  V30 178 H 7.109449 -2.696176 -2.750892 0
M  V30 179 H 5.288666 -2.796894 -2.916676 0
M  V30 180 H 6.511582 -4.100343 -0.850803 0
M  V30 181 H 4.970903 -3.133519 -0.581328 0
M  V30 182 H 7.849701 -2.148402 -0.459741 0
M  V30 183 H 6.725083 -2.259948 0.998945 0
M  V30 184 H 6.411132 0.909219 2.018935 0
M  V30 185 H 5.107521 -1.125460 2.440491 0
M  V30 186 H 3.600241 -0.094120 2.051511 0
M  V30 187 H 5.007455 0.161163 5.681771 0
M  V30 188 H 5.133005 2.723506 0.723010 0
M  V30 189 H 2.500330 4.000609 0.986642 0
M  V30 190 H 3.045191 5.982590 2.302735 0
M  V30 191 H 3.859614 5.011641 3.560571 0
M  V30 192 H 6.002588 4.134236 3.252664 0
M  V30 193 H 8.214114 4.338251 2.408528 0
M  V30 194 H 4.383017 6.574626 0.224603 0
M  V30 195 H 1.999652 3.845480 3.930213 0
M  V30 196 H -0.899035 4.547795 3.953803 0
M  V30 197 H -2.138453 2.420250 2.185616 0
M  V30 198 H -4.827878 3.090916 1.872789 0
M  V30 199 H -3.138272 2.682307 0.235317 0
M  V30 200 H -3.311861 4.403397 -0.326874 0
M  V30 201 H -5.965943 3.662530 -0.361350 0
M  V30 202 H -5.288917 2.072768 -0.007088 0
M  V30 203 H -6.464795 1.482304 -3.137005 0
M  V30 204 H -6.979332 2.398641 -3.045849 0
M  V30 205 H -5.207586 5.448942 2.412531 0
M  V30 206 H -7.191761 7.289893 0.206341 0
M  V30 207 H -5.714790 8.215221 0.587642 0
M  V30 208 H -6.535236 7.288486 1.882339 0
M  V30 209 H -0.803927 1.461638 4.096814 0
M  V30 210 H 1.254814 1.949200 5.197033 0
M  V30 211 H 0.024520 2.048903 6.453498 0
M  V30 212 H 0.627006 3.579207 5.829443 0
M  V30 213 H -2.334330 3.549943 5.102437 0
M  V30 214 H -2.370867 -1.487458 -7.746593 0
M  V30 215 H -0.567622 -2.314953 -5.429133 0
M  V30 216 H -0.436396 -0.747413 -6.271661 0
M  V30 217 H -0.215745 -2.214246 -7.233558 0
M  V30 218 H -4.825405 -1.598144 -8.633111 0
M  V30 219 H -4.257943 -5.076103 -9.359682 0
M  V30 220 H -1.968354 -6.104126 1.862749 0
M  V30 221 H -1.881115 -3.158666 2.580617 0
M  V30 222 H -3.683894 -5.207266 3.929040 0
M  V30 223 H -4.109457 -3.816356 2.793164 0
M  V30 224 H -3.890791 -1.593976 3.408468 0
M  V30 225 H -4.188118 0.077160 5.108470 0
M  V30 226 H -3.557690 0.603249 7.619270 0
M  V30 227 H -3.607405 -2.854107 8.084055 0
M  V30 228 H -3.313567 -4.609631 6.331257 0
M  V30 229 H 0.073168 -6.055324 3.099354 0
M  V30 230 H 0.131163 -5.270396 6.086967 0
M  V30 231 H 2.622217 -6.547855 5.767060 0
M  V30 232 H 1.099719 -7.372182 6.254616 0
M  V30 233 H 1.667404 -7.392485 4.515521 0
M  V30 234 H 2.450152 -4.845388 7.111990 0
M  V30 235 H 3.517259 -2.461034 5.692091 0
M  V30 236 H 3.191688 -3.044782 8.696711 0
M  V30 237 H 2.222282 -1.867573 7.689138 0
M  V30 238 H 3.768122 1.039526 8.270794 0
M  V30 239 H 3.593378 1.032585 8.473836 0
M  V30 240 H 5.160630 -5.698576 5.906474 0
M  V30 241 H 5.190988 -5.734721 5.920589 0
M  V30 END ATOM
M  V30 BEGIN BOND
M  V30 1 1 1 2
M  V30 2 1 2 3
M  V30 3 1 3 4
M  V30 4 1 3 5
M  V30 5 1 5 6
M  V30 6 1 6 7
M  V30 7 2 7 8
M  V30 8 1 7 9
M  V30 9 1 9 10
M  V30 10 1 9 11
M  V30 11 1 11 12
M  V30 12 2 12 13
M  V30 13 1 12 14
M  V30 14 1 14 15
M  V30 15 1 15 16
M  V30 16 2 16 17
M  V30 17 1 16 18
M  V30 18 1 18 19
M  V30 19 1 19 20
M  V30 20 1 18 21
M  V30 21 1 21 22
M  V30 22 2 22 23
M  V30 23 1 22 24
M  V30 24 1 24 25
M  V30 25 1 25 26
M  V30 26 2 26 27
M  V30 27 1 27 28
M  V30 28 2 28 29
M  V30 29 1 29 30
M  V30 30 1 24 31
M  V30 31 1 31 32
M  V30 32 2 32 33
M  V30 33 1 32 34
M  V30 34 1 34 35
M  V30 35 1 35 36
M  V30 36 1 36 37
M  V30 37 1 36 38
M  V30 38 1 34 39
M  V30 39 1 39 40
M  V30 40 2 40 41
M  V30 41 1 40 42
M  V30 42 1 42 43
M  V30 43 1 43 44
M  V30 44 1 44 45
M  V30 45 1 45 46
M  V30 46 1 46 47
M  V30 47 2 47 48
M  V30 48 1 47 49
M  V30 49 1 49 50
M  V30 50 1 50 51
M  V30 51 1 51 52
M  V30 52 1 52 53
M  V30 53 1 53 54
M  V30 54 2 54 55
M  V30 55 1 54 56
M  V30 56 1 56 57
M  V30 57 1 57 58
M  V30 58 2 58 59
M  V30 59 1 58 60
M  V30 60 1 56 61
M  V30 61 1 61 62
M  V30 62 2 62 63
M  V30 63 1 62 64
M  V30 64 1 64 65
M  V30 65 1 65 66
M  V30 66 2 66 67
M  V30 67 1 67 68
M  V30 68 2 68 69
M  V30 69 1 69 70
M  V30 70 1 69 71
M  V30 71 1 71 72
M  V30 72 2 71 73
M  V30 73 1 64 74
M  V30 74 1 74 75
M  V30 75 2 75 76
M  V30 76 1 75 77
M  V30 77 1 77 78
M  V30 78 1 78 79
M  V30 79 2 79 80
M  V30 80 1 79 81
M  V30 81 1 81 82
M  V30 82 1 82 83
M  V30 83 1 83 84
M  V30 84 1 84 85
M  V30 85 2 84 86
M  V30 86 1 81 87
M  V30 87 1 87 88
M  V30 88 1 88 89
M  V30 89 2 88 90
M  V30 90 1 77 91
M  V30 91 1 91 92
M  V30 92 1 91 93
M  V30 93 1 14 94
M  V30 94 1 94 95
M  V30 95 1 94 96
M  V30 96 1 96 97
M  V30 97 2 97 98
M  V30 98 1 97 99
M  V30 99 1 97 100
M  V30 100 1 5 101
M  V30 101 2 101 102
M  V30 102 1 101 103
M  V30 103 1 103 104
M  V30 104 1 104 105
M  V30 105 1 105 106
M  V30 106 2 106 107
M  V30 107 1 107 108
M  V30 108 2 108 109
M  V30 109 1 109 110
M  V30 110 1 109 111
M  V30 111 2 111 112
M  V30 112 1 104 113
M  V30 113 2 113 114
M  V30 114 1 113 115
M  V30 115 1 115 116
M  V30 116 1 116 117
M  V30 117 1 116 118
M  V30 118 2 118 119
M  V30 119 1 118 120
M  V30 120 1 120 121
M  V30 121 1 121 122
M  V30 122 1 122 123
M  V30 123 1 123 124
M  V30 124 2 123 125
M  V30 125 1 121 126
M  V30 126 1 126 127
M  V30 127 2 126 128
M  V30 128 1 30 26
M  V30 129 1 46 42
M  V30 130 1 53 49
M  V30 131 1 73 66
M  V30 132 1 112 106
M  V30 133 1 1 129
M  V30 134 1 1 130
M  V30 135 1 1 131
M  V30 136 1 2 132
M  V30 137 1 2 133
M  V30 138 1 3 134 CFG=3
M  V30 139 1 4 135
M  V30 140 1 4 136
M  V30 141 1 4 137
M  V30 142 1 5 138 CFG=1
M  V30 143 1 6 139
M  V30 144 1 9 140 CFG=1
M  V30 145 1 10 141
M  V30 146 1 10 142
M  V30 147 1 10 143
M  V30 148 1 11 144
M  V30 149 1 14 145 CFG=3
M  V30 150 1 15 146
M  V30 151 1 18 147 CFG=1
M  V30 152 1 19 148
M  V30 153 1 19 149
M  V30 154 1 20 150
M  V30 155 1 21 151
M  V30 156 1 24 152 CFG=1
M  V30 157 1 25 153
M  V30 158 1 25 154
M  V30 159 1 27 155
M  V30 160 1 29 156
M  V30 161 1 30 157
M  V30 162 1 31 158
M  V30 163 1 34 159 CFG=3
M  V30 164 1 35 160
M  V30 165 1 35 161
M  V30 166 1 36 162
M  V30 167 1 37 163
M  V30 168 1 37 164
M  V30 169 1 37 165
M  V30 170 1 38 166
M  V30 171 1 38 167
M  V30 172 1 38 168
M  V30 173 1 39 169
M  V30 174 1 42 170 CFG=3
M  V30 175 1 43 171
M  V30 176 1 43 172
M  V30 177 1 44 173
M  V30 178 1 44 174
M  V30 179 1 45 175
M  V30 180 1 45 176
M  V30 181 1 49 177 CFG=3
M  V30 182 1 50 178
M  V30 183 1 50 179
M  V30 184 1 51 180
M  V30 185 1 51 181
M  V30 186 1 52 182
M  V30 187 1 52 183
M  V30 188 1 56 184 CFG=1
M  V30 189 1 57 185
M  V30 190 1 57 186
M  V30 191 1 60 187
M  V30 192 1 61 188
M  V30 193 1 64 189 CFG=3
M  V30 194 1 65 190
M  V30 195 1 65 191
M  V30 196 1 67 192
M  V30 197 1 68 193
M  V30 198 1 73 194
M  V30 199 1 74 195
M  V30 200 1 77 196 CFG=1
M  V30 201 1 78 197
M  V30 202 1 81 198 CFG=1
M  V30 203 1 82 199
M  V30 204 1 82 200
M  V30 205 1 83 201
M  V30 206 1 83 202
M  V30 207 1 85 203
M  V30 208 1 85 204
M  V30 209 1 87 205
M  V30 210 1 89 206
M  V30 211 1 89 207
M  V30 212 1 89 208
M  V30 213 1 91 209 CFG=3
M  V30 214 1 92 210
M  V30 215 1 92 211
M  V30 216 1 92 212
M  V30 217 1 93 213
M  V30 218 1 94 214 CFG=3
M  V30 219 1 95 215
M  V30 220 1 95 216
M  V30 221 1 95 217
M  V30 222 1 99 218
M  V30 223 1 100 219
M  V30 224 1 103 220
M  V30 225 1 104 221 CFG=3
M  V30 226 1 105 222
M  V30 227 1 105 223
M  V30 228 1 107 224
M  V30 229 1 108 225
M  V30 230 1 110 226
M  V30 231 1 111 227
M  V30 232 1 112 228
M  V30 233 1 115 229
M  V30 234 1 116 230 CFG=1
M  V30 235 1 117 231
M  V30 236 1 117 232
M  V30 237 1 117 233
M  V30 238 1 120 234
M  V30 239 1 121 235 CFG=3
M  V30 240 1 122 236
M  V30 241 1 122 237
M  V30 242 1 124 238
M  V30 243 1 124 239
M  V30 244 1 127 240
M  V30 245 1 127 241
M  V30 END BOND
M  V30 END CTAB
M  END
>  <Dataset>  (479) 
ChEMBL_Kinases

>  <Ligand_Instance>  (479) 
nan

>  <PDB_ID>  (479) 
nan

>  <Standardized_SMILES>  (479) 
CC[C@H](C)[C@H](NC(=O)[C@H](C)NC(=O)[C@@H](NC(=O)[C@H](CO)NC(=O)[C@H](Cc1cnc[nH]1)NC(=O)[C@H](CC(C)C)NC(=O)[C@@H]1CCCN1C(=O)[C@@H]1CCCN1C(=O)[C@H](CC(=O)O)NC(=O)[C@H](Cc1ccc(Cl)c(Cl)c1)NC(=O)[C@@H](NC(=O)[C@H](CCC(N)=O)NC(C)=O)[C@@H](C)O)[C@@H](C)OP(=O)(O)O)C(=O)N[C@@H](Cc1ccc(O)cc1)C(=O)N[C@@H](C)C(=O)N[C@@H](CC(N)=O)C(N)=O

>  <Name>  (479) 
nan

>  <Pocket>  (479) 
nan

>  <ATP_Site>  (479) 
nan

>  <Peripheral>  (479) 
nan

>  <Num_H_Atoms_ProtBoundConf>  (479) 
nan

>  <Num_Resolved_Atoms>  (479) 
nan

>  <Num_Not_Resolved_Atoms>  (479) 
nan

$$$$
CHEMBL4127557
     RDKit          3D

  0  0  0  0  0  0  0  0  0  0999 V3000
M  V30 BEGIN CTAB
M  V30 COUNTS 62 66 0 0 0
M  V30 BEGIN ATOM
M  V30 1 C 3.815304 -0.538824 2.107961 0
M  V30 2 C 3.332237 -0.507317 0.673323 0
M  V30 3 C 2.469927 -1.754592 0.481897 0
M  V30 4 O 2.541030 0.606278 0.392565 0
M  V30 5 C 2.739695 1.530973 -0.598047 0
M  V30 6 C 3.729915 1.617803 -1.551283 0
M  V30 7 C 3.742364 2.650794 -2.472352 0
M  V30 8 C 2.763049 3.646051 -2.481877 0
M  V30 9 C 1.773155 3.553222 -1.523500 0
M  V30 10 C 1.749239 2.516662 -0.589262 0
M  V30 11 C 0.607676 2.628883 0.321982 0
M  V30 12 C 0.297350 3.858087 0.877865 0
M  V30 13 N -0.721677 4.076037 1.721356 0
M  V30 14 C -1.537838 3.045691 2.087285 0
M  V30 15 N -2.606142 3.001476 2.902630 0
M  V30 16 C -3.019987 1.722449 2.893923 0
M  V30 17 C -2.206784 0.943005 2.064154 0
M  V30 18 C -2.384202 -0.483615 1.832615 0
M  V30 19 C -2.608371 -1.199401 2.981587 0
M  V30 20 C -2.796749 -2.548265 2.932841 0
M  V30 21 C -2.749594 -3.126984 1.702351 0
M  V30 22 C -2.966227 -4.549816 1.532671 0
M  V30 23 N -3.150106 -5.271652 2.772486 0
M  V30 24 O -3.114418 -5.668127 1.013505 0
M  V30 25 C -2.533551 -2.525957 0.487889 0
M  V30 26 C -2.381137 -2.865933 -0.878512 0
M  V30 27 C -0.953432 -2.446636 -1.345489 0
M  V30 28 C -0.192079 -3.714747 -0.932874 0
M  V30 29 C -1.113386 -4.847562 -1.342851 0
M  V30 30 C -2.427652 -4.165031 -1.491380 0
M  V30 31 C -2.348473 -1.128123 0.626806 0
M  V30 32 C -1.265916 1.820370 1.561901 0
M  V30 33 C -0.219207 1.583440 0.692113 0
M  V30 34 H 3.022049 -0.865802 2.799999 0
M  V30 35 H 4.173473 0.453967 2.458465 0
M  V30 36 H 4.624897 -1.297596 2.167555 0
M  V30 37 H 4.185849 -0.564084 -0.034053 0
M  V30 38 H 1.814810 -1.620519 -0.404105 0
M  V30 39 H 3.074624 -2.658770 0.414631 0
M  V30 40 H 1.787373 -1.883110 1.352054 0
M  V30 41 H 4.447258 0.832792 -1.494472 0
M  V30 42 H 4.543405 2.677756 -3.205438 0
M  V30 43 H 2.825027 4.426344 -3.223702 0
M  V30 44 H 1.049683 4.349066 -1.583222 0
M  V30 45 H 0.867342 4.742835 0.665728 0
M  V30 46 H -3.039501 3.789301 3.440242 0
M  V30 47 H -3.862356 1.360659 3.452369 0
M  V30 48 H -2.650531 -0.765205 3.970010 0
M  V30 49 H -2.973469 -3.136538 3.810246 0
M  V30 50 H -2.450647 -5.798760 3.380829 0
M  V30 51 H -4.078314 -5.369176 3.288442 0
M  V30 52 H -3.028478 -2.162027 -1.507314 0
M  V30 53 H -0.558662 -1.627027 -0.759720 0
M  V30 54 H -0.943639 -2.359089 -2.429722 0
M  V30 55 H 0.015116 -3.694694 0.144425 0
M  V30 56 H 0.764325 -3.702421 -1.483044 0
M  V30 57 H -1.051543 -5.709709 -0.693673 0
M  V30 58 H -0.687297 -5.203536 -2.331211 0
M  V30 59 H -3.329170 -4.793476 -1.447645 0
M  V30 60 H -2.440977 -3.930648 -2.630724 0
M  V30 61 H -2.157535 -0.380623 -0.166101 0
M  V30 62 H -0.008305 0.609213 0.278582 0
M  V30 END ATOM
M  V30 BEGIN BOND
M  V30 1 1 1 2
M  V30 2 1 2 3
M  V30 3 1 2 4
M  V30 4 1 4 5
M  V30 5 2 5 6
M  V30 6 1 6 7
M  V30 7 2 7 8
M  V30 8 1 8 9
M  V30 9 2 9 10
M  V30 10 1 10 11
M  V30 11 2 11 12
M  V30 12 1 12 13
M  V30 13 2 13 14
M  V30 14 1 14 15
M  V30 15 1 15 16
M  V30 16 2 16 17
M  V30 17 1 17 18
M  V30 18 2 18 19
M  V30 19 1 19 20
M  V30 20 2 20 21
M  V30 21 1 21 22
M  V30 22 1 22 23
M  V30 23 2 22 24
M  V30 24 1 21 25
M  V30 25 1 25 26
M  V30 26 1 26 27
M  V30 27 1 27 28
M  V30 28 1 28 29
M  V30 29 1 29 30
M  V30 30 2 25 31
M  V30 31 1 17 32
M  V30 32 2 32 33
M  V30 33 1 10 5
M  V30 34 1 33 11
M  V30 35 1 32 14
M  V30 36 1 31 18
M  V30 37 1 30 26
M  V30 38 1 1 34
M  V30 39 1 1 35
M  V30 40 1 1 36
M  V30 41 1 2 37
M  V30 42 1 3 38
M  V30 43 1 3 39
M  V30 44 1 3 40
M  V30 45 1 6 41
M  V30 46 1 7 42
M  V30 47 1 8 43
M  V30 48 1 9 44
M  V30 49 1 12 45
M  V30 50 1 15 46
M  V30 51 1 16 47
M  V30 52 1 19 48
M  V30 53 1 20 49
M  V30 54 1 23 50
M  V30 55 1 23 51
M  V30 56 1 26 52
M  V30 57 1 27 53
M  V30 58 1 27 54
M  V30 59 1 28 55
M  V30 60 1 28 56
M  V30 61 1 29 57
M  V30 62 1 29 58
M  V30 63 1 30 59
M  V30 64 1 30 60
M  V30 65 1 31 61
M  V30 66 1 33 62
M  V30 END BOND
M  V30 END CTAB
M  END
>  <Dataset>  (480) 
ChEMBL_Kinases

>  <Ligand_Instance>  (480) 
nan

>  <PDB_ID>  (480) 
nan

>  <Standardized_SMILES>  (480) 
CC(C)Oc1ccccc1-c1cnc2[nH]cc(-c3ccc(C(N)=O)c(C4CCCC4)c3)c2c1

>  <Name>  (480) 
nan

>  <Pocket>  (480) 
nan

>  <ATP_Site>  (480) 
nan

>  <Peripheral>  (480) 
nan

>  <Num_H_Atoms_ProtBoundConf>  (480) 
nan

>  <Num_Resolved_Atoms>  (480) 
nan

>  <Num_Not_Resolved_Atoms>  (480) 
nan

$$$$
CHEMBL4127365
     RDKit          3D

  0  0  0  0  0  0  0  0  0  0999 V3000
M  V30 BEGIN CTAB
M  V30 COUNTS 210 214 0 0 0
M  V30 BEGIN ATOM
M  V30 1 C 4.786946 -2.206762 -0.631028 0
M  V30 2 C 3.330610 -2.184198 -1.047967 0
M  V30 3 C 3.143387 -1.511651 -2.389729 0 CFG=2
M  V30 4 C 3.953765 -2.288992 -3.405078 0
M  V30 5 C 3.336369 -0.081785 -2.483256 0 CFG=2
M  V30 6 N 4.615288 0.474892 -2.105714 0
M  V30 7 C 4.768895 1.089357 -0.862703 0
M  V30 8 O 4.122644 1.345384 0.171856 0
M  V30 9 C 5.760364 1.814986 0.006421 0 CFG=2
M  V30 10 C 6.970271 0.947218 0.148240 0
M  V30 11 N 5.133450 2.056112 1.291075 0
M  V30 12 C 4.622198 3.255195 1.854243 0
M  V30 13 O 4.829103 4.146360 0.961751 0
M  V30 14 C 4.001937 3.243096 3.230247 0 CFG=1
M  V30 15 N 4.103314 2.016564 3.921080 0
M  V30 16 C 3.052067 1.062296 4.116051 0
M  V30 17 O 2.070985 1.584953 3.538150 0
M  V30 18 C 3.474239 -0.121317 4.876302 0 CFG=2
M  V30 19 C 4.563199 -0.786676 3.971693 0
M  V30 20 O 4.016262 -1.156239 2.772912 0
M  V30 21 N 2.467510 -1.145190 5.013884 0
M  V30 22 C 2.139298 -2.118538 5.940516 0
M  V30 23 O 2.929901 -2.130471 6.947783 0
M  V30 24 C 1.092880 -3.138373 6.010360 0 CFG=2
M  V30 25 C 1.867117 -4.439990 5.655021 0
M  V30 26 C 0.993481 -5.627112 5.673383 0
M  V30 27 C 0.763307 -6.440665 6.790884 0
M  V30 28 N -0.088016 -7.465460 6.498915 0
M  V30 29 C -0.396498 -7.293250 5.182847 0
M  V30 30 N 0.254246 -6.198957 4.711428 0
M  V30 31 N 0.061814 -2.909267 5.067730 0
M  V30 32 C -1.325428 -3.326968 4.955181 0
M  V30 33 O -1.737472 -4.072182 5.848627 0
M  V30 34 C -1.992931 -2.765775 3.750439 0 CFG=2
M  V30 35 C -2.737157 -1.530754 4.295595 0
M  V30 36 C -1.898189 -0.516582 4.962616 0
M  V30 37 C -2.856008 0.601083 5.430270 0
M  V30 38 C -0.878944 0.179486 4.104170 0
M  V30 39 N -3.103063 -3.583699 3.271355 0
M  V30 40 C -3.051569 -4.204051 1.974036 0
M  V30 41 O -2.007864 -4.042661 1.267476 0
M  V30 42 C -4.192748 -5.004561 1.490591 0 CFG=2
M  V30 43 C -4.640858 -5.935982 2.582125 0
M  V30 44 C -3.987017 -7.233271 2.220162 0
M  V30 45 C -3.891212 -7.179834 0.731718 0
M  V30 46 N -3.936388 -5.794553 0.314816 0
M  V30 47 C -3.804714 -5.331110 -1.018838 0
M  V30 48 O -3.759598 -4.093735 -1.236057 0
M  V30 49 C -3.715268 -6.113310 -2.225275 0 CFG=2
M  V30 50 C -3.028756 -7.433124 -2.179688 0
M  V30 51 C -2.981213 -7.763374 -3.684279 0
M  V30 52 C -3.538325 -6.522136 -4.348359 0
M  V30 53 N -3.101170 -5.493659 -3.377941 0
M  V30 54 C -2.287854 -4.310568 -3.534736 0
M  V30 55 O -1.857477 -3.293209 -2.902690 0
M  V30 56 C -1.663764 -4.068992 -4.841195 0 CFG=2
M  V30 57 C -0.511419 -5.118937 -4.922832 0
M  V30 58 C 0.463016 -4.940752 -3.845694 0
M  V30 59 O 0.659566 -4.153899 -2.855363 0
M  V30 60 O 1.503429 -5.865699 -3.842905 0
M  V30 61 N -1.024519 -2.769422 -4.969123 0
M  V30 62 C -0.830690 -2.343448 -6.319992 0
M  V30 63 O -1.198675 -3.063013 -7.297758 0
M  V30 64 C -0.173116 -1.024045 -6.531997 0 CFG=2
M  V30 65 C -1.234418 0.041659 -6.200702 0
M  V30 66 C -2.393156 -0.079487 -7.102355 0
M  V30 67 C -3.569300 -0.787303 -7.027412 0
M  V30 68 C -4.491879 -0.714434 -8.036572 0
M  V30 69 C -4.315691 0.051621 -9.171256 0
M  V30 70 C -3.140109 0.765240 -9.257374 0
M  V30 71 C -2.204131 0.703135 -8.252660 0
M  V30 72 N 0.159698 -0.841310 -7.943593 0
M  V30 73 C 1.543930 -0.604530 -8.188340 0
M  V30 74 C 2.281383 -0.377045 -9.442404 0
M  V30 75 O 2.345960 -0.567494 -7.214771 0
M  V30 76 C 4.437639 4.485748 3.934276 0 CFG=1
M  V30 77 C 4.068207 5.648415 2.979081 0
M  V30 78 O 3.715856 4.742535 5.085497 0
M  V30 79 P 4.782620 5.344551 6.251827 0
M  V30 80 O 6.230530 5.059152 5.923842 0
M  V30 81 O 4.647346 7.027920 6.391321 0
M  V30 82 O 4.457637 4.682715 7.774480 0
M  V30 83 C 2.246983 0.850575 -2.119711 0
M  V30 84 O 2.506538 1.995914 -1.602312 0
M  V30 85 N 0.849227 0.634648 -2.283394 0
M  V30 86 C -0.016750 1.745633 -1.857547 0 CFG=1
M  V30 87 C -0.256770 2.434869 -3.221886 0
M  V30 88 C -1.098171 3.599028 -3.223246 0
M  V30 89 C -0.644450 4.880363 -3.021387 0
M  V30 90 C -1.572925 5.925346 -3.119608 0
M  V30 91 C -2.899885 5.689792 -3.407568 0
M  V30 92 O -3.816495 6.737472 -3.509765 0
M  V30 93 C -3.345960 4.403918 -3.604605 0
M  V30 94 C -2.449548 3.349149 -3.514617 0
M  V30 95 C -1.289706 1.340490 -1.284678 0
M  V30 96 O -1.935036 0.283121 -1.295150 0
M  V30 97 N -1.965340 2.374362 -0.525261 0
M  V30 98 C -3.244196 2.011881 0.060039 0 CFG=1
M  V30 99 C -2.935529 1.041201 1.252552 0
M  V30 100 C -3.988351 3.098073 0.674202 0
M  V30 101 O -5.106054 2.614694 1.003839 0
M  V30 102 N -3.518904 4.433216 0.861695 0
M  V30 103 C -4.285133 5.488313 1.503857 0 CFG=1
M  V30 104 C -3.704324 5.828895 2.867560 0
M  V30 105 C -3.711633 4.632072 3.755522 0
M  V30 106 N -3.116375 4.953973 5.015421 0
M  V30 107 O -3.994790 3.431359 3.951459 0
M  V30 108 C -4.265467 6.697972 0.663059 0
M  V30 109 N -4.888241 7.941518 0.959050 0
M  V30 110 O -3.726344 6.912772 -0.450566 0
M  V30 111 H 4.960190 -1.578234 0.263327 0
M  V30 112 H 5.169321 -3.218146 -0.387646 0
M  V30 113 H 5.459998 -1.821823 -1.429286 0
M  V30 114 H 3.030985 -3.241560 -1.191384 0
M  V30 115 H 2.650926 -1.803182 -0.261946 0
M  V30 116 H 2.079985 -1.753918 -2.660998 0
M  V30 117 H 3.403192 -2.379652 -4.355745 0
M  V30 118 H 4.994522 -1.912247 -3.519448 0
M  V30 119 H 4.100797 -3.358421 -3.068072 0
M  V30 120 H 3.364328 0.129134 -3.638184 0
M  V30 121 H 5.565207 0.570545 -2.523523 0
M  V30 122 H 5.973974 2.821651 -0.459125 0
M  V30 123 H 6.840382 0.345483 1.067851 0
M  V30 124 H 7.046050 0.297467 -0.768357 0
M  V30 125 H 7.847921 1.626714 0.212979 0
M  V30 126 H 5.096502 1.134654 1.816300 0
M  V30 127 H 2.899070 3.473550 2.956376 0
M  V30 128 H 5.107796 1.932251 4.273692 0
M  V30 129 H 3.942425 0.119980 5.843246 0
M  V30 130 H 4.939204 -1.699652 4.473905 0
M  V30 131 H 5.379419 -0.067295 3.949293 0
M  V30 132 H 3.260283 -0.549331 2.574865 0
M  V30 133 H 1.867634 -1.099532 4.166986 0
M  V30 134 H 0.772080 -3.337948 7.040658 0
M  V30 135 H 2.449601 -4.325271 4.737960 0
M  V30 136 H 2.597119 -4.539776 6.486387 0
M  V30 137 H 1.223807 -6.256168 7.774183 0
M  V30 138 H -1.055033 -7.921647 4.598610 0
M  V30 139 H 0.217727 -5.814313 3.730943 0
M  V30 140 H 0.414507 -2.332742 4.275780 0
M  V30 141 H -1.359692 -2.508651 2.936078 0
M  V30 142 H -3.258822 -1.009716 3.443777 0
M  V30 143 H -3.576072 -1.864757 4.950618 0
M  V30 144 H -1.350956 -0.925470 5.858720 0
M  V30 145 H -2.399852 1.586572 5.308882 0
M  V30 146 H -3.755680 0.555110 4.789715 0
M  V30 147 H -3.177356 0.402012 6.476602 0
M  V30 148 H 0.063122 0.314991 4.727035 0
M  V30 149 H -0.695681 -0.372094 3.185233 0
M  V30 150 H -1.168272 1.247957 3.892450 0
M  V30 151 H -3.949021 -3.704065 3.906341 0
M  V30 152 H -5.025433 -4.253663 1.267210 0
M  V30 153 H -4.264756 -5.670974 3.594520 0
M  V30 154 H -5.748991 -6.074792 2.587776 0
M  V30 155 H -4.627865 -8.107747 2.490639 0
M  V30 156 H -2.977691 -7.324596 2.676240 0
M  V30 157 H -4.808159 -7.643071 0.312047 0
M  V30 158 H -2.945192 -7.675865 0.372483 0
M  V30 159 H -4.812953 -6.300717 -2.531216 0
M  V30 160 H -2.014835 -7.341516 -1.786300 0
M  V30 161 H -3.639365 -8.255848 -1.747886 0
M  V30 162 H -3.676994 -8.595497 -3.924926 0
M  V30 163 H -1.996404 -8.063976 -4.018481 0
M  V30 164 H -3.185459 -6.378780 -5.348920 0
M  V30 165 H -4.662706 -6.512826 -4.276503 0
M  V30 166 H -2.234601 -4.275064 -5.742038 0
M  V30 167 H 0.013734 -5.021348 -5.901933 0
M  V30 168 H -0.918253 -6.141432 -4.876808 0
M  V30 169 H 1.966000 -6.175934 -2.979510 0
M  V30 170 H -0.710757 -2.148798 -4.185824 0
M  V30 171 H 0.667977 -0.927549 -5.873787 0
M  V30 172 H -0.793979 1.043514 -6.197792 0
M  V30 173 H -1.599519 -0.227725 -5.173284 0
M  V30 174 H -3.626561 -1.359956 -6.112232 0
M  V30 175 H -5.403213 -1.303211 -7.917886 0
M  V30 176 H -5.064945 0.080996 -9.948127 0
M  V30 177 H -3.022749 1.353278 -10.151548 0
M  V30 178 H -1.318748 1.328825 -8.464848 0
M  V30 179 H -0.393398 -0.852744 -8.799053 0
M  V30 180 H 2.944700 0.513039 -9.328379 0
M  V30 181 H 2.970469 -1.234405 -9.561710 0
M  V30 182 H 1.612530 -0.209215 -10.319799 0
M  V30 183 H 5.517109 4.601706 4.092612 0
M  V30 184 H 4.948049 5.980683 2.398642 0
M  V30 185 H 3.289107 5.340174 2.254516 0
M  V30 186 H 3.697397 6.521076 3.521243 0
M  V30 187 H 3.805808 7.381448 5.978904 0
M  V30 188 H 4.735334 5.345105 8.445053 0
M  V30 189 H 0.615778 -0.287205 -2.681092 0
M  V30 190 H 0.471660 2.495902 -1.255330 0
M  V30 191 H -0.673409 1.599500 -3.844868 0
M  V30 192 H 0.780699 2.622001 -3.598763 0
M  V30 193 H 0.408516 5.052574 -2.797134 0
M  V30 194 H -1.215514 6.914281 -2.963954 0
M  V30 195 H -4.777837 6.607550 -3.715123 0
M  V30 196 H -4.407377 4.214053 -3.835271 0
M  V30 197 H -2.872275 2.368673 -3.685358 0
M  V30 198 H -1.521537 3.323104 -0.428037 0
M  V30 199 H -3.753628 1.337932 -0.638812 0
M  V30 200 H -3.709861 1.173563 2.027316 0
M  V30 201 H -1.968349 1.334890 1.684800 0
M  V30 202 H -2.928493 0.003101 0.933570 0
M  V30 203 H -2.574142 4.706750 0.531041 0
M  V30 204 H -5.298131 5.102757 1.710606 0
M  V30 205 H -4.445856 6.526884 3.327146 0
M  V30 206 H -2.743369 6.327763 2.843376 0
M  V30 207 H -2.375513 4.736699 5.712838 0
M  V30 208 H -3.285211 5.651547 5.757738 0
M  V30 209 H -4.298649 8.390565 1.706897 0
M  V30 210 H -4.185111 8.230907 1.695721 0
M  V30 END ATOM
M  V30 BEGIN BOND
M  V30 1 1 1 2
M  V30 2 1 2 3
M  V30 3 1 3 4
M  V30 4 1 3 5
M  V30 5 1 5 6
M  V30 6 1 6 7
M  V30 7 2 7 8
M  V30 8 1 7 9
M  V30 9 1 9 10
M  V30 10 1 9 11
M  V30 11 1 11 12
M  V30 12 2 12 13
M  V30 13 1 12 14
M  V30 14 1 14 15
M  V30 15 1 15 16
M  V30 16 2 16 17
M  V30 17 1 16 18
M  V30 18 1 18 19
M  V30 19 1 19 20
M  V30 20 1 18 21
M  V30 21 1 21 22
M  V30 22 2 22 23
M  V30 23 1 22 24
M  V30 24 1 24 25
M  V30 25 1 25 26
M  V30 26 2 26 27
M  V30 27 1 27 28
M  V30 28 2 28 29
M  V30 29 1 29 30
M  V30 30 1 24 31
M  V30 31 1 31 32
M  V30 32 2 32 33
M  V30 33 1 32 34
M  V30 34 1 34 35
M  V30 35 1 35 36
M  V30 36 1 36 37
M  V30 37 1 36 38
M  V30 38 1 34 39
M  V30 39 1 39 40
M  V30 40 2 40 41
M  V30 41 1 40 42
M  V30 42 1 42 43
M  V30 43 1 43 44
M  V30 44 1 44 45
M  V30 45 1 45 46
M  V30 46 1 46 47
M  V30 47 2 47 48
M  V30 48 1 47 49
M  V30 49 1 49 50
M  V30 50 1 50 51
M  V30 51 1 51 52
M  V30 52 1 52 53
M  V30 53 1 53 54
M  V30 54 2 54 55
M  V30 55 1 54 56
M  V30 56 1 56 57
M  V30 57 1 57 58
M  V30 58 2 58 59
M  V30 59 1 58 60
M  V30 60 1 56 61
M  V30 61 1 61 62
M  V30 62 2 62 63
M  V30 63 1 62 64
M  V30 64 1 64 65
M  V30 65 1 65 66
M  V30 66 2 66 67
M  V30 67 1 67 68
M  V30 68 2 68 69
M  V30 69 1 69 70
M  V30 70 2 70 71
M  V30 71 1 64 72
M  V30 72 1 72 73
M  V30 73 1 73 74
M  V30 74 2 73 75
M  V30 75 1 14 76
M  V30 76 1 76 77
M  V30 77 1 76 78
M  V30 78 1 78 79
M  V30 79 2 79 80
M  V30 80 1 79 81
M  V30 81 1 79 82
M  V30 82 1 5 83
M  V30 83 2 83 84
M  V30 84 1 83 85
M  V30 85 1 85 86
M  V30 86 1 86 87
M  V30 87 1 87 88
M  V30 88 2 88 89
M  V30 89 1 89 90
M  V30 90 2 90 91
M  V30 91 1 91 92
M  V30 92 1 91 93
M  V30 93 2 93 94
M  V30 94 1 86 95
M  V30 95 2 95 96
M  V30 96 1 95 97
M  V30 97 1 97 98
M  V30 98 1 98 99
M  V30 99 1 98 100
M  V30 100 2 100 101
M  V30 101 1 100 102
M  V30 102 1 102 103
M  V30 103 1 103 104
M  V30 104 1 104 105
M  V30 105 1 105 106
M  V30 106 2 105 107
M  V30 107 1 103 108
M  V30 108 1 108 109
M  V30 109 2 108 110
M  V30 110 1 30 26
M  V30 111 1 46 42
M  V30 112 1 53 49
M  V30 113 1 71 66
M  V30 114 1 94 88
M  V30 115 1 1 111
M  V30 116 1 1 112
M  V30 117 1 1 113
M  V30 118 1 2 114
M  V30 119 1 2 115
M  V30 120 1 3 116 CFG=3
M  V30 121 1 4 117
M  V30 122 1 4 118
M  V30 123 1 4 119
M  V30 124 1 5 120 CFG=3
M  V30 125 1 6 121
M  V30 126 1 9 122 CFG=3
M  V30 127 1 10 123
M  V30 128 1 10 124
M  V30 129 1 10 125
M  V30 130 1 11 126
M  V30 131 1 14 127 CFG=3
M  V30 132 1 15 128
M  V30 133 1 18 129 CFG=1
M  V30 134 1 19 130
M  V30 135 1 19 131
M  V30 136 1 20 132
M  V30 137 1 21 133
M  V30 138 1 24 134 CFG=1
M  V30 139 1 25 135
M  V30 140 1 25 136
M  V30 141 1 27 137
M  V30 142 1 29 138
M  V30 143 1 30 139
M  V30 144 1 31 140
M  V30 145 1 34 141 CFG=3
M  V30 146 1 35 142
M  V30 147 1 35 143
M  V30 148 1 36 144
M  V30 149 1 37 145
M  V30 150 1 37 146
M  V30 151 1 37 147
M  V30 152 1 38 148
M  V30 153 1 38 149
M  V30 154 1 38 150
M  V30 155 1 39 151
M  V30 156 1 42 152 CFG=3
M  V30 157 1 43 153
M  V30 158 1 43 154
M  V30 159 1 44 155
M  V30 160 1 44 156
M  V30 161 1 45 157
M  V30 162 1 45 158
M  V30 163 1 49 159 CFG=3
M  V30 164 1 50 160
M  V30 165 1 50 161
M  V30 166 1 51 162
M  V30 167 1 51 163
M  V30 168 1 52 164
M  V30 169 1 52 165
M  V30 170 1 56 166 CFG=3
M  V30 171 1 57 167
M  V30 172 1 57 168
M  V30 173 1 60 169
M  V30 174 1 61 170
M  V30 175 1 64 171 CFG=1
M  V30 176 1 65 172
M  V30 177 1 65 173
M  V30 178 1 67 174
M  V30 179 1 68 175
M  V30 180 1 69 176
M  V30 181 1 70 177
M  V30 182 1 71 178
M  V30 183 1 72 179
M  V30 184 1 74 180
M  V30 185 1 74 181
M  V30 186 1 74 182
M  V30 187 1 76 183 CFG=1
M  V30 188 1 77 184
M  V30 189 1 77 185
M  V30 190 1 77 186
M  V30 191 1 81 187
M  V30 192 1 82 188
M  V30 193 1 85 189
M  V30 194 1 86 190 CFG=1
M  V30 195 1 87 191
M  V30 196 1 87 192
M  V30 197 1 89 193
M  V30 198 1 90 194
M  V30 199 1 92 195
M  V30 200 1 93 196
M  V30 201 1 94 197
M  V30 202 1 97 198
M  V30 203 1 98 199 CFG=3
M  V30 204 1 99 200
M  V30 205 1 99 201
M  V30 206 1 99 202
M  V30 207 1 102 203
M  V30 208 1 103 204 CFG=1
M  V30 209 1 104 205
M  V30 210 1 104 206
M  V30 211 1 106 207
M  V30 212 1 106 208
M  V30 213 1 109 209
M  V30 214 1 109 210
M  V30 END BOND
M  V30 END CTAB
M  END
>  <Dataset>  (481) 
ChEMBL_Kinases

>  <Ligand_Instance>  (481) 
nan

>  <PDB_ID>  (481) 
nan

>  <Standardized_SMILES>  (481) 
CC[C@H](C)[C@H](NC(=O)[C@H](C)NC(=O)[C@@H](NC(=O)[C@H](CO)NC(=O)[C@H](Cc1cnc[nH]1)NC(=O)[C@H](CC(C)C)NC(=O)[C@@H]1CCCN1C(=O)[C@@H]1CCCN1C(=O)[C@H](CC(=O)O)NC(=O)[C@H](Cc1ccccc1)NC(C)=O)[C@@H](C)OP(=O)(O)O)C(=O)N[C@@H](Cc1ccc(O)cc1)C(=O)N[C@@H](C)C(=O)N[C@@H](CC(N)=O)C(N)=O

>  <Name>  (481) 
nan

>  <Pocket>  (481) 
nan

>  <ATP_Site>  (481) 
nan

>  <Peripheral>  (481) 
nan

>  <Num_H_Atoms_ProtBoundConf>  (481) 
nan

>  <Num_Resolved_Atoms>  (481) 
nan

>  <Num_Not_Resolved_Atoms>  (481) 
nan

$$$$
CHEMBL4128483
     RDKit          3D

  0  0  0  0  0  0  0  0  0  0999 V3000
M  V30 BEGIN CTAB
M  V30 COUNTS 41 44 0 0 0
M  V30 BEGIN ATOM
M  V30 1 C -1.409983 3.028783 -2.241302 0
M  V30 2 C -1.707683 2.431867 -0.908584 0
M  V30 3 C -1.749678 1.057340 -0.766715 0
M  V30 4 C -2.022921 0.467882 0.453267 0
M  V30 5 C -2.088617 -0.971924 0.705022 0
M  V30 6 C -3.127778 -1.519762 1.452953 0
M  V30 7 N -2.924623 -2.853262 1.515643 0
M  V30 8 C -1.807891 -3.187531 0.845675 0
M  V30 9 N -1.120221 -4.326640 0.568630 0
M  V30 10 C 0.015485 -4.332223 -0.161042 0
M  V30 11 C 0.554671 -3.150269 -0.679162 0
M  V30 12 C 1.783797 -3.141775 -1.470627 0
M  V30 13 C 2.660960 -2.080946 -1.471370 0
M  V30 14 C 3.832823 -2.014419 -2.195093 0
M  V30 15 C 4.160083 -3.106486 -2.991415 0
M  V30 16 C 3.310021 -4.214450 -3.033395 0
M  V30 17 C 2.162062 -4.209939 -2.287213 0
M  V30 18 C -0.106735 -1.950746 -0.427789 0
M  V30 19 C -1.265718 -2.034346 0.329739 0
M  V30 20 C -2.255742 1.321603 1.540120 0
M  V30 21 C -2.211528 2.693507 1.387859 0
M  V30 22 C -1.937333 3.268960 0.163527 0
M  V30 23 C -1.898655 4.721595 0.044539 0
M  V30 24 O -1.656260 5.312819 -1.032871 0
M  V30 25 O -2.135036 5.518983 1.149068 0
M  V30 26 H -0.475816 3.617551 -2.124207 0
M  V30 27 H -2.225984 3.682455 -2.605436 0
M  V30 28 H -1.268074 2.206013 -2.988427 0
M  V30 29 H -1.571030 0.386555 -1.602846 0
M  V30 30 H -3.982537 -1.043684 1.933826 0
M  V30 31 H -3.516534 -3.580379 2.001783 0
M  V30 32 H 0.520471 -5.275534 -0.348919 0
M  V30 33 H 2.436062 -1.217861 -0.863819 0
M  V30 34 H 4.474562 -1.133195 -2.139013 0
M  V30 35 H 5.074756 -3.076407 -3.568294 0
M  V30 36 H 3.575131 -5.076248 -3.666559 0
M  V30 37 H 1.495317 -5.071474 -2.316009 0
M  V30 38 H 0.267327 -1.016660 -0.803822 0
M  V30 39 H -2.470528 0.882536 2.500457 0
M  V30 40 H -2.394095 3.360235 2.240926 0
M  V30 41 H -1.851746 6.464363 1.279533 0
M  V30 END ATOM
M  V30 BEGIN BOND
M  V30 1 1 1 2
M  V30 2 2 2 3
M  V30 3 1 3 4
M  V30 4 1 4 5
M  V30 5 2 5 6
M  V30 6 1 6 7
M  V30 7 1 7 8
M  V30 8 2 8 9
M  V30 9 1 9 10
M  V30 10 2 10 11
M  V30 11 1 11 12
M  V30 12 2 12 13
M  V30 13 1 13 14
M  V30 14 2 14 15
M  V30 15 1 15 16
M  V30 16 2 16 17
M  V30 17 1 11 18
M  V30 18 2 18 19
M  V30 19 2 4 20
M  V30 20 1 20 21
M  V30 21 2 21 22
M  V30 22 1 22 23
M  V30 23 2 23 24
M  V30 24 1 23 25
M  V30 25 1 22 2
M  V30 26 1 19 5
M  V30 27 1 19 8
M  V30 28 1 17 12
M  V30 29 1 1 26
M  V30 30 1 1 27
M  V30 31 1 1 28
M  V30 32 1 3 29
M  V30 33 1 6 30
M  V30 34 1 7 31
M  V30 35 1 10 32
M  V30 36 1 13 33
M  V30 37 1 14 34
M  V30 38 1 15 35
M  V30 39 1 16 36
M  V30 40 1 17 37
M  V30 41 1 18 38
M  V30 42 1 20 39
M  V30 43 1 21 40
M  V30 44 1 25 41
M  V30 END BOND
M  V30 END CTAB
M  END
>  <Dataset>  (482) 
ChEMBL_Kinases

>  <Ligand_Instance>  (482) 
nan

>  <PDB_ID>  (482) 
nan

>  <Standardized_SMILES>  (482) 
Cc1cc(-c2c[nH]c3ncc(-c4ccccc4)cc23)ccc1C(=O)O

>  <Name>  (482) 
nan

>  <Pocket>  (482) 
nan

>  <ATP_Site>  (482) 
nan

>  <Peripheral>  (482) 
nan

>  <Num_H_Atoms_ProtBoundConf>  (482) 
nan

>  <Num_Resolved_Atoms>  (482) 
nan

>  <Num_Not_Resolved_Atoms>  (482) 
nan

$$$$
CHEMBL4793010
     RDKit          3D

  0  0  0  0  0  0  0  0  0  0999 V3000
M  V30 BEGIN CTAB
M  V30 COUNTS 71 74 0 0 0
M  V30 BEGIN ATOM
M  V30 1 C 3.891627 0.236066 4.799965 0
M  V30 2 C 2.760442 0.120558 3.849988 0
M  V30 3 N 2.717000 -0.847631 2.904116 0
M  V30 4 C 1.589258 -0.629520 2.265615 0
M  V30 5 C 1.101481 -1.398692 1.125120 0
M  V30 6 C 1.753203 -1.649914 0.001368 0
M  V30 7 C 3.079056 -1.187741 -0.287876 0
M  V30 8 O 3.830668 -0.491414 0.400231 0
M  V30 9 N 3.431649 -1.681351 -1.580152 0
M  V30 10 C 2.307538 -2.443951 -2.067023 0
M  V30 11 C 2.106801 -3.135536 -3.243551 0
M  V30 12 C 0.926663 -3.823830 -3.526164 0
M  V30 13 C -0.073893 -3.803070 -2.578466 0
M  V30 14 C -1.350843 -4.486088 -2.742255 0
M  V30 15 O -2.286798 -4.505181 -1.897114 0
M  V30 16 N -1.667754 -5.217397 -3.907655 0
M  V30 17 C -2.839547 -5.950673 -4.261601 0 CFG=2
M  V30 18 C -2.545738 -7.428357 -4.474492 0
M  V30 19 C -3.502739 -5.475997 -5.506743 0
M  V30 20 C -4.898367 -5.349562 -5.476246 0
M  V30 21 C -5.523312 -4.909790 -6.625040 0
M  V30 22 C -4.790534 -4.614964 -7.737277 0
M  V30 23 C -3.404004 -4.732036 -7.793948 0
M  V30 24 C -2.778506 -5.173798 -6.639116 0
M  V30 25 C 0.098490 -3.117985 -1.390068 0
M  V30 26 C 1.271954 -2.441828 -1.125749 0
M  V30 27 C 0.907314 0.449747 2.775749 0
M  V30 28 C -0.418593 0.955304 2.261296 0
M  V30 29 C 1.665528 0.949615 3.814060 0
M  V30 30 N 1.259462 2.071507 4.554931 0
M  V30 31 C 1.675603 2.846822 5.638016 0
M  V30 32 O 2.753036 2.470311 6.158890 0
M  V30 33 C 1.038100 4.009418 6.230192 0
M  V30 34 C -0.085282 4.571485 5.857200 0
M  V30 35 C -0.681372 5.761827 6.508191 0
M  V30 36 N -0.846811 6.888128 5.622036 0
M  V30 37 C -1.854942 6.645167 4.609750 0
M  V30 38 C 0.389916 7.331423 5.027651 0
M  V30 39 H 3.621916 0.002403 5.850397 0
M  V30 40 H 4.475195 1.169190 4.660534 0
M  V30 41 H 4.675285 -0.564460 4.578047 0
M  V30 42 H 3.446358 -1.600101 2.761454 0
M  V30 43 H 0.097637 -1.818823 1.185213 0
M  V30 44 H 4.331568 -1.523875 -2.083745 0
M  V30 45 H 2.875635 -3.157740 -3.985545 0
M  V30 46 H 0.785982 -4.352050 -4.437240 0
M  V30 47 H -1.002902 -5.300070 -4.708278 0
M  V30 48 H -3.543054 -5.900993 -3.397945 0
M  V30 49 H -3.511737 -7.975328 -4.492730 0
M  V30 50 H -1.927028 -7.838661 -3.656347 0
M  V30 51 H -1.990852 -7.583788 -5.410766 0
M  V30 52 H -5.490289 -5.578925 -4.602854 0
M  V30 53 H -6.598871 -4.814047 -6.595582 0
M  V30 54 H -5.386525 -4.275850 -8.592613 0
M  V30 55 H -2.876040 -4.487647 -8.691711 0
M  V30 56 H -1.711484 -5.282645 -6.626645 0
M  V30 57 H -0.654549 -3.078430 -0.632437 0
M  V30 58 H -1.127540 1.139550 3.095686 0
M  V30 59 H -0.846883 0.186345 1.594718 0
M  V30 60 H -0.186866 1.904124 1.748636 0
M  V30 61 H 0.349301 2.548942 4.261763 0
M  V30 62 H 1.500906 4.493075 7.064896 0
M  V30 63 H -0.617845 4.145575 5.021614 0
M  V30 64 H -1.703181 5.503015 6.879979 0
M  V30 65 H -0.063591 6.100702 7.369192 0
M  V30 66 H -1.418085 6.676742 3.590988 0
M  V30 67 H -2.318191 5.650721 4.703944 0
M  V30 68 H -2.676704 7.384338 4.633016 0
M  V30 69 H 0.321063 7.200333 3.927831 0
M  V30 70 H 1.239479 6.713521 5.366895 0
M  V30 71 H 0.563414 8.374353 5.345410 0
M  V30 END ATOM
M  V30 BEGIN BOND
M  V30 1 1 1 2
M  V30 2 1 2 3
M  V30 3 1 3 4
M  V30 4 1 4 5
M  V30 5 2 5 6
M  V30 6 1 6 7
M  V30 7 2 7 8
M  V30 8 1 7 9
M  V30 9 1 9 10
M  V30 10 2 10 11
M  V30 11 1 11 12
M  V30 12 2 12 13
M  V30 13 1 13 14
M  V30 14 2 14 15
M  V30 15 1 14 16
M  V30 16 1 16 17
M  V30 17 1 17 18
M  V30 18 1 17 19
M  V30 19 2 19 20
M  V30 20 1 20 21
M  V30 21 2 21 22
M  V30 22 1 22 23
M  V30 23 2 23 24
M  V30 24 1 13 25
M  V30 25 2 25 26
M  V30 26 2 4 27
M  V30 27 1 27 28
M  V30 28 1 27 29
M  V30 29 1 29 30
M  V30 30 1 30 31
M  V30 31 2 31 32
M  V30 32 1 31 33
M  V30 33 2 33 34
M  V30 34 1 34 35
M  V30 35 1 35 36
M  V30 36 1 36 37
M  V30 37 1 36 38
M  V30 38 2 29 2
M  V30 39 1 26 6
M  V30 40 1 26 10
M  V30 41 1 24 19
M  V30 42 1 1 39
M  V30 43 1 1 40
M  V30 44 1 1 41
M  V30 45 1 3 42
M  V30 46 1 5 43
M  V30 47 1 9 44
M  V30 48 1 11 45
M  V30 49 1 12 46
M  V30 50 1 16 47
M  V30 51 1 17 48 CFG=1
M  V30 52 1 18 49
M  V30 53 1 18 50
M  V30 54 1 18 51
M  V30 55 1 20 52
M  V30 56 1 21 53
M  V30 57 1 22 54
M  V30 58 1 23 55
M  V30 59 1 24 56
M  V30 60 1 25 57
M  V30 61 1 28 58
M  V30 62 1 28 59
M  V30 63 1 28 60
M  V30 64 1 30 61
M  V30 65 1 33 62
M  V30 66 1 34 63
M  V30 67 1 35 64
M  V30 68 1 35 65
M  V30 69 1 37 66
M  V30 70 1 37 67
M  V30 71 1 37 68
M  V30 72 1 38 69
M  V30 73 1 38 70
M  V30 74 1 38 71
M  V30 END BOND
M  V30 END CTAB
M  END
>  <Dataset>  (483) 
ChEMBL_Kinases

>  <Ligand_Instance>  (483) 
nan

>  <PDB_ID>  (483) 
nan

>  <Standardized_SMILES>  (483) 
Cc1[nH]c(/C=C2\C(=O)Nc3ccc(C(=O)N[C@H](C)c4ccccc4)cc32)c(C)c1NC(=O)/C=C/CN(C)C

>  <Name>  (483) 
nan

>  <Pocket>  (483) 
nan

>  <ATP_Site>  (483) 
nan

>  <Peripheral>  (483) 
nan

>  <Num_H_Atoms_ProtBoundConf>  (483) 
nan

>  <Num_Resolved_Atoms>  (483) 
nan

>  <Num_Not_Resolved_Atoms>  (483) 
nan

$$$$
CHEMBL4127245
     RDKit          3D

  0  0  0  0  0  0  0  0  0  0999 V3000
M  V30 BEGIN CTAB
M  V30 COUNTS 47 50 0 0 0
M  V30 BEGIN ATOM
M  V30 1 C -0.575263 -4.691239 2.205018 0
M  V30 2 C -1.089129 -3.268139 2.006339 0
M  V30 3 C -2.396213 -3.011329 2.681908 0
M  V30 4 C -0.991277 -2.810048 0.611926 0
M  V30 5 C 0.013677 -1.916907 0.217335 0
M  V30 6 C 0.124990 -1.453321 -1.073366 0
M  V30 7 C 1.177092 -0.522985 -1.463004 0
M  V30 8 C 1.926758 -0.681809 -2.628646 0
M  V30 9 N 2.828507 0.322981 -2.740520 0
M  V30 10 C 2.685856 1.132085 -1.678370 0
M  V30 11 N 3.284904 2.263050 -1.253507 0
M  V30 12 C 2.915966 2.871084 -0.108900 0
M  V30 13 C 1.912199 2.400663 0.714871 0
M  V30 14 C 1.518015 3.065052 1.952323 0
M  V30 15 C 1.581233 4.429648 2.134915 0
M  V30 16 C 1.182329 4.956021 3.351112 0
M  V30 17 C 0.733562 4.100015 4.343987 0
M  V30 18 C 0.660682 2.719417 4.183424 0
M  V30 19 C 1.068360 2.227168 2.952335 0
M  V30 20 C 1.283128 1.229984 0.287097 0
M  V30 21 C 1.680242 0.627283 -0.889214 0
M  V30 22 C -0.754639 -1.846739 -2.056607 0
M  V30 23 C -1.754046 -2.722304 -1.709273 0
M  V30 24 C -1.826769 -3.160073 -0.405862 0
M  V30 25 C -2.899043 -4.094367 -0.161074 0
M  V30 26 O -3.722971 -4.471283 -1.064572 0
M  V30 27 O -3.555971 -4.901529 0.736306 0
M  V30 28 H -0.101501 -5.028960 1.257048 0
M  V30 29 H 0.199044 -4.767144 2.993980 0
M  V30 30 H -1.400248 -5.360873 2.521649 0
M  V30 31 H -0.338972 -2.631988 2.591311 0
M  V30 32 H -3.168426 -2.532335 2.036399 0
M  V30 33 H -2.764012 -3.952164 3.171179 0
M  V30 34 H -2.321140 -2.295832 3.557483 0
M  V30 35 H 0.730087 -1.585056 0.978339 0
M  V30 36 H 1.844380 -1.467349 -3.366730 0
M  V30 37 H 3.516242 0.452019 -3.513544 0
M  V30 38 H 3.436295 3.767722 0.167665 0
M  V30 39 H 1.939993 5.054817 1.325511 0
M  V30 40 H 1.222490 6.037065 3.522130 0
M  V30 41 H 0.431913 4.548606 5.276982 0
M  V30 42 H 0.303812 2.080258 4.983314 0
M  V30 43 H 0.996092 1.150095 2.869434 0
M  V30 44 H 0.484573 0.822342 0.906482 0
M  V30 45 H -0.651014 -1.473008 -3.059832 0
M  V30 46 H -2.434947 -3.021024 -2.490584 0
M  V30 47 H -4.346755 -4.533839 1.247397 0
M  V30 END ATOM
M  V30 BEGIN BOND
M  V30 1 1 1 2
M  V30 2 1 2 3
M  V30 3 1 2 4
M  V30 4 2 4 5
M  V30 5 1 5 6
M  V30 6 1 6 7
M  V30 7 2 7 8
M  V30 8 1 8 9
M  V30 9 1 9 10
M  V30 10 2 10 11
M  V30 11 1 11 12
M  V30 12 2 12 13
M  V30 13 1 13 14
M  V30 14 2 14 15
M  V30 15 1 15 16
M  V30 16 2 16 17
M  V30 17 1 17 18
M  V30 18 2 18 19
M  V30 19 1 13 20
M  V30 20 2 20 21
M  V30 21 2 6 22
M  V30 22 1 22 23
M  V30 23 2 23 24
M  V30 24 1 24 25
M  V30 25 2 25 26
M  V30 26 1 25 27
M  V30 27 1 24 4
M  V30 28 1 21 7
M  V30 29 1 21 10
M  V30 30 1 19 14
M  V30 31 1 1 28
M  V30 32 1 1 29
M  V30 33 1 1 30
M  V30 34 1 2 31
M  V30 35 1 3 32
M  V30 36 1 3 33
M  V30 37 1 3 34
M  V30 38 1 5 35
M  V30 39 1 8 36
M  V30 40 1 9 37
M  V30 41 1 12 38
M  V30 42 1 15 39
M  V30 43 1 16 40
M  V30 44 1 17 41
M  V30 45 1 18 42
M  V30 46 1 19 43
M  V30 47 1 20 44
M  V30 48 1 22 45
M  V30 49 1 23 46
M  V30 50 1 27 47
M  V30 END BOND
M  V30 END CTAB
M  END
>  <Dataset>  (484) 
ChEMBL_Kinases

>  <Ligand_Instance>  (484) 
nan

>  <PDB_ID>  (484) 
nan

>  <Standardized_SMILES>  (484) 
CC(C)c1cc(-c2c[nH]c3ncc(-c4ccccc4)cc23)ccc1C(=O)O

>  <Name>  (484) 
nan

>  <Pocket>  (484) 
nan

>  <ATP_Site>  (484) 
nan

>  <Peripheral>  (484) 
nan

>  <Num_H_Atoms_ProtBoundConf>  (484) 
nan

>  <Num_Resolved_Atoms>  (484) 
nan

>  <Num_Not_Resolved_Atoms>  (484) 
nan

$$$$
CHEMBL4793033
     RDKit          3D

  0  0  0  0  0  0  0  0  0  0999 V3000
M  V30 BEGIN CTAB
M  V30 COUNTS 54 57 0 0 0
M  V30 BEGIN ATOM
M  V30 1 C 0.004639 0.416356 5.481845 0
M  V30 2 O 1.320537 0.906496 5.237738 0
M  V30 3 C 1.905016 0.207276 4.224981 0
M  V30 4 C 3.336018 0.687646 3.973781 0
M  V30 5 N 3.882327 -0.092909 2.856596 0
M  V30 6 C 5.134467 -0.821843 2.681228 0
M  V30 7 C 2.845199 0.060772 1.865218 0
M  V30 8 C 2.281136 1.280808 1.408965 0
M  V30 9 C 1.237959 1.236916 0.505940 0
M  V30 10 C 0.640216 2.501086 -0.013040 0
M  V30 11 C 0.297643 3.409627 0.971995 0
M  V30 12 N -0.207419 4.521899 0.332805 0
M  V30 13 N -0.170114 4.281693 -0.982739 0
M  V30 14 C 0.360717 3.042828 -1.227049 0
M  V30 15 C 0.781154 0.025704 0.080758 0
M  V30 16 C -0.337517 0.035413 -0.748367 0
M  V30 17 C -0.851072 -1.135035 -1.095485 0
M  V30 18 C -2.014136 -1.602208 -1.760124 0
M  V30 19 C -3.004953 -2.024208 -2.315930 0
M  V30 20 C -4.230839 -2.575789 -2.995220 0
M  V30 21 C -5.464516 -2.027254 -2.479058 0
M  V30 22 O -4.099447 -2.711240 -4.282393 0
M  V30 23 C -4.060877 -3.997378 -2.168278 0
M  V30 24 N -3.383067 -4.992600 -1.849725 0
M  V30 25 C -2.811870 -5.801192 -1.629109 0
M  V30 26 C -2.013455 -6.176439 -2.553209 0
M  V30 27 S -2.784413 -4.725077 -3.387009 0
M  V30 28 C -0.248775 -2.329591 -0.634239 0
M  V30 29 C 0.882421 -2.410685 0.198531 0
M  V30 30 C 1.345910 -1.170574 0.526155 0
M  V30 31 N 2.367455 -1.087544 1.414538 0
M  V30 32 H -0.625581 0.469313 4.602825 0
M  V30 33 H 0.032730 -0.595870 5.862880 0
M  V30 34 H -0.434542 1.088588 6.260131 0
M  V30 35 H 2.083001 -0.886324 4.556061 0
M  V30 36 H 1.333291 0.137012 3.275497 0
M  V30 37 H 3.922486 0.578778 4.921959 0
M  V30 38 H 3.293282 1.729904 3.675071 0
M  V30 39 H 5.104878 -1.678318 3.433101 0
M  V30 40 H 5.152858 -1.317758 1.695786 0
M  V30 41 H 6.024684 -0.259695 2.908899 0
M  V30 42 H 2.702756 2.186546 1.798910 0
M  V30 43 H 0.310214 3.459583 2.046699 0
M  V30 44 H -0.434176 4.872046 -1.778067 0
M  V30 45 H 0.593728 2.431676 -2.077040 0
M  V30 46 H -0.897426 0.823973 -1.177209 0
M  V30 47 H -5.660015 -2.387697 -1.428599 0
M  V30 48 H -6.345404 -2.312732 -3.113253 0
M  V30 49 H -5.493985 -0.913491 -2.431453 0
M  V30 50 H -4.646333 -2.164994 -4.882440 0
M  V30 51 H -2.623709 -6.542679 -0.790629 0
M  V30 52 H -1.322156 -6.479813 -3.383850 0
M  V30 53 H -0.497510 -3.415301 -0.791429 0
M  V30 54 H 1.377543 -3.279155 0.584747 0
M  V30 END ATOM
M  V30 BEGIN BOND
M  V30 1 1 1 2
M  V30 2 1 2 3
M  V30 3 1 3 4
M  V30 4 1 4 5
M  V30 5 1 5 6
M  V30 6 1 5 7
M  V30 7 2 7 8
M  V30 8 1 8 9
M  V30 9 1 9 10
M  V30 10 1 10 11
M  V30 11 2 11 12
M  V30 12 1 12 13
M  V30 13 1 13 14
M  V30 14 2 9 15
M  V30 15 1 15 16
M  V30 16 2 16 17
M  V30 17 1 17 18
M  V30 18 3 18 19
M  V30 19 1 19 20
M  V30 20 1 20 21
M  V30 21 1 20 22
M  V30 22 1 20 23
M  V30 23 2 23 24
M  V30 24 1 24 25
M  V30 25 2 25 26
M  V30 26 1 26 27
M  V30 27 1 17 28
M  V30 28 2 28 29
M  V30 29 1 29 30
M  V30 30 2 30 31
M  V30 31 1 31 7
M  V30 32 2 14 10
M  V30 33 1 30 15
M  V30 34 1 27 23
M  V30 35 1 1 32
M  V30 36 1 1 33
M  V30 37 1 1 34
M  V30 38 1 3 35
M  V30 39 1 3 36
M  V30 40 1 4 37
M  V30 41 1 4 38
M  V30 42 1 6 39
M  V30 43 1 6 40
M  V30 44 1 6 41
M  V30 45 1 8 42
M  V30 46 1 11 43
M  V30 47 1 13 44
M  V30 48 1 14 45
M  V30 49 1 16 46
M  V30 50 1 21 47
M  V30 51 1 21 48
M  V30 52 1 21 49
M  V30 53 1 22 50
M  V30 54 1 25 51
M  V30 55 1 26 52
M  V30 56 1 28 53
M  V30 57 1 29 54
M  V30 END BOND
M  V30 END CTAB
M  END
>  <Dataset>  (485) 
ChEMBL_Kinases

>  <Ligand_Instance>  (485) 
nan

>  <PDB_ID>  (485) 
nan

>  <Standardized_SMILES>  (485) 
COCCN(C)c1cc(-c2cn[nH]c2)c2cc(C#CC(C)(O)c3nccs3)ccc2n1

>  <Name>  (485) 
nan

>  <Pocket>  (485) 
nan

>  <ATP_Site>  (485) 
nan

>  <Peripheral>  (485) 
nan

>  <Num_H_Atoms_ProtBoundConf>  (485) 
nan

>  <Num_Resolved_Atoms>  (485) 
nan

>  <Num_Not_Resolved_Atoms>  (485) 
nan

$$$$
CHEMBL4127114
     RDKit          3D

  0  0  0  0  0  0  0  0  0  0999 V3000
M  V30 BEGIN CTAB
M  V30 COUNTS 108 114 0 0 0
M  V30 BEGIN ATOM
M  V30 1 O 3.203620 -6.724910 0.149883 0
M  V30 2 C 2.908476 -6.934293 -1.045712 0
M  V30 3 N 3.396388 -5.926505 -1.920706 0
M  V30 4 O 4.079585 -4.966338 -1.206663 0
M  V30 5 C 4.309828 -3.917580 -2.143083 0
M  V30 6 C 5.032830 -2.783385 -1.513106 0
M  V30 7 O 5.239626 -1.762919 -2.451402 0
M  V30 8 C 4.095177 -1.295721 -2.998776 0
M  V30 9 C 4.185461 -0.090983 -3.900903 0
M  V30 10 O 4.712968 1.018849 -3.218763 0
M  V30 11 C 4.557448 2.149765 -4.069617 0
M  V30 12 C 5.091157 3.357959 -3.370404 0
M  V30 13 O 4.975230 4.550928 -4.045910 0
M  V30 14 C 3.630236 4.833284 -4.370115 0
M  V30 15 C 2.771842 4.753325 -3.133373 0
M  V30 16 C 1.351241 5.062976 -3.448530 0
M  V30 17 O 0.684814 5.731752 -4.259228 0
M  V30 18 N 0.233388 4.530076 -2.703752 0
M  V30 19 C -1.069160 4.975797 -3.077738 0
M  V30 20 C -2.131916 4.763011 -2.078379 0
M  V30 21 N -1.747169 4.307253 -0.769938 0
M  V30 22 C -2.674621 3.972415 0.248970 0
M  V30 23 N -4.032350 4.053220 0.066887 0
M  V30 24 C -4.870862 3.731215 1.058648 0
M  V30 25 N -6.289705 3.742426 1.002635 0
M  V30 26 C -7.210740 3.799701 2.104506 0
M  V30 27 C -8.276651 2.752507 2.099195 0
M  V30 28 O -8.957228 2.600247 0.906554 0
M  V30 29 C -8.066009 2.502342 -0.131355 0
M  V30 30 C -7.113908 3.683339 -0.187711 0
M  V30 31 N -4.411109 3.322664 2.256750 0
M  V30 32 C -3.068149 3.226701 2.483930 0
M  V30 33 N -2.412116 2.805586 3.672372 0
M  V30 34 C -1.754548 3.576678 4.549264 0
M  V30 35 C -1.535316 5.033993 4.550282 0
M  V30 36 F -0.193543 5.380749 4.672176 0
M  V30 37 F -2.153205 5.549687 5.700753 0
M  V30 38 N -1.276897 2.808384 5.515707 0
M  V30 39 C -1.614198 1.526635 5.285982 0
M  V30 40 C -1.432511 0.310293 5.886718 0
M  V30 41 C -1.893513 -0.897297 5.437720 0
M  V30 42 C -2.621787 -0.884771 4.251878 0
M  V30 43 C -2.840131 0.337912 3.594666 0
M  V30 44 C -2.343436 1.537258 4.100085 0
M  V30 45 N -2.265497 3.561473 1.451938 0
M  V30 46 C -0.340185 4.163194 -0.428321 0
M  V30 47 C 0.355879 3.558647 -1.637912 0
M  V30 48 C 2.148977 -8.058623 -1.573631 0
M  V30 49 C 2.060217 -8.264297 -2.934060 0
M  V30 50 C 1.381264 -9.348464 -3.439894 0
M  V30 51 C 0.748534 -10.294231 -2.632527 0
M  V30 52 F 0.078193 -11.359959 -3.127218 0
M  V30 53 C 0.856823 -10.057544 -1.286224 0
M  V30 54 F 0.255676 -10.950169 -0.454421 0
M  V30 55 C 1.538906 -8.965832 -0.732601 0
M  V30 56 N 1.568612 -8.785368 0.671824 0
M  V30 57 C 0.792741 -8.316902 1.756687 0
M  V30 58 C 0.645892 -9.363571 2.656779 0
M  V30 59 C -0.074317 -9.188601 3.842691 0
M  V30 60 C -0.621401 -7.946797 4.068738 0
M  V30 61 I -1.710335 -7.581265 5.813131 0
M  V30 62 C -0.491345 -6.897064 3.195253 0
M  V30 63 C 0.222839 -7.102093 2.036579 0
M  V30 64 F 0.417247 -6.170524 1.091397 0
M  V30 65 H 3.262864 -5.907284 -2.952355 0
M  V30 66 H 3.293843 -3.560707 -2.484998 0
M  V30 67 H 4.855418 -4.308865 -2.992674 0
M  V30 68 H 6.032406 -3.090227 -1.141919 0
M  V30 69 H 4.475020 -2.317699 -0.669671 0
M  V30 70 H 3.686385 -2.119761 -3.661608 0
M  V30 71 H 3.286141 -1.100372 -2.235390 0
M  V30 72 H 4.770353 -0.307195 -4.816713 0
M  V30 73 H 3.177248 0.189046 -4.242276 0
M  V30 74 H 5.237827 1.921943 -4.947117 0
M  V30 75 H 3.521504 2.253640 -4.382452 0
M  V30 76 H 4.698685 3.428966 -2.344122 0
M  V30 77 H 6.226482 3.225444 -3.267530 0
M  V30 78 H 3.567279 5.867289 -4.784306 0
M  V30 79 H 3.301692 4.084386 -5.095039 0
M  V30 80 H 3.143364 5.507891 -2.370630 0
M  V30 81 H 2.816726 3.758073 -2.674197 0
M  V30 82 H -1.362436 4.381471 -4.001519 0
M  V30 83 H -1.029673 6.046638 -3.451376 0
M  V30 84 H -2.685348 5.753486 -1.994890 0
M  V30 85 H -2.941383 4.080691 -2.465405 0
M  V30 86 H -7.760678 4.787827 2.000852 0
M  V30 87 H -6.726412 3.744665 3.107462 0
M  V30 88 H -7.880871 1.773045 2.424952 0
M  V30 89 H -9.042201 3.072624 2.860627 0
M  V30 90 H -8.582560 2.457734 -1.115425 0
M  V30 91 H -7.407577 1.598714 -0.038275 0
M  V30 92 H -6.505189 3.557969 -1.115819 0
M  V30 93 H -7.698422 4.631913 -0.242647 0
M  V30 94 H -1.931891 5.560598 3.663895 0
M  V30 95 H -0.858138 0.296271 6.825261 0
M  V30 96 H -1.738003 -1.836950 5.925631 0
M  V30 97 H -2.995562 -1.835112 3.881599 0
M  V30 98 H -3.417827 0.282023 2.664562 0
M  V30 99 H 0.125256 5.141127 -0.256637 0
M  V30 100 H -0.197342 3.496392 0.435444 0
M  V30 101 H 1.365938 3.232122 -1.418617 0
M  V30 102 H -0.278349 2.684968 -1.974887 0
M  V30 103 H 2.499278 -7.621219 -3.680875 0
M  V30 104 H 1.301660 -9.528417 -4.511584 0
M  V30 105 H 2.542214 -9.169112 0.848171 0
M  V30 106 H 1.031008 -10.398149 2.598749 0
M  V30 107 H -0.237589 -9.948629 4.599869 0
M  V30 108 H -0.915951 -5.908192 3.354386 0
M  V30 END ATOM
M  V30 BEGIN BOND
M  V30 1 2 1 2
M  V30 2 1 2 3
M  V30 3 1 3 4
M  V30 4 1 4 5
M  V30 5 1 5 6
M  V30 6 1 6 7
M  V30 7 1 7 8
M  V30 8 1 8 9
M  V30 9 1 9 10
M  V30 10 1 10 11
M  V30 11 1 11 12
M  V30 12 1 12 13
M  V30 13 1 13 14
M  V30 14 1 14 15
M  V30 15 1 15 16
M  V30 16 2 16 17
M  V30 17 1 16 18
M  V30 18 1 18 19
M  V30 19 1 19 20
M  V30 20 1 20 21
M  V30 21 1 21 22
M  V30 22 2 22 23
M  V30 23 1 23 24
M  V30 24 1 24 25
M  V30 25 1 25 26
M  V30 26 1 26 27
M  V30 27 1 27 28
M  V30 28 1 28 29
M  V30 29 1 29 30
M  V30 30 2 24 31
M  V30 31 1 31 32
M  V30 32 1 32 33
M  V30 33 1 33 34
M  V30 34 1 34 35
M  V30 35 1 35 36
M  V30 36 1 35 37
M  V30 37 2 34 38
M  V30 38 1 38 39
M  V30 39 2 39 40
M  V30 40 1 40 41
M  V30 41 2 41 42
M  V30 42 1 42 43
M  V30 43 2 43 44
M  V30 44 2 32 45
M  V30 45 1 21 46
M  V30 46 1 46 47
M  V30 47 1 2 48
M  V30 48 2 48 49
M  V30 49 1 49 50
M  V30 50 2 50 51
M  V30 51 1 51 52
M  V30 52 1 51 53
M  V30 53 1 53 54
M  V30 54 2 53 55
M  V30 55 1 55 56
M  V30 56 1 56 57
M  V30 57 2 57 58
M  V30 58 1 58 59
M  V30 59 2 59 60
M  V30 60 1 60 61
M  V30 61 1 60 62
M  V30 62 2 62 63
M  V30 63 1 63 64
M  V30 64 1 47 18
M  V30 65 1 55 48
M  V30 66 1 63 57
M  V30 67 1 45 22
M  V30 68 1 30 25
M  V30 69 1 44 33
M  V30 70 1 44 39
M  V30 71 1 3 65
M  V30 72 1 5 66
M  V30 73 1 5 67
M  V30 74 1 6 68
M  V30 75 1 6 69
M  V30 76 1 8 70
M  V30 77 1 8 71
M  V30 78 1 9 72
M  V30 79 1 9 73
M  V30 80 1 11 74
M  V30 81 1 11 75
M  V30 82 1 12 76
M  V30 83 1 12 77
M  V30 84 1 14 78
M  V30 85 1 14 79
M  V30 86 1 15 80
M  V30 87 1 15 81
M  V30 88 1 19 82
M  V30 89 1 19 83
M  V30 90 1 20 84
M  V30 91 1 20 85
M  V30 92 1 26 86
M  V30 93 1 26 87
M  V30 94 1 27 88
M  V30 95 1 27 89
M  V30 96 1 29 90
M  V30 97 1 29 91
M  V30 98 1 30 92
M  V30 99 1 30 93
M  V30 100 1 35 94
M  V30 101 1 40 95
M  V30 102 1 41 96
M  V30 103 1 42 97
M  V30 104 1 43 98
M  V30 105 1 46 99
M  V30 106 1 46 100
M  V30 107 1 47 101
M  V30 108 1 47 102
M  V30 109 1 49 103
M  V30 110 1 50 104
M  V30 111 1 56 105
M  V30 112 1 58 106
M  V30 113 1 59 107
M  V30 114 1 62 108
M  V30 END BOND
M  V30 END CTAB
M  END
>  <Dataset>  (486) 
ChEMBL_Kinases

>  <Ligand_Instance>  (486) 
nan

>  <PDB_ID>  (486) 
nan

>  <Standardized_SMILES>  (486) 
O=C(NOCCOCCOCCOCCC(=O)N1CCN(c2nc(N3CCOCC3)nc(-n3c(C(F)F)nc4ccccc43)n2)CC1)c1ccc(F)c(F)c1Nc1ccc(I)cc1F

>  <Name>  (486) 
nan

>  <Pocket>  (486) 
nan

>  <ATP_Site>  (486) 
nan

>  <Peripheral>  (486) 
nan

>  <Num_H_Atoms_ProtBoundConf>  (486) 
nan

>  <Num_Resolved_Atoms>  (486) 
nan

>  <Num_Not_Resolved_Atoms>  (486) 
nan

$$$$
CHEMBL4127076
     RDKit          3D

  0  0  0  0  0  0  0  0  0  0999 V3000
M  V30 BEGIN CTAB
M  V30 COUNTS 59 63 0 0 0
M  V30 BEGIN ATOM
M  V30 1 C 1.736929 -2.776865 0.611684 0
M  V30 2 C 1.179093 -1.417525 0.756558 0
M  V30 3 C 2.032193 -0.337418 0.491741 0
M  V30 4 C 1.629172 0.998683 0.606456 0
M  V30 5 O 2.617238 1.881108 0.303653 0
M  V30 6 C 2.583416 3.256458 0.287164 0
M  V30 7 C 1.662263 3.908459 -0.689372 0
M  V30 8 N 1.792006 5.349205 -0.526466 0
M  V30 9 C 3.077554 5.828438 -0.951153 0
M  V30 10 C 2.927048 7.006868 -1.903137 0
M  V30 11 O 2.132279 7.941424 -1.226355 0
M  V30 12 C 0.828806 7.494430 -1.121974 0
M  V30 13 C 0.700739 6.005071 -1.223403 0
M  V30 14 C 0.333101 1.197067 0.999142 0
M  V30 15 C -0.490707 0.135767 1.254346 0
M  V30 16 C -0.108605 -1.181852 1.145067 0
M  V30 17 C -1.076333 -2.219603 1.417273 0
M  V30 18 C -1.131829 -3.569036 1.328703 0
M  V30 19 C -2.342816 -4.080057 1.713023 0
M  V30 20 C -2.852539 -5.348015 1.789096 0
M  V30 21 C -2.062893 -6.516952 1.424396 0
M  V30 22 C -2.732413 -7.427933 0.598673 0
M  V30 23 C -2.177219 -8.605695 0.133889 0
M  V30 24 C -0.864504 -8.917954 0.505165 0
M  V30 25 C -0.267435 -10.116549 0.045623 0
M  V30 26 N 0.230608 -11.097262 -0.346286 0
M  V30 27 C -0.228379 -8.020994 1.308559 0
M  V30 28 C -0.779410 -6.846303 1.773345 0
M  V30 29 C -4.141440 -5.579916 2.221105 0
M  V30 30 C -4.869363 -4.461179 2.565908 0
M  V30 31 N -4.360875 -3.219698 2.487988 0
M  V30 32 C -3.108069 -2.999677 2.067651 0
M  V30 33 N -2.321858 -1.934276 1.876926 0
M  V30 34 H 1.650072 -3.339958 1.544562 0
M  V30 35 H 2.855228 -2.727469 0.432037 0
M  V30 36 H 1.308925 -3.289913 -0.244291 0
M  V30 37 H 3.053642 -0.584027 0.182649 0
M  V30 38 H 3.604789 3.703913 0.148664 0
M  V30 39 H 2.222872 3.578724 1.316131 0
M  V30 40 H 2.005236 3.605499 -1.720903 0
M  V30 41 H 0.630369 3.572933 -0.624537 0
M  V30 42 H 3.758465 5.074593 -1.351569 0
M  V30 43 H 3.574717 6.271281 -0.039632 0
M  V30 44 H 2.517014 6.726495 -2.873493 0
M  V30 45 H 3.949720 7.457673 -1.993820 0
M  V30 46 H 0.282591 7.926460 -2.004009 0
M  V30 47 H 0.334602 7.918892 -0.234495 0
M  V30 48 H -0.243789 5.698204 -0.731345 0
M  V30 49 H 0.669234 5.663481 -2.278202 0
M  V30 50 H 0.014950 2.198340 1.104366 0
M  V30 51 H -1.488551 0.439914 1.555061 0
M  V30 52 H -0.359762 -4.202522 0.998558 0
M  V30 53 H -3.761832 -7.259145 0.262220 0
M  V30 54 H -2.715850 -9.283227 -0.497628 0
M  V30 55 H 0.794129 -8.250189 1.605923 0
M  V30 56 H -0.298094 -6.124748 2.409789 0
M  V30 57 H -4.569345 -6.566804 2.291398 0
M  V30 58 H -5.905535 -4.558333 2.920176 0
M  V30 59 H -2.760687 -0.993223 2.106949 0
M  V30 END ATOM
M  V30 BEGIN BOND
M  V30 1 1 1 2
M  V30 2 2 2 3
M  V30 3 1 3 4
M  V30 4 1 4 5
M  V30 5 1 5 6
M  V30 6 1 6 7
M  V30 7 1 7 8
M  V30 8 1 8 9
M  V30 9 1 9 10
M  V30 10 1 10 11
M  V30 11 1 11 12
M  V30 12 1 12 13
M  V30 13 2 4 14
M  V30 14 1 14 15
M  V30 15 2 15 16
M  V30 16 1 16 17
M  V30 17 2 17 18
M  V30 18 1 18 19
M  V30 19 2 19 20
M  V30 20 1 20 21
M  V30 21 2 21 22
M  V30 22 1 22 23
M  V30 23 2 23 24
M  V30 24 1 24 25
M  V30 25 3 25 26
M  V30 26 1 24 27
M  V30 27 2 27 28
M  V30 28 1 20 29
M  V30 29 2 29 30
M  V30 30 1 30 31
M  V30 31 2 31 32
M  V30 32 1 32 33
M  V30 33 1 16 2
M  V30 34 1 33 17
M  V30 35 1 13 8
M  V30 36 1 32 19
M  V30 37 1 28 21
M  V30 38 1 1 34
M  V30 39 1 1 35
M  V30 40 1 1 36
M  V30 41 1 3 37
M  V30 42 1 6 38
M  V30 43 1 6 39
M  V30 44 1 7 40
M  V30 45 1 7 41
M  V30 46 1 9 42
M  V30 47 1 9 43
M  V30 48 1 10 44
M  V30 49 1 10 45
M  V30 50 1 12 46
M  V30 51 1 12 47
M  V30 52 1 13 48
M  V30 53 1 13 49
M  V30 54 1 14 50
M  V30 55 1 15 51
M  V30 56 1 18 52
M  V30 57 1 22 53
M  V30 58 1 23 54
M  V30 59 1 27 55
M  V30 60 1 28 56
M  V30 61 1 29 57
M  V30 62 1 30 58
M  V30 63 1 33 59
M  V30 END BOND
M  V30 END CTAB
M  END
>  <Dataset>  (487) 
ChEMBL_Kinases

>  <Ligand_Instance>  (487) 
nan

>  <PDB_ID>  (487) 
nan

>  <Standardized_SMILES>  (487) 
Cc1cc(OCCN2CCOCC2)ccc1-c1cc2c(-c3ccc(C#N)cc3)ccnc2[nH]1

>  <Name>  (487) 
nan

>  <Pocket>  (487) 
nan

>  <ATP_Site>  (487) 
nan

>  <Peripheral>  (487) 
nan

>  <Num_H_Atoms_ProtBoundConf>  (487) 
nan

>  <Num_Resolved_Atoms>  (487) 
nan

>  <Num_Not_Resolved_Atoms>  (487) 
nan

$$$$
CHEMBL4127064
     RDKit          3D

  0  0  0  0  0  0  0  0  0  0999 V3000
M  V30 BEGIN CTAB
M  V30 COUNTS 42 45 0 0 0
M  V30 BEGIN ATOM
M  V30 1 N 0.102320 -8.144575 1.722000 0
M  V30 2 C 0.448252 -7.041001 1.620058 0
M  V30 3 C 0.878194 -5.667329 1.487799 0
M  V30 4 C 0.082940 -4.833670 0.725630 0
M  V30 5 C 0.486962 -3.504265 0.589826 0
M  V30 6 C 1.650318 -3.094308 1.218597 0
M  V30 7 C 2.232429 -1.835780 1.218910 0
M  V30 8 C 1.776917 -0.615664 0.560791 0
M  V30 9 C 2.760127 0.108192 -0.111595 0
M  V30 10 C 2.382114 1.264645 -0.747251 0
M  V30 11 C 1.106199 1.774508 -0.777842 0
M  V30 12 C 0.853003 3.006928 -1.478902 0
M  V30 13 O -0.216895 3.631449 -1.614565 0
M  V30 14 O 1.869968 3.676297 -2.129103 0
M  V30 15 C 0.157778 1.037829 -0.105677 0
M  V30 16 C -1.258795 1.487353 -0.083231 0
M  V30 17 C -1.438524 2.515609 1.007247 0
M  V30 18 C -1.468103 1.617832 2.252492 0
M  V30 19 C -2.382863 0.488286 1.774095 0
M  V30 20 C -2.204451 0.402192 0.301736 0
M  V30 21 C 0.480956 -0.125494 0.546737 0
M  V30 22 C 3.366163 -1.937563 1.981234 0
M  V30 23 N 3.467306 -3.213694 2.427293 0
M  V30 24 C 2.430567 -3.945974 1.976451 0
M  V30 25 N 2.011121 -5.221687 2.086279 0
M  V30 26 H -0.836184 -5.186274 0.237432 0
M  V30 27 H -0.149155 -2.895309 -0.002560 0
M  V30 28 H 3.782604 -0.224815 -0.134155 0
M  V30 29 H 3.163637 1.813561 -1.265250 0
M  V30 30 H 1.894569 4.683590 -2.183644 0
M  V30 31 H -1.563864 1.867696 -1.084826 0
M  V30 32 H -2.455381 2.972204 0.898421 0
M  V30 33 H -0.636359 3.259075 1.073588 0
M  V30 34 H -1.868882 2.121814 3.131669 0
M  V30 35 H -0.426410 1.263469 2.389587 0
M  V30 36 H -2.183614 -0.432016 2.341204 0
M  V30 37 H -3.442413 0.772779 2.050940 0
M  V30 38 H -3.197150 0.621227 -0.181172 0
M  V30 39 H -1.904077 -0.601195 -0.058440 0
M  V30 40 H -0.186118 -0.758727 1.089815 0
M  V30 41 H 4.118596 -1.201733 2.247465 0
M  V30 42 H 4.181092 -3.698005 3.032632 0
M  V30 END ATOM
M  V30 BEGIN BOND
M  V30 1 3 1 2
M  V30 2 1 2 3
M  V30 3 2 3 4
M  V30 4 1 4 5
M  V30 5 2 5 6
M  V30 6 1 6 7
M  V30 7 1 7 8
M  V30 8 2 8 9
M  V30 9 1 9 10
M  V30 10 2 10 11
M  V30 11 1 11 12
M  V30 12 2 12 13
M  V30 13 1 12 14
M  V30 14 1 11 15
M  V30 15 1 15 16
M  V30 16 1 16 17
M  V30 17 1 17 18
M  V30 18 1 18 19
M  V30 19 1 19 20
M  V30 20 2 15 21
M  V30 21 2 7 22
M  V30 22 1 22 23
M  V30 23 1 23 24
M  V30 24 2 24 25
M  V30 25 1 25 3
M  V30 26 1 24 6
M  V30 27 1 21 8
M  V30 28 1 20 16
M  V30 29 1 4 26
M  V30 30 1 5 27
M  V30 31 1 9 28
M  V30 32 1 10 29
M  V30 33 1 14 30
M  V30 34 1 16 31
M  V30 35 1 17 32
M  V30 36 1 17 33
M  V30 37 1 18 34
M  V30 38 1 18 35
M  V30 39 1 19 36
M  V30 40 1 19 37
M  V30 41 1 20 38
M  V30 42 1 20 39
M  V30 43 1 21 40
M  V30 44 1 22 41
M  V30 45 1 23 42
M  V30 END BOND
M  V30 END CTAB
M  END
>  <Dataset>  (488) 
ChEMBL_Kinases

>  <Ligand_Instance>  (488) 
nan

>  <PDB_ID>  (488) 
nan

>  <Standardized_SMILES>  (488) 
N#Cc1ccc2c(-c3ccc(C(=O)O)c(C4CCCC4)c3)c[nH]c2n1

>  <Name>  (488) 
nan

>  <Pocket>  (488) 
nan

>  <ATP_Site>  (488) 
nan

>  <Peripheral>  (488) 
nan

>  <Num_H_Atoms_ProtBoundConf>  (488) 
nan

>  <Num_Resolved_Atoms>  (488) 
nan

>  <Num_Not_Resolved_Atoms>  (488) 
nan

$$$$
CHEMBL4793121
     RDKit          3D

  0  0  0  0  0  0  0  0  0  0999 V3000
M  V30 BEGIN CTAB
M  V30 COUNTS 42 44 0 0 0
M  V30 BEGIN ATOM
M  V30 1 N -0.111437 -5.391026 2.188900 0
M  V30 2 C 0.425052 -4.148730 1.749510 0
M  V30 3 N 1.639096 -3.976074 1.165446 0
M  V30 4 C 2.070927 -2.763094 0.778836 0
M  V30 5 C 1.298165 -1.615044 0.955230 0
M  V30 6 C 1.756040 -0.286503 0.539266 0
M  V30 7 C 1.444770 0.917224 1.127158 0
M  V30 8 C 1.963897 2.093101 0.609354 0
M  V30 9 C 2.807627 2.101602 -0.508484 0
M  V30 10 C 3.271281 3.430266 -0.914613 0
M  V30 11 C 2.384344 4.163768 -1.857998 0
M  V30 12 C 2.138581 3.514240 -3.145834 0
M  V30 13 O 2.473970 2.449830 -3.740658 0
M  V30 14 O 1.296072 4.254465 -3.984225 0
M  V30 15 C 3.083506 0.870287 -1.052974 0
M  V30 16 C 2.586347 -0.320176 -0.566835 0
M  V30 17 C 0.049776 -1.780400 1.554027 0
M  V30 18 C -0.385789 -3.050167 1.951235 0
M  V30 19 C -1.714122 -3.038679 2.558616 0
M  V30 20 C -2.773013 -2.320153 2.001557 0
M  V30 21 C -4.024721 -2.304295 2.565984 0
M  V30 22 C -4.289515 -3.005533 3.719074 0
M  V30 23 Cl -5.887836 -2.987831 4.444841 0
M  V30 24 C -3.262398 -3.730416 4.300328 0
M  V30 25 C -2.002782 -3.739162 3.721798 0
M  V30 26 H 0.197608 -6.067928 2.939539 0
M  V30 27 H -0.974708 -5.874553 1.803564 0
M  V30 28 H 3.048062 -2.678557 0.317303 0
M  V30 29 H 0.800309 0.864815 1.974378 0
M  V30 30 H 1.642999 2.965484 1.161445 0
M  V30 31 H 4.292437 3.407296 -1.377743 0
M  V30 32 H 3.404887 4.097148 -0.017508 0
M  V30 33 H 1.431892 4.457324 -1.362663 0
M  V30 34 H 2.903325 5.145915 -2.070707 0
M  V30 35 H 0.726058 3.855537 -4.715954 0
M  V30 36 H 3.738505 0.891446 -1.908287 0
M  V30 37 H 2.884507 -1.210670 -1.091329 0
M  V30 38 H -0.514529 -0.882817 1.673719 0
M  V30 39 H -2.552250 -1.774278 1.096412 0
M  V30 40 H -4.852446 -1.735385 2.120193 0
M  V30 41 H -3.399332 -4.295365 5.192281 0
M  V30 42 H -1.150267 -4.295460 4.137532 0
M  V30 END ATOM
M  V30 BEGIN BOND
M  V30 1 1 1 2
M  V30 2 2 2 3
M  V30 3 1 3 4
M  V30 4 2 4 5
M  V30 5 1 5 6
M  V30 6 2 6 7
M  V30 7 1 7 8
M  V30 8 2 8 9
M  V30 9 1 9 10
M  V30 10 1 10 11
M  V30 11 1 11 12
M  V30 12 2 12 13
M  V30 13 1 12 14
M  V30 14 1 9 15
M  V30 15 2 15 16
M  V30 16 1 5 17
M  V30 17 2 17 18
M  V30 18 1 18 19
M  V30 19 2 19 20
M  V30 20 1 20 21
M  V30 21 2 21 22
M  V30 22 1 22 23
M  V30 23 1 22 24
M  V30 24 2 24 25
M  V30 25 1 18 2
M  V30 26 1 25 19
M  V30 27 1 16 6
M  V30 28 1 1 26
M  V30 29 1 1 27
M  V30 30 1 4 28
M  V30 31 1 7 29
M  V30 32 1 8 30
M  V30 33 1 10 31
M  V30 34 1 10 32
M  V30 35 1 11 33
M  V30 36 1 11 34
M  V30 37 1 14 35
M  V30 38 1 15 36
M  V30 39 1 16 37
M  V30 40 1 17 38
M  V30 41 1 20 39
M  V30 42 1 21 40
M  V30 43 1 24 41
M  V30 44 1 25 42
M  V30 END BOND
M  V30 END CTAB
M  END
>  <Dataset>  (489) 
ChEMBL_Kinases

>  <Ligand_Instance>  (489) 
nan

>  <PDB_ID>  (489) 
nan

>  <Standardized_SMILES>  (489) 
Nc1ncc(-c2ccc(CCC(=O)O)cc2)cc1-c1ccc(Cl)cc1

>  <Name>  (489) 
nan

>  <Pocket>  (489) 
nan

>  <ATP_Site>  (489) 
nan

>  <Peripheral>  (489) 
nan

>  <Num_H_Atoms_ProtBoundConf>  (489) 
nan

>  <Num_Resolved_Atoms>  (489) 
nan

>  <Num_Not_Resolved_Atoms>  (489) 
nan

$$$$
CHEMBL4126920
     RDKit          3D

  0  0  0  0  0  0  0  0  0  0999 V3000
M  V30 BEGIN CTAB
M  V30 COUNTS 29 31 0 0 0
M  V30 BEGIN ATOM
M  V30 1 N -2.087115 -4.548671 3.507470 0
M  V30 2 C -1.691173 -3.214762 3.762446 0
M  V30 3 O -2.033751 -2.726321 4.867333 0
M  V30 4 C -0.924246 -2.488940 2.757065 0
M  V30 5 C -0.572375 -1.193541 3.074982 0
M  V30 6 C 0.158716 -0.469214 2.142578 0
M  V30 7 C 0.523070 -1.027786 0.933308 0
M  V30 8 C 1.291870 -0.280027 -0.059628 0
M  V30 9 C 2.384227 -0.815791 -0.742847 0
M  V30 10 N 2.849896 0.136422 -1.571429 0
M  V30 11 C 2.119825 1.276458 -1.470684 0
M  V30 12 N 2.170730 2.487266 -2.065061 0
M  V30 13 C 1.290782 3.437747 -1.750976 0
M  V30 14 C 0.306385 3.193131 -0.804228 0
M  V30 15 C 0.200015 1.960047 -0.152638 0
M  V30 16 C 1.146224 1.024059 -0.529534 0
M  V30 17 C 0.137918 -2.330079 0.678923 0
M  V30 18 C -0.589381 -3.099604 1.566838 0
M  V30 19 H -2.485440 -5.168983 2.758265 0
M  V30 20 H -2.376643 -5.523642 3.320729 0
M  V30 21 H -0.884837 -0.818207 4.028085 0
M  V30 22 H 0.438676 0.546451 2.383494 0
M  V30 23 H 2.841196 -1.796500 -0.684242 0
M  V30 24 H 3.662260 0.122148 -2.254318 0
M  V30 25 H 1.323287 4.409455 -2.220893 0
M  V30 26 H -0.438674 3.946864 -0.515077 0
M  V30 27 H -0.576570 1.780523 0.588119 0
M  V30 28 H 0.425773 -2.757575 -0.265266 0
M  V30 29 H -0.887749 -4.113326 1.365877 0
M  V30 END ATOM
M  V30 BEGIN BOND
M  V30 1 1 1 2
M  V30 2 2 2 3
M  V30 3 1 2 4
M  V30 4 2 4 5
M  V30 5 1 5 6
M  V30 6 2 6 7
M  V30 7 1 7 8
M  V30 8 2 8 9
M  V30 9 1 9 10
M  V30 10 1 10 11
M  V30 11 2 11 12
M  V30 12 1 12 13
M  V30 13 2 13 14
M  V30 14 1 14 15
M  V30 15 2 15 16
M  V30 16 1 7 17
M  V30 17 2 17 18
M  V30 18 1 18 4
M  V30 19 1 16 8
M  V30 20 1 16 11
M  V30 21 1 1 19
M  V30 22 1 1 20
M  V30 23 1 5 21
M  V30 24 1 6 22
M  V30 25 1 9 23
M  V30 26 1 10 24
M  V30 27 1 13 25
M  V30 28 1 14 26
M  V30 29 1 15 27
M  V30 30 1 17 28
M  V30 31 1 18 29
M  V30 END BOND
M  V30 END CTAB
M  END
>  <Dataset>  (490) 
ChEMBL_Kinases

>  <Ligand_Instance>  (490) 
nan

>  <PDB_ID>  (490) 
nan

>  <Standardized_SMILES>  (490) 
NC(=O)c1ccc(-c2c[nH]c3ncccc23)cc1

>  <Name>  (490) 
nan

>  <Pocket>  (490) 
nan

>  <ATP_Site>  (490) 
nan

>  <Peripheral>  (490) 
nan

>  <Num_H_Atoms_ProtBoundConf>  (490) 
nan

>  <Num_Resolved_Atoms>  (490) 
nan

>  <Num_Not_Resolved_Atoms>  (490) 
nan

$$$$
CHEMBL4793138
     RDKit          3D

  0  0  0  0  0  0  0  0  0  0999 V3000
M  V30 BEGIN CTAB
M  V30 COUNTS 39 41 0 0 0
M  V30 BEGIN ATOM
M  V30 1 O -1.292508 -1.525470 1.269184 0
M  V30 2 C -0.999929 -2.743490 1.423254 0
M  V30 3 N 0.397747 -2.902948 1.438636 0
M  V30 4 C 1.044985 -1.659760 1.278035 0
M  V30 5 C 1.368261 -0.896403 2.381426 0
M  V30 6 C 2.000913 0.322985 2.254347 0
M  V30 7 C 2.341176 0.839125 1.022517 0
M  V30 8 O 2.974356 2.039871 0.758015 0
M  V30 9 C 2.391941 3.063498 0.030049 0
M  V30 10 C 1.150200 3.203288 -0.553084 0
M  V30 11 C 0.846101 4.363213 -1.232530 0
M  V30 12 C 1.722064 5.398700 -1.361354 0
M  V30 13 C 2.970876 5.280061 -0.784861 0
M  V30 14 C 3.292647 4.123055 -0.099686 0
M  V30 15 O 4.597797 4.174017 0.419470 0
M  V30 16 C 2.029312 0.092114 -0.120276 0
M  V30 17 Cl 2.358061 0.489619 -1.793260 0
M  V30 18 C 1.391045 -1.135415 0.025441 0
M  V30 19 C -2.058553 -3.726023 1.552093 0
M  V30 20 C -3.362463 -3.279767 1.499801 0
M  V30 21 C -4.432319 -4.128607 1.611609 0
M  V30 22 Cl -6.055804 -3.478610 1.534482 0
M  V30 23 C -4.279214 -5.487913 1.784166 0
M  V30 24 C -2.984002 -5.958547 1.839593 0
M  V30 25 Cl -2.697331 -7.672201 2.056801 0
M  V30 26 C -1.927305 -5.081408 1.724228 0
M  V30 27 O -0.666148 -5.615081 1.787800 0
M  V30 28 H 0.757554 -3.873272 1.560931 0
M  V30 29 H 1.146872 -1.207047 3.392590 0
M  V30 30 H 2.280019 0.966373 3.076487 0
M  V30 31 H 0.530646 2.334133 -0.387330 0
M  V30 32 H -0.169947 4.329188 -1.639342 0
M  V30 33 H 1.398082 6.267847 -1.910494 0
M  V30 34 H 3.622034 6.130035 -0.918662 0
M  V30 35 H 4.888666 4.980196 0.983843 0
M  V30 36 H 1.102709 -1.796126 -0.791181 0
M  V30 37 H -3.574250 -2.210172 1.364336 0
M  V30 38 H -5.116238 -6.145198 1.870769 0
M  V30 39 H -0.401090 -6.514663 1.398274 0
M  V30 END ATOM
M  V30 BEGIN BOND
M  V30 1 2 1 2
M  V30 2 1 2 3
M  V30 3 1 3 4
M  V30 4 2 4 5
M  V30 5 1 5 6
M  V30 6 2 6 7
M  V30 7 1 7 8
M  V30 8 1 8 9
M  V30 9 2 9 10
M  V30 10 1 10 11
M  V30 11 2 11 12
M  V30 12 1 12 13
M  V30 13 2 13 14
M  V30 14 1 14 15
M  V30 15 1 7 16
M  V30 16 1 16 17
M  V30 17 2 16 18
M  V30 18 1 2 19
M  V30 19 2 19 20
M  V30 20 1 20 21
M  V30 21 1 21 22
M  V30 22 2 21 23
M  V30 23 1 23 24
M  V30 24 1 24 25
M  V30 25 2 24 26
M  V30 26 1 26 27
M  V30 27 1 18 4
M  V30 28 1 26 19
M  V30 29 1 14 9
M  V30 30 1 3 28
M  V30 31 1 5 29
M  V30 32 1 6 30
M  V30 33 1 10 31
M  V30 34 1 11 32
M  V30 35 1 12 33
M  V30 36 1 13 34
M  V30 37 1 15 35
M  V30 38 1 18 36
M  V30 39 1 20 37
M  V30 40 1 23 38
M  V30 41 1 27 39
M  V30 END BOND
M  V30 END CTAB
M  END
>  <Dataset>  (491) 
ChEMBL_Kinases

>  <Ligand_Instance>  (491) 
nan

>  <PDB_ID>  (491) 
nan

>  <Standardized_SMILES>  (491) 
O=C(Nc1ccc(Oc2ccccc2O)c(Cl)c1)c1cc(Cl)cc(Cl)c1O

>  <Name>  (491) 
nan

>  <Pocket>  (491) 
nan

>  <ATP_Site>  (491) 
nan

>  <Peripheral>  (491) 
nan

>  <Num_H_Atoms_ProtBoundConf>  (491) 
nan

>  <Num_Resolved_Atoms>  (491) 
nan

>  <Num_Not_Resolved_Atoms>  (491) 
nan

$$$$
CHEMBL4793180
     RDKit          3D

  0  0  0  0  0  0  0  0  0  0999 V3000
M  V30 BEGIN CTAB
M  V30 COUNTS 41 44 0 0 0
M  V30 BEGIN ATOM
M  V30 1 N 2.526688 -0.901657 4.281653 0
M  V30 2 C 1.939575 -0.662436 3.001928 0
M  V30 3 N 2.510340 0.204028 2.141844 0
M  V30 4 C 1.945479 0.423010 0.932021 0
M  V30 5 N 2.496504 1.326417 -0.026431 0
M  V30 6 C 1.872005 1.542601 -1.314221 0
M  V30 7 C 2.594846 2.505919 -2.146993 0
M  V30 8 C 2.232038 3.843290 -2.023924 0
M  V30 9 C 2.880903 4.815116 -2.788822 0
M  V30 10 C 3.876539 4.412492 -3.655770 0
M  V30 11 Cl 4.699018 5.628843 -4.622832 0
M  V30 12 C 4.234106 3.085321 -3.775583 0
M  V30 13 C 3.591900 2.101997 -3.015057 0
M  V30 14 N 0.802413 -0.236974 0.595809 0
M  V30 15 C 0.231090 -1.108954 1.465674 0
M  V30 16 N -0.869919 -1.904994 1.448814 0
M  V30 17 C -0.965492 -2.576986 2.601632 0
M  V30 18 C -2.116911 -3.467358 2.694816 0
M  V30 19 C -3.268487 -2.774911 3.081075 0
M  V30 20 C -4.481442 -3.432359 3.231165 0
M  V30 21 O -5.648322 -2.805964 3.608625 0
M  V30 22 C -4.525852 -4.796990 2.988466 0
M  V30 23 C -3.387417 -5.477989 2.607271 0
M  V30 24 O -3.345306 -6.844143 2.344900 0
M  V30 25 C -2.179987 -4.825965 2.457415 0
M  V30 26 N 0.096948 -2.202667 3.371928 0
M  V30 27 N 0.811290 -1.318234 2.678388 0
M  V30 28 H 3.483839 -1.267566 4.494762 0
M  V30 29 H 2.182920 -0.784052 5.279619 0
M  V30 30 H 3.363343 1.852374 0.179675 0
M  V30 31 H 0.817810 1.873455 -1.090279 0
M  V30 32 H 1.737837 0.544543 -1.794805 0
M  V30 33 H 1.447360 4.186912 -1.344929 0
M  V30 34 H 2.565613 5.858361 -2.662606 0
M  V30 35 H 5.023814 2.771738 -4.464153 0
M  V30 36 H 3.864325 1.050580 -3.099818 0
M  V30 37 H -3.335578 -1.720395 3.291344 0
M  V30 38 H -5.945729 -1.921438 3.200058 0
M  V30 39 H -5.459319 -5.368393 3.091854 0
M  V30 40 H -3.514260 -7.471771 3.144326 0
M  V30 41 H -1.231687 -5.250855 2.166246 0
M  V30 END ATOM
M  V30 BEGIN BOND
M  V30 1 1 1 2
M  V30 2 2 2 3
M  V30 3 1 3 4
M  V30 4 1 4 5
M  V30 5 1 5 6
M  V30 6 1 6 7
M  V30 7 2 7 8
M  V30 8 1 8 9
M  V30 9 2 9 10
M  V30 10 1 10 11
M  V30 11 1 10 12
M  V30 12 2 12 13
M  V30 13 2 4 14
M  V30 14 1 14 15
M  V30 15 2 15 16
M  V30 16 1 16 17
M  V30 17 1 17 18
M  V30 18 2 18 19
M  V30 19 1 19 20
M  V30 20 1 20 21
M  V30 21 2 20 22
M  V30 22 1 22 23
M  V30 23 1 23 24
M  V30 24 2 23 25
M  V30 25 2 17 26
M  V30 26 1 26 27
M  V30 27 1 27 2
M  V30 28 1 13 7
M  V30 29 1 27 15
M  V30 30 1 25 18
M  V30 31 1 1 28
M  V30 32 1 1 29
M  V30 33 1 5 30
M  V30 34 1 6 31
M  V30 35 1 6 32
M  V30 36 1 8 33
M  V30 37 1 9 34
M  V30 38 1 12 35
M  V30 39 1 13 36
M  V30 40 1 19 37
M  V30 41 1 21 38
M  V30 42 1 22 39
M  V30 43 1 24 40
M  V30 44 1 25 41
M  V30 END BOND
M  V30 END CTAB
M  END
>  <Dataset>  (492) 
ChEMBL_Kinases

>  <Ligand_Instance>  (492) 
nan

>  <PDB_ID>  (492) 
nan

>  <Standardized_SMILES>  (492) 
Nc1nc(NCc2ccc(Cl)cc2)nc2nc(-c3cc(O)cc(O)c3)nn12

>  <Name>  (492) 
nan

>  <Pocket>  (492) 
nan

>  <ATP_Site>  (492) 
nan

>  <Peripheral>  (492) 
nan

>  <Num_H_Atoms_ProtBoundConf>  (492) 
nan

>  <Num_Resolved_Atoms>  (492) 
nan

>  <Num_Not_Resolved_Atoms>  (492) 
nan

$$$$
CHEMBL4793185
     RDKit          3D

  0  0  0  0  0  0  0  0  0  0999 V3000
M  V30 BEGIN CTAB
M  V30 COUNTS 65 68 0 0 0
M  V30 BEGIN ATOM
M  V30 1 C 3.175536 -3.052331 3.988838 0
M  V30 2 O 2.740473 -1.689139 3.872207 0
M  V30 3 C 2.918380 -0.984285 2.712675 0
M  V30 4 O 3.489522 -1.836843 1.971170 0
M  V30 5 C 2.521653 0.385434 2.479954 0
M  V30 6 S 1.713188 1.339772 3.733740 0
M  V30 7 C 1.551673 2.849070 2.752893 0
M  V30 8 C 2.148569 2.459799 1.533134 0
M  V30 9 C 2.164125 3.527123 0.466588 0
M  V30 10 C 2.653496 1.199902 1.370324 0
M  V30 11 N 3.249220 0.803933 0.148002 0
M  V30 12 C 2.813259 0.312592 -1.095477 0
M  V30 13 N 1.812706 1.058103 -1.664522 0
M  V30 14 C 1.366863 0.600787 -2.876545 0
M  V30 15 N 0.386430 1.024411 -3.847342 0
M  V30 16 C -1.005861 0.679327 -3.846083 0
M  V30 17 C -1.379422 -0.000799 -2.705833 0
M  V30 18 C -2.692454 -0.397487 -2.548349 0
M  V30 19 C -3.551315 -0.074923 -3.575975 0
M  V30 20 C -3.177070 0.598770 -4.704376 0
M  V30 21 C -1.878050 1.011813 -4.894155 0
M  V30 22 O -1.231283 1.688667 -5.902708 0
M  V30 23 C -1.778833 2.171033 -7.086006 0
M  V30 24 C -4.926021 -0.584408 -3.279371 0
M  V30 25 C -4.685204 -1.540013 -2.121001 0
M  V30 26 N -3.462108 -1.063340 -1.540736 0
M  V30 27 C -3.053730 -1.228267 -0.168670 0
M  V30 28 O -1.982980 -0.916144 0.388431 0
M  V30 29 C -4.051416 -1.861365 0.734816 0
M  V30 30 N -3.570483 -1.988886 2.068688 0
M  V30 31 C -3.385130 -0.763411 2.774965 0
M  V30 32 C -2.402510 -2.824934 2.212031 0
M  V30 33 N 1.863471 -0.513275 -3.493835 0
M  V30 34 C 2.855314 -1.236402 -2.909592 0
M  V30 35 C 3.327445 -0.809384 -1.698985 0
M  V30 36 N 4.388580 -1.555601 -1.066241 0 CHG=1 VAL=4
M  V30 37 O 5.264272 -1.033061 -0.354957 0
M  V30 38 O 4.333305 -2.927159 -1.351597 0 CHG=-1 VAL=1
M  V30 39 H 2.919796 -3.468479 4.965606 0
M  V30 40 H 2.661803 -3.653813 3.209476 0
M  V30 41 H 4.281824 -3.084447 3.828773 0
M  V30 42 H 1.110295 3.754996 3.077419 0
M  V30 43 H 3.000464 3.324348 -0.249059 0
M  V30 44 H 1.239289 3.372328 -0.122082 0
M  V30 45 H 2.197659 4.539407 0.874296 0
M  V30 46 H 4.277853 0.956155 0.314713 0
M  V30 47 H 0.743743 1.638574 -4.608396 0
M  V30 48 H -0.707620 -0.252955 -1.898726 0
M  V30 49 H -3.799453 0.887466 -5.561093 0
M  V30 50 H -2.896061 2.131401 -7.142775 0
M  V30 51 H -1.477379 3.209259 -7.330720 0
M  V30 52 H -1.415884 1.538370 -7.933256 0
M  V30 53 H -5.606989 0.207081 -2.966814 0
M  V30 54 H -5.291568 -1.207218 -4.123773 0
M  V30 55 H -5.469120 -1.406772 -1.317203 0
M  V30 56 H -4.578802 -2.583000 -2.448856 0
M  V30 57 H -4.353254 -2.833937 0.321154 0
M  V30 58 H -4.936584 -1.167596 0.756288 0
M  V30 59 H -3.441349 0.119678 2.103834 0
M  V30 60 H -4.086345 -0.649449 3.642629 0
M  V30 61 H -2.370242 -0.764068 3.244250 0
M  V30 62 H -2.131940 -3.283099 1.238598 0
M  V30 63 H -1.526790 -2.255859 2.590277 0
M  V30 64 H -2.594915 -3.648289 2.939646 0
M  V30 65 H 3.316285 -2.142300 -3.325871 0
M  V30 END ATOM
M  V30 BEGIN BOND
M  V30 1 1 1 2
M  V30 2 1 2 3
M  V30 3 2 3 4
M  V30 4 1 3 5
M  V30 5 1 5 6
M  V30 6 1 6 7
M  V30 7 2 7 8
M  V30 8 1 8 9
M  V30 9 1 8 10
M  V30 10 1 10 11
M  V30 11 1 11 12
M  V30 12 2 12 13
M  V30 13 1 13 14
M  V30 14 1 14 15
M  V30 15 1 15 16
M  V30 16 2 16 17
M  V30 17 1 17 18
M  V30 18 2 18 19
M  V30 19 1 19 20
M  V30 20 2 20 21
M  V30 21 1 21 22
M  V30 22 1 22 23
M  V30 23 1 19 24
M  V30 24 1 24 25
M  V30 25 1 25 26
M  V30 26 1 26 27
M  V30 27 2 27 28
M  V30 28 1 27 29
M  V30 29 1 29 30
M  V30 30 1 30 31
M  V30 31 1 30 32
M  V30 32 2 14 33
M  V30 33 1 33 34
M  V30 34 2 34 35
M  V30 35 1 35 36
M  V30 36 2 36 37
M  V30 37 1 36 38
M  V30 38 2 10 5
M  V30 39 1 35 12
M  V30 40 1 21 16
M  V30 41 1 26 18
M  V30 42 1 1 39
M  V30 43 1 1 40
M  V30 44 1 1 41
M  V30 45 1 7 42
M  V30 46 1 9 43
M  V30 47 1 9 44
M  V30 48 1 9 45
M  V30 49 1 11 46
M  V30 50 1 15 47
M  V30 51 1 17 48
M  V30 52 1 20 49
M  V30 53 1 23 50
M  V30 54 1 23 51
M  V30 55 1 23 52
M  V30 56 1 24 53
M  V30 57 1 24 54
M  V30 58 1 25 55
M  V30 59 1 25 56
M  V30 60 1 29 57
M  V30 61 1 29 58
M  V30 62 1 31 59
M  V30 63 1 31 60
M  V30 64 1 31 61
M  V30 65 1 32 62
M  V30 66 1 32 63
M  V30 67 1 32 64
M  V30 68 1 34 65
M  V30 END BOND
M  V30 END CTAB
M  END
>  <Dataset>  (493) 
ChEMBL_Kinases

>  <Ligand_Instance>  (493) 
nan

>  <PDB_ID>  (493) 
nan

>  <Standardized_SMILES>  (493) 
COC(=O)c1scc(C)c1Nc1nc(Nc2cc3c(cc2OC)CCN3C(=O)CN(C)C)ncc1[N+](=O)[O-]

>  <Name>  (493) 
nan

>  <Pocket>  (493) 
nan

>  <ATP_Site>  (493) 
nan

>  <Peripheral>  (493) 
nan

>  <Num_H_Atoms_ProtBoundConf>  (493) 
nan

>  <Num_Resolved_Atoms>  (493) 
nan

>  <Num_Not_Resolved_Atoms>  (493) 
nan

$$$$
CHEMBL4126831
     RDKit          3D

  0  0  0  0  0  0  0  0  0  0999 V3000
M  V30 BEGIN CTAB
M  V30 COUNTS 241 245 0 0 0
M  V30 BEGIN ATOM
M  V30 1 C 2.817902 1.304244 -0.497580 0
M  V30 2 C 1.932399 0.247364 -1.108867 0
M  V30 3 C 0.494472 0.619252 -1.122020 0 CFG=2
M  V30 4 C 0.106161 1.842586 -1.864512 0
M  V30 5 C -0.193644 0.556666 0.233050 0 CFG=2
M  V30 6 N 0.397598 1.358454 1.246714 0
M  V30 7 C 0.436100 2.680505 1.660668 0
M  V30 8 O -0.262434 3.340609 0.791652 0
M  V30 9 C 0.961479 3.575713 2.692662 0 CFG=2
M  V30 10 C 1.925694 4.580817 2.080724 0
M  V30 11 N 1.422007 3.043639 3.915366 0
M  V30 12 C 1.435904 2.009662 4.832012 0
M  V30 13 O 0.781373 1.037214 4.412605 0
M  V30 14 C 1.933358 1.606694 6.147220 0 CFG=1
M  V30 15 N 1.403369 0.290077 6.394463 0
M  V30 16 C 1.469911 -0.956605 7.018827 0
M  V30 17 O 2.554561 -0.814464 7.679589 0
M  V30 18 C 0.630786 -2.149882 7.002658 0 CFG=2
M  V30 19 C 1.337677 -3.297762 6.246997 0
M  V30 20 O 2.570600 -3.481878 6.830571 0
M  V30 21 N -0.681831 -1.964508 6.366016 0
M  V30 22 C -2.050779 -2.347548 6.731198 0
M  V30 23 O -1.688340 -2.949071 7.814096 0
M  V30 24 C -3.040219 -1.881857 5.740486 0 CFG=2
M  V30 25 C -3.549628 -3.078709 4.926151 0
M  V30 26 C -4.253002 -4.055667 5.775636 0
M  V30 27 C -4.645242 -4.212685 7.090290 0
M  V30 28 N -5.302693 -5.378949 7.155535 0
M  V30 29 C -5.336973 -5.960352 5.918785 0
M  V30 30 N -4.687979 -5.142099 5.069499 0
M  V30 31 N -2.564168 -0.853087 4.851588 0
M  V30 32 C -3.576767 0.193042 4.646950 0
M  V30 33 O -4.742852 0.210803 5.148511 0
M  V30 34 C -3.292091 1.349951 3.797949 0 CFG=2
M  V30 35 C -2.328465 2.298000 4.505881 0
M  V30 36 C -2.801966 2.925738 5.769488 0
M  V30 37 C -3.128159 2.004496 6.902582 0
M  V30 38 C -1.694967 3.880875 6.219463 0
M  V30 39 N -4.502676 2.107534 3.477882 0
M  V30 40 C -4.414070 2.599428 2.147077 0
M  V30 41 O -3.732465 2.663038 1.095791 0
M  V30 42 C -5.247225 3.427534 1.208700 0 CFG=2
M  V30 43 C -6.521586 2.690148 0.970721 0
M  V30 44 C -6.591043 2.524438 -0.507031 0
M  V30 45 C -5.138191 2.585116 -0.926083 0
M  V30 46 N -4.559996 3.588279 -0.053130 0
M  V30 47 C -3.567353 4.497049 -0.411676 0
M  V30 48 O -3.596101 3.937826 -1.560301 0
M  V30 49 C -2.657453 5.566787 -0.228456 0 CFG=2
M  V30 50 C -3.473623 6.875571 -0.109871 0
M  V30 51 C -2.457577 7.940152 -0.543239 0
M  V30 52 C -1.190335 7.111883 -0.667726 0
M  V30 53 N -1.771473 5.905257 -1.290166 0
M  V30 54 C -1.605268 5.186039 -2.497874 0
M  V30 55 O -1.719770 4.335068 -3.399615 0
M  V30 56 C -0.668379 5.540112 -3.620394 0 CFG=2
M  V30 57 C -1.172540 6.833963 -4.215112 0
M  V30 58 C -2.561208 6.705675 -4.758822 0
M  V30 59 O -3.390204 5.736344 -4.846101 0
M  V30 60 O -3.008656 7.911364 -5.267717 0
M  V30 61 N -0.649645 4.481954 -4.623935 0
M  V30 62 C 0.533429 3.680986 -4.802265 0
M  V30 63 O 1.499596 4.001321 -4.007059 0
M  V30 64 C 1.110927 2.583388 -5.569363 0 CFG=2
M  V30 65 C 2.479839 2.956509 -6.178879 0
M  V30 66 C 3.009333 1.814233 -6.952920 0
M  V30 67 C 2.691530 1.781270 -8.294277 0
M  V30 68 C 3.113530 0.748846 -9.116547 0
M  V30 69 C 3.852629 -0.244404 -8.571011 0
M  V30 70 F 4.269056 -1.267055 -9.352218 0
M  V30 71 C 4.202060 -0.257330 -7.214369 0
M  V30 72 C 3.771012 0.786607 -6.405885 0
M  V30 73 N 0.360551 2.025440 -6.643904 0
M  V30 74 C -0.132218 0.688026 -6.789279 0
M  V30 75 O 0.179791 0.016733 -5.742573 0
M  V30 76 C -0.894518 0.091933 -7.961617 0 CFG=1
M  V30 77 N -1.044460 -1.341116 -7.624881 0
M  V30 78 C 0.001831 -2.243843 -7.703977 0
M  V30 79 O 1.197688 -1.963415 -8.025185 0
M  V30 80 C 0.159574 -3.686666 -7.493654 0 CFG=2
M  V30 81 C -0.821162 -4.349467 -6.618180 0
M  V30 82 C -0.953424 -3.892799 -5.203092 0
M  V30 83 C -2.026427 -4.743493 -4.565420 0
M  V30 84 N -2.554962 -4.719910 -3.258167 0
M  V30 85 O -2.636522 -5.655637 -5.162812 0
M  V30 86 N 1.513891 -4.069940 -7.196798 0
M  V30 87 C 2.675987 -4.761596 -7.603733 0
M  V30 88 C 3.861758 -4.743095 -6.714274 0
M  V30 89 O 2.466690 -5.294937 -8.724337 0
M  V30 90 C -2.231063 0.727048 -8.059920 0 CFG=1
M  V30 91 C -2.087221 2.147688 -8.613829 0
M  V30 92 O -3.031097 0.013355 -9.018513 0
M  V30 93 C 3.390755 1.795551 6.342420 0 CFG=1
M  V30 94 C 3.582707 3.350985 6.437544 0
M  V30 95 O 3.737108 1.444277 7.686750 0
M  V30 96 P 5.395874 1.204372 7.827511 0
M  V30 97 O 6.048320 0.769278 6.550283 0
M  V30 98 O 6.143376 2.575042 8.493741 0
M  V30 99 O 5.661084 -0.052041 8.955262 0
M  V30 100 C -0.516063 -0.805232 0.682567 0
M  V30 101 O -0.175779 -0.742759 1.925528 0
M  V30 102 N -1.036261 -1.951038 0.075335 0
M  V30 103 C -1.172598 -3.097928 0.995722 0 CFG=1
M  V30 104 C -2.187416 -4.066865 0.495123 0
M  V30 105 C -3.527048 -3.501671 0.358775 0
M  V30 106 C -3.993583 -2.808075 -0.739405 0
M  V30 107 C -5.280048 -2.307209 -0.829537 0
M  V30 108 C -6.164340 -2.496689 0.221246 0
M  V30 109 O -7.462418 -1.987809 0.133274 0
M  V30 110 C -5.762026 -3.172734 1.325967 0
M  V30 111 C -4.470687 -3.644121 1.353084 0
M  V30 112 C 0.170569 -3.841034 0.973547 0
M  V30 113 O 0.040578 -4.679006 1.932509 0
M  V30 114 N 1.355252 -3.730536 0.158650 0
M  V30 115 C 2.334110 -4.673501 0.647412 0 CFG=1
M  V30 116 C 2.186512 -5.893281 -0.301678 0
M  V30 117 C 3.659393 -4.062153 0.444806 0
M  V30 118 O 3.800933 -3.207625 -0.537708 0
M  V30 119 N 4.890966 -4.168340 1.084169 0
M  V30 120 C 6.277967 -3.848293 1.234045 0 CFG=1
M  V30 121 C 6.442788 -2.539604 2.028599 0
M  V30 122 C 5.772076 -1.433733 1.269505 0
M  V30 123 N 5.997661 -0.227081 2.035414 0
M  V30 124 O 5.174494 -0.639087 0.528792 0
M  V30 125 C 7.078962 -4.882987 1.888199 0
M  V30 126 N 8.423518 -4.423526 1.984458 0
M  V30 127 O 6.713203 -6.023682 2.334808 0
M  V30 128 H 2.419596 2.317415 -0.495729 0
M  V30 129 H 3.820049 1.331036 -0.980168 0
M  V30 130 H 3.028372 1.082157 0.591318 0
M  V30 131 H 2.248824 0.137929 -2.168846 0
M  V30 132 H 2.083586 -0.686739 -0.527875 0
M  V30 133 H -0.015814 -0.232379 -1.696867 0
M  V30 134 H 0.896513 2.583439 -1.786192 0
M  V30 135 H 0.003056 1.566992 -2.942092 0
M  V30 136 H -0.905958 2.225021 -1.600091 0
M  V30 137 H -1.193215 1.119306 0.011866 0
M  V30 138 H 1.027578 0.765046 1.848046 0
M  V30 139 H 0.015210 4.194650 2.972475 0
M  V30 140 H 1.989344 5.475670 2.703208 0
M  V30 141 H 2.897181 4.093263 1.839375 0
M  V30 142 H 1.475717 4.849561 1.104278 0
M  V30 143 H 2.050422 3.757830 4.383203 0
M  V30 144 H 1.485314 2.226867 7.017895 0
M  V30 145 H 0.458979 0.161465 5.882388 0
M  V30 146 H 0.444928 -2.514917 8.020634 0
M  V30 147 H 1.465980 -2.919557 5.229311 0
M  V30 148 H 0.671105 -4.162320 6.338302 0
M  V30 149 H 2.908427 -4.392643 6.569476 0
M  V30 150 H -0.419483 -1.468686 5.480964 0
M  V30 151 H -3.973526 -1.548878 6.281708 0
M  V30 152 H -2.674979 -3.549293 4.432594 0
M  V30 153 H -4.240205 -2.736137 4.133064 0
M  V30 154 H -4.361151 -3.417093 7.775059 0
M  V30 155 H -5.881148 -6.884932 6.049414 0
M  V30 156 H -4.706230 -5.571834 4.098795 0
M  V30 157 H -1.715834 -0.640233 4.308391 0
M  V30 158 H -2.769562 1.039469 2.881898 0
M  V30 159 H -1.813944 2.982688 3.850848 0
M  V30 160 H -1.509324 1.586867 4.873416 0
M  V30 161 H -3.682652 3.621111 5.584459 0
M  V30 162 H -4.219451 2.040531 7.113399 0
M  V30 163 H -2.694896 0.996920 6.820490 0
M  V30 164 H -2.674482 2.400451 7.867949 0
M  V30 165 H -0.946853 3.310684 6.844634 0
M  V30 166 H -1.207570 4.281417 5.295671 0
M  V30 167 H -2.161237 4.660960 6.834762 0
M  V30 168 H -5.421600 2.444165 3.810416 0
M  V30 169 H -5.396823 4.431648 1.671048 0
M  V30 170 H -7.356306 3.344737 1.370137 0
M  V30 171 H -6.550651 1.720400 1.519094 0
M  V30 172 H -7.208405 3.340251 -0.922179 0
M  V30 173 H -7.056248 1.577510 -0.784077 0
M  V30 174 H -4.649436 1.614874 -0.897447 0
M  V30 175 H -5.169155 2.915879 -1.982650 0
M  V30 176 H -2.044260 5.543176 0.699791 0
M  V30 177 H -3.873452 7.040322 0.889307 0
M  V30 178 H -4.224188 6.830763 -0.926268 0
M  V30 179 H -2.684529 8.358735 -1.537854 0
M  V30 180 H -2.359592 8.734198 0.201873 0
M  V30 181 H -0.819825 6.833647 0.340880 0
M  V30 182 H -0.464598 7.625049 -1.282274 0
M  V30 183 H 0.363755 5.636188 -3.241745 0
M  V30 184 H -1.225345 7.628356 -3.458192 0
M  V30 185 H -0.478075 7.224963 -5.005458 0
M  V30 186 H -3.977716 8.033519 -5.553875 0
M  V30 187 H -1.290151 4.059839 -5.356596 0
M  V30 188 H 1.388017 1.783632 -4.816504 0
M  V30 189 H 3.105570 3.200070 -5.285653 0
M  V30 190 H 2.347211 3.871179 -6.747050 0
M  V30 191 H 2.097285 2.555651 -8.792677 0
M  V30 192 H 2.843558 0.746312 -10.173557 0
M  V30 193 H 4.797844 -1.067633 -6.778544 0
M  V30 194 H 4.003784 0.826091 -5.352795 0
M  V30 195 H 0.164515 2.681856 -7.420042 0
M  V30 196 H -0.287333 0.188519 -8.858370 0
M  V30 197 H -1.849377 -1.929402 -7.320297 0
M  V30 198 H -0.093269 -4.171915 -8.550092 0
M  V30 199 H -0.507788 -5.447528 -6.549838 0
M  V30 200 H -1.839018 -4.424693 -7.085890 0
M  V30 201 H -0.046213 -4.113845 -4.597704 0
M  V30 202 H -1.248178 -2.856665 -5.049848 0
M  V30 203 H -1.766632 -5.208347 -2.784413 0
M  V30 204 H -3.511482 -4.250685 -3.258868 0
M  V30 205 H 1.534841 -3.565641 -6.248587 0
M  V30 206 H 4.649650 -4.152597 -7.212951 0
M  V30 207 H 4.278524 -5.774077 -6.547477 0
M  V30 208 H 3.591793 -4.378660 -5.721641 0
M  V30 209 H -2.768253 0.754229 -7.096104 0
M  V30 210 H -2.985196 2.333615 -9.273920 0
M  V30 211 H -1.169496 2.192128 -9.232574 0
M  V30 212 H -2.117164 2.823858 -7.751991 0
M  V30 213 H -3.474066 -0.697404 -8.474614 0
M  V30 214 H 4.089408 1.509621 5.598320 0
M  V30 215 H 4.059485 3.742406 5.536171 0
M  V30 216 H 4.262288 3.598251 7.294857 0
M  V30 217 H 2.633096 3.857842 6.613664 0
M  V30 218 H 5.678598 2.741497 9.351558 0
M  V30 219 H 5.127704 0.104391 9.775302 0
M  V30 220 H -1.201800 -1.658039 -0.911194 0
M  V30 221 H -1.255974 -2.721050 1.996834 0
M  V30 222 H -1.878993 -4.415391 -0.520443 0
M  V30 223 H -2.228355 -4.958393 1.157917 0
M  V30 224 H -3.266172 -2.664134 -1.540252 0
M  V30 225 H -5.548954 -1.768704 -1.733493 0
M  V30 226 H -8.184598 -2.388205 -0.455027 0
M  V30 227 H -6.468634 -3.299967 2.122121 0
M  V30 228 H -4.161716 -4.183168 2.242448 0
M  V30 229 H 1.136106 -2.985174 -0.541947 0
M  V30 230 H 2.132567 -4.993908 1.660947 0
M  V30 231 H 1.304749 -6.430174 0.087331 0
M  V30 232 H 1.896427 -5.517027 -1.311287 0
M  V30 233 H 3.085498 -6.512809 -0.303398 0
M  V30 234 H 4.651919 -4.846133 1.886541 0
M  V30 235 H 6.743732 -3.559592 0.238218 0
M  V30 236 H 7.518093 -2.313171 2.052685 0
M  V30 237 H 6.057241 -2.617165 3.042529 0
M  V30 238 H 5.917369 0.564599 2.703137 0
M  V30 239 H 6.500739 0.640546 2.339671 0
M  V30 240 H 9.030981 -3.848760 2.593834 0
M  V30 241 H 9.216470 -4.638866 1.310126 0
M  V30 END ATOM
M  V30 BEGIN BOND
M  V30 1 1 1 2
M  V30 2 1 2 3
M  V30 3 1 3 4
M  V30 4 1 3 5
M  V30 5 1 5 6
M  V30 6 1 6 7
M  V30 7 2 7 8
M  V30 8 1 7 9
M  V30 9 1 9 10
M  V30 10 1 9 11
M  V30 11 1 11 12
M  V30 12 2 12 13
M  V30 13 1 12 14
M  V30 14 1 14 15
M  V30 15 1 15 16
M  V30 16 2 16 17
M  V30 17 1 16 18
M  V30 18 1 18 19
M  V30 19 1 19 20
M  V30 20 1 18 21
M  V30 21 1 21 22
M  V30 22 2 22 23
M  V30 23 1 22 24
M  V30 24 1 24 25
M  V30 25 1 25 26
M  V30 26 2 26 27
M  V30 27 1 27 28
M  V30 28 2 28 29
M  V30 29 1 29 30
M  V30 30 1 24 31
M  V30 31 1 31 32
M  V30 32 2 32 33
M  V30 33 1 32 34
M  V30 34 1 34 35
M  V30 35 1 35 36
M  V30 36 1 36 37
M  V30 37 1 36 38
M  V30 38 1 34 39
M  V30 39 1 39 40
M  V30 40 2 40 41
M  V30 41 1 40 42
M  V30 42 1 42 43
M  V30 43 1 43 44
M  V30 44 1 44 45
M  V30 45 1 45 46
M  V30 46 1 46 47
M  V30 47 2 47 48
M  V30 48 1 47 49
M  V30 49 1 49 50
M  V30 50 1 50 51
M  V30 51 1 51 52
M  V30 52 1 52 53
M  V30 53 1 53 54
M  V30 54 2 54 55
M  V30 55 1 54 56
M  V30 56 1 56 57
M  V30 57 1 57 58
M  V30 58 2 58 59
M  V30 59 1 58 60
M  V30 60 1 56 61
M  V30 61 1 61 62
M  V30 62 2 62 63
M  V30 63 1 62 64
M  V30 64 1 64 65
M  V30 65 1 65 66
M  V30 66 2 66 67
M  V30 67 1 67 68
M  V30 68 2 68 69
M  V30 69 1 69 70
M  V30 70 1 69 71
M  V30 71 2 71 72
M  V30 72 1 64 73
M  V30 73 1 73 74
M  V30 74 2 74 75
M  V30 75 1 74 76
M  V30 76 1 76 77
M  V30 77 1 77 78
M  V30 78 2 78 79
M  V30 79 1 78 80
M  V30 80 1 80 81
M  V30 81 1 81 82
M  V30 82 1 82 83
M  V30 83 1 83 84
M  V30 84 2 83 85
M  V30 85 1 80 86
M  V30 86 1 86 87
M  V30 87 1 87 88
M  V30 88 2 87 89
M  V30 89 1 76 90
M  V30 90 1 90 91
M  V30 91 1 90 92
M  V30 92 1 14 93
M  V30 93 1 93 94
M  V30 94 1 93 95
M  V30 95 1 95 96
M  V30 96 2 96 97
M  V30 97 1 96 98
M  V30 98 1 96 99
M  V30 99 1 5 100
M  V30 100 2 100 101
M  V30 101 1 100 102
M  V30 102 1 102 103
M  V30 103 1 103 104
M  V30 104 1 104 105
M  V30 105 2 105 106
M  V30 106 1 106 107
M  V30 107 2 107 108
M  V30 108 1 108 109
M  V30 109 1 108 110
M  V30 110 2 110 111
M  V30 111 1 103 112
M  V30 112 2 112 113
M  V30 113 1 112 114
M  V30 114 1 114 115
M  V30 115 1 115 116
M  V30 116 1 115 117
M  V30 117 2 117 118
M  V30 118 1 117 119
M  V30 119 1 119 120
M  V30 120 1 120 121
M  V30 121 1 121 122
M  V30 122 1 122 123
M  V30 123 2 122 124
M  V30 124 1 120 125
M  V30 125 1 125 126
M  V30 126 2 125 127
M  V30 127 1 30 26
M  V30 128 1 46 42
M  V30 129 1 53 49
M  V30 130 1 72 66
M  V30 131 1 111 105
M  V30 132 1 1 128
M  V30 133 1 1 129
M  V30 134 1 1 130
M  V30 135 1 2 131
M  V30 136 1 2 132
M  V30 137 1 3 133 CFG=3
M  V30 138 1 4 134
M  V30 139 1 4 135
M  V30 140 1 4 136
M  V30 141 1 5 137 CFG=3
M  V30 142 1 6 138
M  V30 143 1 9 139 CFG=1
M  V30 144 1 10 140
M  V30 145 1 10 141
M  V30 146 1 10 142
M  V30 147 1 11 143
M  V30 148 1 14 144 CFG=1
M  V30 149 1 15 145
M  V30 150 1 18 146 CFG=1
M  V30 151 1 19 147
M  V30 152 1 19 148
M  V30 153 1 20 149
M  V30 154 1 21 150
M  V30 155 1 24 151 CFG=1
M  V30 156 1 25 152
M  V30 157 1 25 153
M  V30 158 1 27 154
M  V30 159 1 29 155
M  V30 160 1 30 156
M  V30 161 1 31 157
M  V30 162 1 34 158 CFG=3
M  V30 163 1 35 159
M  V30 164 1 35 160
M  V30 165 1 36 161
M  V30 166 1 37 162
M  V30 167 1 37 163
M  V30 168 1 37 164
M  V30 169 1 38 165
M  V30 170 1 38 166
M  V30 171 1 38 167
M  V30 172 1 39 168
M  V30 173 1 42 169 CFG=1
M  V30 174 1 43 170
M  V30 175 1 43 171
M  V30 176 1 44 172
M  V30 177 1 44 173
M  V30 178 1 45 174
M  V30 179 1 45 175
M  V30 180 1 49 176 CFG=1
M  V30 181 1 50 177
M  V30 182 1 50 178
M  V30 183 1 51 179
M  V30 184 1 51 180
M  V30 185 1 52 181
M  V30 186 1 52 182
M  V30 187 1 56 183 CFG=1
M  V30 188 1 57 184
M  V30 189 1 57 185
M  V30 190 1 60 186
M  V30 191 1 61 187
M  V30 192 1 64 188 CFG=1
M  V30 193 1 65 189
M  V30 194 1 65 190
M  V30 195 1 67 191
M  V30 196 1 68 192
M  V30 197 1 71 193
M  V30 198 1 72 194
M  V30 199 1 73 195
M  V30 200 1 76 196 CFG=3
M  V30 201 1 77 197
M  V30 202 1 80 198 CFG=3
M  V30 203 1 81 199
M  V30 204 1 81 200
M  V30 205 1 82 201
M  V30 206 1 82 202
M  V30 207 1 84 203
M  V30 208 1 84 204
M  V30 209 1 86 205
M  V30 210 1 88 206
M  V30 211 1 88 207
M  V30 212 1 88 208
M  V30 213 1 90 209 CFG=1
M  V30 214 1 91 210
M  V30 215 1 91 211
M  V30 216 1 91 212
M  V30 217 1 92 213
M  V30 218 1 93 214 CFG=3
M  V30 219 1 94 215
M  V30 220 1 94 216
M  V30 221 1 94 217
M  V30 222 1 98 218
M  V30 223 1 99 219
M  V30 224 1 102 220
M  V30 225 1 103 221 CFG=1
M  V30 226 1 104 222
M  V30 227 1 104 223
M  V30 228 1 106 224
M  V30 229 1 107 225
M  V30 230 1 109 226
M  V30 231 1 110 227
M  V30 232 1 111 228
M  V30 233 1 114 229
M  V30 234 1 115 230 CFG=1
M  V30 235 1 116 231
M  V30 236 1 116 232
M  V30 237 1 116 233
M  V30 238 1 119 234
M  V30 239 1 120 235 CFG=3
M  V30 240 1 121 236
M  V30 241 1 121 237
M  V30 242 1 123 238
M  V30 243 1 123 239
M  V30 244 1 126 240
M  V30 245 1 126 241
M  V30 END BOND
M  V30 END CTAB
M  END
>  <Dataset>  (494) 
ChEMBL_Kinases

>  <Ligand_Instance>  (494) 
nan

>  <PDB_ID>  (494) 
nan

>  <Standardized_SMILES>  (494) 
CC[C@H](C)[C@H](NC(=O)[C@H](C)NC(=O)[C@@H](NC(=O)[C@H](CO)NC(=O)[C@H](Cc1cnc[nH]1)NC(=O)[C@H](CC(C)C)NC(=O)[C@@H]1CCCN1C(=O)[C@@H]1CCCN1C(=O)[C@H](CC(=O)O)NC(=O)[C@H](Cc1ccc(F)cc1)NC(=O)[C@@H](NC(=O)[C@H](CCC(N)=O)NC(C)=O)[C@@H](C)O)[C@@H](C)OP(=O)(O)O)C(=O)N[C@@H](Cc1ccc(O)cc1)C(=O)N[C@@H](C)C(=O)N[C@@H](CC(N)=O)C(N)=O

>  <Name>  (494) 
nan

>  <Pocket>  (494) 
nan

>  <ATP_Site>  (494) 
nan

>  <Peripheral>  (494) 
nan

>  <Num_H_Atoms_ProtBoundConf>  (494) 
nan

>  <Num_Resolved_Atoms>  (494) 
nan

>  <Num_Not_Resolved_Atoms>  (494) 
nan

$$$$
CHEMBL4792978
     RDKit          3D

  0  0  0  0  0  0  0  0  0  0999 V3000
M  V30 BEGIN CTAB
M  V30 COUNTS 45 47 0 0 0
M  V30 BEGIN ATOM
M  V30 1 C 0.996528 -6.369458 2.559767 0
M  V30 2 C 1.260585 -5.147768 1.759107 0
M  V30 3 C 2.243707 -5.141729 0.787928 0
M  V30 4 C 2.550053 -4.047314 0.001903 0
M  V30 5 C 1.840202 -2.878895 0.184223 0
M  V30 6 C 2.055982 -1.650682 -0.571803 0
M  V30 7 C 3.009060 -1.535445 -1.561751 0
M  V30 8 N 3.227372 -0.409130 -2.275209 0
M  V30 9 C 2.464210 0.691317 -2.010287 0
M  V30 10 N 2.653198 1.900641 -2.731580 0
M  V30 11 C 1.504685 0.600347 -1.024723 0
M  V30 12 C 0.664722 1.751572 -0.706647 0
M  V30 13 O 0.884235 2.808144 -1.390496 0
M  V30 14 N -0.321412 1.689108 0.292543 0
M  V30 15 C -1.205758 2.733125 0.701755 0
M  V30 16 C -0.879263 3.060657 2.140038 0
M  V30 17 C -1.279027 1.948929 3.080545 0
M  V30 18 C -2.666645 1.449246 2.843621 0
M  V30 19 C -2.958768 1.174013 1.379299 0
M  V30 20 C -2.659663 2.423859 0.618698 0
M  V30 21 N 1.328269 -0.535516 -0.348314 0
M  V30 22 C 0.856187 -2.874421 1.151634 0
M  V30 23 C 0.547667 -3.966545 1.938787 0
M  V30 24 H 1.968461 -6.749442 2.975620 0
M  V30 25 H 0.292695 -6.105499 3.386676 0
M  V30 26 H 0.543125 -7.193040 1.984442 0
M  V30 27 H 2.801577 -6.056334 0.643017 0
M  V30 28 H 3.312219 -4.071734 -0.738125 0
M  V30 29 H 3.637526 -2.371847 -1.810817 0
M  V30 30 H 2.045617 1.982741 -3.586376 0
M  V30 31 H 3.312947 2.690543 -2.506128 0
M  V30 32 H -0.406298 0.766505 0.784510 0
M  V30 33 H -1.038011 3.670161 0.121784 0
M  V30 34 H -1.299846 4.022789 2.456476 0
M  V30 35 H 0.228420 3.165220 2.209959 0
M  V30 36 H -0.565674 1.097122 3.051470 0
M  V30 37 H -1.239188 2.359965 4.111042 0
M  V30 38 H -3.440118 2.181202 3.195468 0
M  V30 39 H -2.775845 0.491549 3.413319 0
M  V30 40 H -2.366073 0.289417 1.089319 0
M  V30 41 H -4.062291 0.971829 1.313064 0
M  V30 42 H -3.186407 3.251279 1.178230 0
M  V30 43 H -3.070492 2.461380 -0.409226 0
M  V30 44 H 0.262539 -1.975871 1.338881 0
M  V30 45 H -0.242176 -3.924995 2.698504 0
M  V30 END ATOM
M  V30 BEGIN BOND
M  V30 1 1 1 2
M  V30 2 2 2 3
M  V30 3 1 3 4
M  V30 4 2 4 5
M  V30 5 1 5 6
M  V30 6 2 6 7
M  V30 7 1 7 8
M  V30 8 2 8 9
M  V30 9 1 9 10
M  V30 10 1 9 11
M  V30 11 1 11 12
M  V30 12 2 12 13
M  V30 13 1 12 14
M  V30 14 1 14 15
M  V30 15 1 15 16
M  V30 16 1 16 17
M  V30 17 1 17 18
M  V30 18 1 18 19
M  V30 19 1 19 20
M  V30 20 2 11 21
M  V30 21 1 5 22
M  V30 22 2 22 23
M  V30 23 1 23 2
M  V30 24 1 21 6
M  V30 25 1 20 15
M  V30 26 1 1 24
M  V30 27 1 1 25
M  V30 28 1 1 26
M  V30 29 1 3 27
M  V30 30 1 4 28
M  V30 31 1 7 29
M  V30 32 1 10 30
M  V30 33 1 10 31
M  V30 34 1 14 32
M  V30 35 1 15 33
M  V30 36 1 16 34
M  V30 37 1 16 35
M  V30 38 1 17 36
M  V30 39 1 17 37
M  V30 40 1 18 38
M  V30 41 1 18 39
M  V30 42 1 19 40
M  V30 43 1 19 41
M  V30 44 1 20 42
M  V30 45 1 20 43
M  V30 46 1 22 44
M  V30 47 1 23 45
M  V30 END BOND
M  V30 END CTAB
M  END
>  <Dataset>  (495) 
ChEMBL_Kinases

>  <Ligand_Instance>  (495) 
nan

>  <PDB_ID>  (495) 
nan

>  <Standardized_SMILES>  (495) 
Cc1ccc(-c2cnc(N)c(C(=O)NC3CCCCC3)n2)cc1

>  <Name>  (495) 
nan

>  <Pocket>  (495) 
nan

>  <ATP_Site>  (495) 
nan

>  <Peripheral>  (495) 
nan

>  <Num_H_Atoms_ProtBoundConf>  (495) 
nan

>  <Num_Resolved_Atoms>  (495) 
nan

>  <Num_Not_Resolved_Atoms>  (495) 
nan

$$$$
CHEMBL4791849
     RDKit          3D

  0  0  0  0  0  0  0  0  0  0999 V3000
M  V30 BEGIN CTAB
M  V30 COUNTS 43 46 0 0 0
M  V30 BEGIN ATOM
M  V30 1 O 2.780423 -0.924240 -1.436098 0
M  V30 2 C 2.434403 -0.191043 -0.480021 0
M  V30 3 C 3.463299 0.173690 0.362407 0
M  V30 4 C 4.764374 -0.240538 0.159982 0
M  V30 5 C 5.752193 0.158411 1.039427 0
M  V30 6 F 7.014424 -0.273564 0.799450 0
M  V30 7 C 5.509032 0.968092 2.137648 0
M  V30 8 C 4.197867 1.380157 2.333859 0
M  V30 9 C 3.221785 0.979181 1.455059 0
M  V30 10 N 1.958465 1.373350 1.639928 0
M  V30 11 C 1.392144 2.128792 2.559388 0
M  V30 12 S 1.960093 2.911812 3.865955 0
M  V30 13 N 0.075794 2.235633 2.310975 0
M  V30 14 N -0.171946 1.529159 1.213188 0
M  V30 15 C 0.994666 0.987569 0.786918 0
M  V30 16 N 1.161353 0.204990 -0.295337 0
M  V30 17 C 0.233744 -0.254528 -1.239061 0
M  V30 18 C -0.476247 -1.521543 -1.059204 0
M  V30 19 C -1.346506 -1.707500 0.119789 0
M  V30 20 C -2.493388 -0.772519 0.269715 0
M  V30 21 C -3.004107 -0.893140 1.688405 0
M  V30 22 C -2.923907 -2.316074 2.196160 0
M  V30 23 F -1.814751 -2.506342 3.025891 0
M  V30 24 F -4.020590 -2.538135 3.008133 0
M  V30 25 C -2.987082 -3.331221 1.085657 0
M  V30 26 C -1.955849 -3.111431 0.009462 0
M  V30 27 H 5.014882 -0.878714 -0.687636 0
M  V30 28 H 6.323377 1.250291 2.795043 0
M  V30 29 H 4.078973 2.001782 3.197732 0
M  V30 30 H -0.741764 2.727869 2.772758 0
M  V30 31 H -0.557863 0.548147 -1.349136 0
M  V30 32 H 0.703191 -0.274038 -2.255665 0
M  V30 33 H 0.149603 -2.437310 -1.167238 0
M  V30 34 H -1.169974 -1.602322 -1.946745 0
M  V30 35 H -0.817283 -1.730480 1.094310 0
M  V30 36 H -2.330694 0.265732 0.002998 0
M  V30 37 H -3.302447 -1.140895 -0.422772 0
M  V30 38 H -4.077479 -0.615551 1.641900 0
M  V30 39 H -2.516201 -0.224256 2.403863 0
M  V30 40 H -4.028662 -3.320433 0.692553 0
M  V30 41 H -2.805786 -4.321763 1.544258 0
M  V30 42 H -2.507252 -3.197262 -0.967927 0
M  V30 43 H -1.159338 -3.879196 -0.017181 0
M  V30 END ATOM
M  V30 BEGIN BOND
M  V30 1 2 1 2
M  V30 2 1 2 3
M  V30 3 2 3 4
M  V30 4 1 4 5
M  V30 5 1 5 6
M  V30 6 2 5 7
M  V30 7 1 7 8
M  V30 8 2 8 9
M  V30 9 1 9 10
M  V30 10 1 10 11
M  V30 11 2 11 12
M  V30 12 1 11 13
M  V30 13 1 13 14
M  V30 14 2 14 15
M  V30 15 1 15 16
M  V30 16 1 16 17
M  V30 17 1 17 18
M  V30 18 1 18 19
M  V30 19 1 19 20
M  V30 20 1 20 21
M  V30 21 1 21 22
M  V30 22 1 22 23
M  V30 23 1 22 24
M  V30 24 1 22 25
M  V30 25 1 25 26
M  V30 26 1 16 2
M  V30 27 1 26 19
M  V30 28 1 9 3
M  V30 29 1 15 10
M  V30 30 1 4 27
M  V30 31 1 7 28
M  V30 32 1 8 29
M  V30 33 1 13 30
M  V30 34 1 17 31
M  V30 35 1 17 32
M  V30 36 1 18 33
M  V30 37 1 18 34
M  V30 38 1 19 35
M  V30 39 1 20 36
M  V30 40 1 20 37
M  V30 41 1 21 38
M  V30 42 1 21 39
M  V30 43 1 25 40
M  V30 44 1 25 41
M  V30 45 1 26 42
M  V30 46 1 26 43
M  V30 END BOND
M  V30 END CTAB
M  END
>  <Dataset>  (496) 
ChEMBL_Kinases

>  <Ligand_Instance>  (496) 
nan

>  <PDB_ID>  (496) 
nan

>  <Standardized_SMILES>  (496) 
O=c1c2cc(F)ccc2n2c(=S)[nH]nc2n1CCC1CCC(F)(F)CC1

>  <Name>  (496) 
nan

>  <Pocket>  (496) 
nan

>  <ATP_Site>  (496) 
nan

>  <Peripheral>  (496) 
nan

>  <Num_H_Atoms_ProtBoundConf>  (496) 
nan

>  <Num_Resolved_Atoms>  (496) 
nan

>  <Num_Not_Resolved_Atoms>  (496) 
nan

$$$$
CHEMBL4791883
     RDKit          3D

  0  0  0  0  0  0  0  0  0  0999 V3000
M  V30 BEGIN CTAB
M  V30 COUNTS 51 54 0 0 0
M  V30 BEGIN ATOM
M  V30 1 C 5.318676 -3.897258 5.719851 0
M  V30 2 C 4.963249 -3.389073 4.572418 0
M  V30 3 C 5.868913 -2.987788 3.517387 0
M  V30 4 O 6.993434 -2.835288 3.023262 0
M  V30 5 N 5.374221 -2.450731 2.303192 0
M  V30 6 C 6.197639 -2.029389 1.191032 0
M  V30 7 C 5.416639 -2.413281 -0.073750 0
M  V30 8 C 4.273393 -1.463132 -0.115039 0
M  V30 9 C 3.554167 -1.441269 1.019457 0
M  V30 10 C 2.418318 -0.528881 1.040897 0
M  V30 11 C 1.572946 -0.405230 2.121322 0
M  V30 12 C 0.484862 0.439308 2.201870 0
M  V30 13 C 0.253540 1.223377 1.062938 0
M  V30 14 C -0.886716 2.180896 0.984868 0
M  V30 15 C -2.066961 1.539667 0.329304 0
M  V30 16 O -1.977630 0.354578 -0.058676 0
M  V30 17 N -3.285351 2.241702 0.135128 0
M  V30 18 C -4.446586 1.719213 -0.476463 0
M  V30 19 C -4.637625 0.451268 -0.992698 0
M  V30 20 C -5.946305 0.434558 -1.491279 0
M  V30 21 C -6.593721 -0.706509 -2.138263 0
M  V30 22 C -7.295451 -0.317568 -3.447387 0
M  V30 23 C -8.033633 -0.871401 -2.310476 0
M  V30 24 N -6.475383 1.626589 -1.272455 0
M  V30 25 N -5.580945 2.394029 -0.666686 0
M  V30 26 C 1.085212 1.118632 -0.031915 0
M  V30 27 N 2.115596 0.260837 0.003183 0
M  V30 28 C 3.925156 -2.306996 2.162753 0
M  V30 29 H 5.812205 -4.293187 6.587027 0
M  V30 30 H 5.835623 -4.288762 6.574407 0
M  V30 31 H 3.909803 -3.268304 4.419184 0
M  V30 32 H 6.257914 -0.912998 1.275646 0
M  V30 33 H 7.193113 -2.486363 1.170409 0
M  V30 34 H 6.084244 -2.270917 -0.943720 0
M  V30 35 H 5.089654 -3.456820 0.059015 0
M  V30 36 H 4.047739 -0.846432 -0.986395 0
M  V30 37 H 1.720703 -0.992228 3.015508 0
M  V30 38 H -0.169610 0.527487 3.054374 0
M  V30 39 H -0.611539 3.093425 0.440849 0
M  V30 40 H -1.240594 2.519310 1.985811 0
M  V30 41 H -3.261145 3.220548 0.495948 0
M  V30 42 H -3.950549 -0.380633 -1.025532 0
M  V30 43 H -5.935212 -1.606723 -2.203882 0
M  V30 44 H -6.986438 -0.899742 -4.336263 0
M  V30 45 H -7.458934 0.748710 -3.675212 0
M  V30 46 H -8.388415 -1.932110 -2.465006 0
M  V30 47 H -8.792835 -0.257893 -1.814918 0
M  V30 48 H -7.415643 2.023609 -1.487392 0
M  V30 49 H 0.915704 1.719412 -0.919529 0
M  V30 50 H 3.411993 -3.268118 2.098703 0
M  V30 51 H 3.590267 -1.758841 3.091849 0
M  V30 END ATOM
M  V30 BEGIN BOND
M  V30 1 2 1 2
M  V30 2 1 2 3
M  V30 3 2 3 4
M  V30 4 1 3 5
M  V30 5 1 5 6
M  V30 6 1 6 7
M  V30 7 1 7 8
M  V30 8 2 8 9
M  V30 9 1 9 10
M  V30 10 2 10 11
M  V30 11 1 11 12
M  V30 12 2 12 13
M  V30 13 1 13 14
M  V30 14 1 14 15
M  V30 15 2 15 16
M  V30 16 1 15 17
M  V30 17 1 17 18
M  V30 18 1 18 19
M  V30 19 2 19 20
M  V30 20 1 20 21
M  V30 21 1 21 22
M  V30 22 1 22 23
M  V30 23 1 20 24
M  V30 24 1 24 25
M  V30 25 1 13 26
M  V30 26 2 26 27
M  V30 27 1 9 28
M  V30 28 1 28 5
M  V30 29 1 27 10
M  V30 30 2 25 18
M  V30 31 1 23 21
M  V30 32 1 1 29
M  V30 33 1 1 30
M  V30 34 1 2 31
M  V30 35 1 6 32
M  V30 36 1 6 33
M  V30 37 1 7 34
M  V30 38 1 7 35
M  V30 39 1 8 36
M  V30 40 1 11 37
M  V30 41 1 12 38
M  V30 42 1 14 39
M  V30 43 1 14 40
M  V30 44 1 17 41
M  V30 45 1 19 42
M  V30 46 1 21 43
M  V30 47 1 22 44
M  V30 48 1 22 45
M  V30 49 1 23 46
M  V30 50 1 23 47
M  V30 51 1 24 48
M  V30 52 1 26 49
M  V30 53 1 28 50
M  V30 54 1 28 51
M  V30 END BOND
M  V30 END CTAB
M  END
>  <Dataset>  (497) 
ChEMBL_Kinases

>  <Ligand_Instance>  (497) 
nan

>  <PDB_ID>  (497) 
nan

>  <Standardized_SMILES>  (497) 
C=CC(=O)N1CCC=C(c2ccc(CC(=O)Nc3cc(C4CC4)[nH]n3)cn2)C1

>  <Name>  (497) 
nan

>  <Pocket>  (497) 
nan

>  <ATP_Site>  (497) 
nan

>  <Peripheral>  (497) 
nan

>  <Num_H_Atoms_ProtBoundConf>  (497) 
nan

>  <Num_Resolved_Atoms>  (497) 
nan

>  <Num_Not_Resolved_Atoms>  (497) 
nan

$$$$
CHEMBL4791957
     RDKit          3D

  0  0  0  0  0  0  0  0  0  0999 V3000
M  V30 BEGIN CTAB
M  V30 COUNTS 35 37 0 0 0
M  V30 BEGIN ATOM
M  V30 1 F 2.157889 -1.303294 3.969309 0
M  V30 2 C 2.301971 -2.436185 3.229002 0
M  V30 3 C 2.537400 -3.640614 3.867463 0
M  V30 4 C 2.686920 -4.806867 3.126053 0
M  V30 5 C 2.583765 -4.660134 1.757510 0
M  V30 6 C 2.350857 -3.491255 1.061171 0
M  V30 7 C 2.210381 -2.362469 1.852249 0
M  V30 8 N 1.967610 -1.130302 1.165833 0
M  V30 9 C 0.769068 -0.566195 0.834401 0
M  V30 10 C 1.151322 0.597245 0.195936 0
M  V30 11 C 0.218588 1.574595 -0.360237 0
M  V30 12 C 0.623107 2.713188 -0.984611 0
M  V30 13 C -0.217523 3.668691 -1.527250 0
M  V30 14 N -1.535183 3.406121 -1.402625 0
M  V30 15 C -1.988601 2.295210 -0.794357 0
M  V30 16 N -3.384944 2.020889 -0.664440 0
M  V30 17 C -3.875688 0.821836 -0.008098 0
M  V30 18 C -3.417757 -0.448156 -0.654745 0
M  V30 19 F -3.973896 -1.488973 0.093564 0
M  V30 20 F -3.992710 -0.571638 -1.920187 0
M  V30 21 N -1.115965 1.394001 -0.281293 0
M  V30 22 C 2.523389 0.738332 0.139457 0
M  V30 23 N 2.977097 -0.377279 0.764633 0
M  V30 24 H 2.611174 -3.714286 4.935516 0
M  V30 25 H 2.874202 -5.796591 3.543808 0
M  V30 26 H 2.697474 -5.562118 1.150555 0
M  V30 27 H 2.289546 -3.497061 -0.018050 0
M  V30 28 H -0.189259 -0.979024 1.047956 0
M  V30 29 H 1.687908 2.910586 -1.077126 0
M  V30 30 H 0.161641 4.548652 -2.008750 0
M  V30 31 H -4.056207 2.736417 -1.071293 0
M  V30 32 H -4.972437 0.834320 -0.047704 0
M  V30 33 H -3.524696 0.780986 1.054206 0
M  V30 34 H -2.341151 -0.613271 -0.646798 0
M  V30 35 H 3.098871 1.533188 -0.291768 0
M  V30 END ATOM
M  V30 BEGIN BOND
M  V30 1 1 1 2
M  V30 2 2 2 3
M  V30 3 1 3 4
M  V30 4 2 4 5
M  V30 5 1 5 6
M  V30 6 2 6 7
M  V30 7 1 7 8
M  V30 8 1 8 9
M  V30 9 2 9 10
M  V30 10 1 10 11
M  V30 11 2 11 12
M  V30 12 1 12 13
M  V30 13 2 13 14
M  V30 14 1 14 15
M  V30 15 1 15 16
M  V30 16 1 16 17
M  V30 17 1 17 18
M  V30 18 1 18 19
M  V30 19 1 18 20
M  V30 20 2 15 21
M  V30 21 1 10 22
M  V30 22 2 22 23
M  V30 23 1 7 2
M  V30 24 1 23 8
M  V30 25 1 21 11
M  V30 26 1 3 24
M  V30 27 1 4 25
M  V30 28 1 5 26
M  V30 29 1 6 27
M  V30 30 1 9 28
M  V30 31 1 12 29
M  V30 32 1 13 30
M  V30 33 1 16 31
M  V30 34 1 17 32
M  V30 35 1 17 33
M  V30 36 1 18 34
M  V30 37 1 22 35
M  V30 END BOND
M  V30 END CTAB
M  END
>  <Dataset>  (498) 
ChEMBL_Kinases

>  <Ligand_Instance>  (498) 
nan

>  <PDB_ID>  (498) 
nan

>  <Standardized_SMILES>  (498) 
Fc1ccccc1-n1cc(-c2ccnc(NCC(F)F)n2)cn1

>  <Name>  (498) 
nan

>  <Pocket>  (498) 
nan

>  <ATP_Site>  (498) 
nan

>  <Peripheral>  (498) 
nan

>  <Num_H_Atoms_ProtBoundConf>  (498) 
nan

>  <Num_Resolved_Atoms>  (498) 
nan

>  <Num_Not_Resolved_Atoms>  (498) 
nan

$$$$
CHEMBL4791970
     RDKit          3D

  0  0  0  0  0  0  0  0  0  0999 V3000
M  V30 BEGIN CTAB
M  V30 COUNTS 47 50 0 0 0
M  V30 BEGIN ATOM
M  V30 1 O 1.823704 -1.838903 1.000525 0
M  V30 2 C 2.822779 -1.068609 0.849886 0
M  V30 3 C 4.008479 -1.634809 0.171687 0
M  V30 4 C 3.729543 -2.111083 -1.213347 0
M  V30 5 C 3.285250 -3.371431 -1.583375 0
M  V30 6 C 3.074523 -3.663108 -2.932609 0
M  V30 7 C 3.306364 -2.702715 -3.900553 0
M  V30 8 C 3.749805 -1.435263 -3.566141 0
M  V30 9 C 3.943874 -1.187565 -2.242567 0
M  V30 10 N 2.755759 0.285175 1.333891 0
M  V30 11 C 1.554413 0.795321 2.007421 0
M  V30 12 C 1.241691 0.036519 3.245222 0
M  V30 13 C 0.012026 0.607951 3.899919 0
M  V30 14 N -1.173347 0.590704 3.096107 0
M  V30 15 C -1.561743 1.639508 2.308317 0
M  V30 16 O -0.876671 2.678695 2.271747 0
M  V30 17 C -2.716746 1.481936 1.583738 0
M  V30 18 C -3.113581 2.560216 0.779479 0
M  V30 19 C -4.277814 2.399585 0.054049 0
M  V30 20 F -4.625793 3.464336 -0.707353 0
M  V30 21 C -5.078627 1.274130 0.054294 0
M  V30 22 C -4.657596 0.221995 0.862680 0
M  V30 23 C -3.505521 0.353201 1.594100 0
M  V30 24 N -3.074020 -0.635217 2.382602 0
M  V30 25 C -3.585258 -1.849911 2.624738 0
M  V30 26 S -4.906070 -2.637111 2.093255 0
M  V30 27 N -2.803445 -2.512069 3.492809 0
M  V30 28 N -1.791242 -1.682101 3.787639 0
M  V30 29 C -1.951310 -0.533334 3.111713 0
M  V30 30 H 4.912233 -1.001841 0.245005 0
M  V30 31 H 4.282854 -2.585238 0.729202 0
M  V30 32 H 3.144495 -4.020080 -0.729679 0
M  V30 33 H 2.724395 -4.681836 -3.124120 0
M  V30 34 H 3.098817 -3.076435 -4.901737 0
M  V30 35 H 3.907747 -0.749051 -4.364126 0
M  V30 36 H 4.297189 -0.176123 -1.987683 0
M  V30 37 H 3.657114 0.798991 1.129990 0
M  V30 38 H 0.701354 0.696353 1.302613 0
M  V30 39 H 1.760323 1.852838 2.245937 0
M  V30 40 H 2.071456 0.089535 3.988985 0
M  V30 41 H 1.034456 -1.042367 3.057486 0
M  V30 42 H -0.228037 0.058846 4.855593 0
M  V30 43 H 0.182585 1.666176 4.237534 0
M  V30 44 H -2.526285 3.458486 0.744277 0
M  V30 45 H -5.973376 1.313242 -0.580982 0
M  V30 46 H -5.299004 -0.632585 0.841505 0
M  V30 47 H -2.767658 -3.439228 3.971923 0
M  V30 END ATOM
M  V30 BEGIN BOND
M  V30 1 2 1 2
M  V30 2 1 2 3
M  V30 3 1 3 4
M  V30 4 2 4 5
M  V30 5 1 5 6
M  V30 6 2 6 7
M  V30 7 1 7 8
M  V30 8 2 8 9
M  V30 9 1 2 10
M  V30 10 1 10 11
M  V30 11 1 11 12
M  V30 12 1 12 13
M  V30 13 1 13 14
M  V30 14 1 14 15
M  V30 15 2 15 16
M  V30 16 1 15 17
M  V30 17 2 17 18
M  V30 18 1 18 19
M  V30 19 1 19 20
M  V30 20 2 19 21
M  V30 21 1 21 22
M  V30 22 2 22 23
M  V30 23 1 23 24
M  V30 24 1 24 25
M  V30 25 2 25 26
M  V30 26 1 25 27
M  V30 27 1 27 28
M  V30 28 2 28 29
M  V30 29 1 9 4
M  V30 30 1 29 14
M  V30 31 1 23 17
M  V30 32 1 29 24
M  V30 33 1 3 30
M  V30 34 1 3 31
M  V30 35 1 5 32
M  V30 36 1 6 33
M  V30 37 1 7 34
M  V30 38 1 8 35
M  V30 39 1 9 36
M  V30 40 1 10 37
M  V30 41 1 11 38
M  V30 42 1 11 39
M  V30 43 1 12 40
M  V30 44 1 12 41
M  V30 45 1 13 42
M  V30 46 1 13 43
M  V30 47 1 18 44
M  V30 48 1 21 45
M  V30 49 1 22 46
M  V30 50 1 27 47
M  V30 END BOND
M  V30 END CTAB
M  END
>  <Dataset>  (499) 
ChEMBL_Kinases

>  <Ligand_Instance>  (499) 
nan

>  <PDB_ID>  (499) 
nan

>  <Standardized_SMILES>  (499) 
O=C(Cc1ccccc1)NCCCn1c(=O)c2cc(F)ccc2n2c(=S)[nH]nc12

>  <Name>  (499) 
nan

>  <Pocket>  (499) 
nan

>  <ATP_Site>  (499) 
nan

>  <Peripheral>  (499) 
nan

>  <Num_H_Atoms_ProtBoundConf>  (499) 
nan

>  <Num_Resolved_Atoms>  (499) 
nan

>  <Num_Not_Resolved_Atoms>  (499) 
nan

$$$$
CHEMBL4128151
     RDKit          3D

  0  0  0  0  0  0  0  0  0  0999 V3000
M  V30 BEGIN CTAB
M  V30 COUNTS 44 47 0 0 0
M  V30 BEGIN ATOM
M  V30 1 C 1.052088 -4.487256 5.283274 0
M  V30 2 C 1.269087 -3.281485 4.427461 0
M  V30 3 C 0.705660 -3.240349 3.168146 0
M  V30 4 C 0.857210 -2.166758 2.316062 0
M  V30 5 C 1.619630 -1.090892 2.777762 0
M  V30 6 C 1.959157 0.115979 2.183368 0
M  V30 7 C 1.590540 0.603074 0.858251 0
M  V30 8 C 2.570951 1.183195 0.060719 0
M  V30 9 C 2.218220 1.641358 -1.187610 0
M  V30 10 C 0.954438 1.573466 -1.724747 0
M  V30 11 C 0.744412 2.087418 -3.065371 0
M  V30 12 O -0.270427 2.125221 -3.767162 0
M  V30 13 O 1.779435 2.655127 -3.781783 0
M  V30 14 C -0.010472 0.996999 -0.925699 0
M  V30 15 C -1.412109 0.901267 -1.434701 0
M  V30 16 C -1.629127 -0.269499 -2.320176 0
M  V30 17 C -1.812757 -1.408158 -1.343392 0
M  V30 18 C -2.677809 -0.774811 -0.264916 0
M  V30 19 C -2.422673 0.700156 -0.328159 0
M  V30 20 C 0.322440 0.530941 0.329331 0
M  V30 21 C 2.734076 0.787016 3.115424 0
M  V30 22 N 2.844464 0.008413 4.208752 0
M  V30 23 C 2.183668 -1.148722 4.056524 0
M  V30 24 N 2.006048 -2.232014 4.863225 0
M  V30 25 H 0.090506 -4.936925 5.009029 0
M  V30 26 H 1.842721 -5.232093 4.974208 0
M  V30 27 H 1.170816 -4.286277 6.351602 0
M  V30 28 H 0.103859 -4.068901 2.780914 0
M  V30 29 H 0.412204 -2.156606 1.344773 0
M  V30 30 H 3.602032 1.282160 0.398623 0
M  V30 31 H 3.016764 2.091227 -1.785000 0
M  V30 32 H 1.675965 3.393694 -4.442262 0
M  V30 33 H -1.595387 1.877787 -1.940806 0
M  V30 34 H -0.858714 -0.468827 -3.075685 0
M  V30 35 H -2.596157 -0.140060 -2.842976 0
M  V30 36 H -2.295014 -2.297858 -1.783997 0
M  V30 37 H -0.881051 -1.738705 -0.858796 0
M  V30 38 H -2.428521 -1.125081 0.754237 0
M  V30 39 H -3.732375 -1.034305 -0.535784 0
M  V30 40 H -2.087622 1.129453 0.638082 0
M  V30 41 H -3.362484 1.175968 -0.688251 0
M  V30 42 H -0.390136 0.073637 0.994433 0
M  V30 43 H 3.167704 1.767915 2.971972 0
M  V30 44 H 3.366627 0.213293 5.108688 0
M  V30 END ATOM
M  V30 BEGIN BOND
M  V30 1 1 1 2
M  V30 2 2 2 3
M  V30 3 1 3 4
M  V30 4 2 4 5
M  V30 5 1 5 6
M  V30 6 1 6 7
M  V30 7 2 7 8
M  V30 8 1 8 9
M  V30 9 2 9 10
M  V30 10 1 10 11
M  V30 11 2 11 12
M  V30 12 1 11 13
M  V30 13 1 10 14
M  V30 14 1 14 15
M  V30 15 1 15 16
M  V30 16 1 16 17
M  V30 17 1 17 18
M  V30 18 1 18 19
M  V30 19 2 14 20
M  V30 20 2 6 21
M  V30 21 1 21 22
M  V30 22 1 22 23
M  V30 23 2 23 24
M  V30 24 1 24 2
M  V30 25 1 23 5
M  V30 26 1 20 7
M  V30 27 1 19 15
M  V30 28 1 1 25
M  V30 29 1 1 26
M  V30 30 1 1 27
M  V30 31 1 3 28
M  V30 32 1 4 29
M  V30 33 1 8 30
M  V30 34 1 9 31
M  V30 35 1 13 32
M  V30 36 1 15 33
M  V30 37 1 16 34
M  V30 38 1 16 35
M  V30 39 1 17 36
M  V30 40 1 17 37
M  V30 41 1 18 38
M  V30 42 1 18 39
M  V30 43 1 19 40
M  V30 44 1 19 41
M  V30 45 1 20 42
M  V30 46 1 21 43
M  V30 47 1 22 44
M  V30 END BOND
M  V30 END CTAB
M  END
>  <Dataset>  (500) 
ChEMBL_Kinases

>  <Ligand_Instance>  (500) 
nan

>  <PDB_ID>  (500) 
nan

>  <Standardized_SMILES>  (500) 
Cc1ccc2c(-c3ccc(C(=O)O)c(C4CCCC4)c3)c[nH]c2n1

>  <Name>  (500) 
nan

>  <Pocket>  (500) 
nan

>  <ATP_Site>  (500) 
nan

>  <Peripheral>  (500) 
nan

>  <Num_H_Atoms_ProtBoundConf>  (500) 
nan

>  <Num_Resolved_Atoms>  (500) 
nan

>  <Num_Not_Resolved_Atoms>  (500) 
nan

$$$$
CHEMBL4791998
     RDKit          3D

  0  0  0  0  0  0  0  0  0  0999 V3000
M  V30 BEGIN CTAB
M  V30 COUNTS 52 56 0 0 0
M  V30 BEGIN ATOM
M  V30 1 O 4.979589 2.104845 0.083143 0
M  V30 2 C 4.115314 1.526019 -0.604175 0
M  V30 3 N 4.225416 1.406813 -2.016839 0
M  V30 4 C 3.060205 0.692721 -2.428744 0
M  V30 5 C 2.788557 0.367043 -3.759848 0
M  V30 6 C 1.635291 -0.325827 -4.057691 0
M  V30 7 C 0.798076 -0.662327 -2.985510 0
M  V30 8 F -0.324426 -1.349292 -3.377546 0
M  V30 9 C 1.151214 -0.297749 -1.709671 0
M  V30 10 C 2.257296 0.374180 -1.361755 0
M  V30 11 C 2.897600 0.888013 -0.192736 0
M  V30 12 C 2.455864 0.792794 1.011072 0
M  V30 13 N 3.087677 1.300737 2.168550 0
M  V30 14 C 2.350330 1.042327 3.378400 0
M  V30 15 C 2.658497 1.385949 4.680465 0
M  V30 16 C 1.742981 0.989960 5.610099 0
M  V30 17 C 0.593836 0.301589 5.307975 0
M  V30 18 C 0.367041 0.001261 3.987151 0
M  V30 19 C 1.226271 0.350061 2.938384 0
M  V30 20 C 1.259179 0.180918 1.501769 0
M  V30 21 N 0.309968 -0.422174 0.990093 0
M  V30 22 O -0.809499 -0.988585 1.494363 0
M  V30 23 C -0.842564 -2.400770 1.569440 0
M  V30 24 C -2.147463 -2.969711 2.006527 0
M  V30 25 N -3.275287 -2.687622 1.208087 0
M  V30 26 C -3.764088 -1.369961 1.154620 0
M  V30 27 C -4.123398 -0.873186 -0.219626 0
M  V30 28 N -3.469975 -1.496687 -1.304660 0
M  V30 29 C -3.267473 -2.903558 -1.247939 0
M  V30 30 C -3.496708 -3.529756 0.080779 0
M  V30 31 H 5.028637 1.787933 -2.599174 0
M  V30 32 H 3.428426 0.625379 -4.581714 0
M  V30 33 H 1.421795 -0.576985 -5.067109 0
M  V30 34 H 0.407265 -0.638482 -1.069518 0
M  V30 35 H 3.992595 1.808642 2.150067 0
M  V30 36 H 3.550159 1.920530 4.919038 0
M  V30 37 H 1.917143 1.223942 6.644520 0
M  V30 38 H -0.093846 0.013282 6.078898 0
M  V30 39 H -0.538905 -0.539387 3.760043 0
M  V30 40 H -0.481783 -2.908960 0.660481 0
M  V30 41 H -0.095477 -2.655180 2.378479 0
M  V30 42 H -2.019772 -4.079484 2.032593 0
M  V30 43 H -2.400908 -2.697889 3.061092 0
M  V30 44 H -4.730982 -1.354314 1.741662 0
M  V30 45 H -3.107115 -0.683056 1.725940 0
M  V30 46 H -3.873815 0.217340 -0.246685 0
M  V30 47 H -5.235950 -0.940827 -0.411737 0
M  V30 48 H -2.752252 -0.952507 -1.811096 0
M  V30 49 H -2.235418 -3.143263 -1.629966 0
M  V30 50 H -3.957973 -3.385054 -1.986864 0
M  V30 51 H -4.512592 -3.966615 0.154603 0
M  V30 52 H -2.784214 -4.399611 0.175958 0
M  V30 END ATOM
M  V30 BEGIN BOND
M  V30 1 2 1 2
M  V30 2 1 2 3
M  V30 3 1 3 4
M  V30 4 2 4 5
M  V30 5 1 5 6
M  V30 6 2 6 7
M  V30 7 1 7 8
M  V30 8 1 7 9
M  V30 9 2 9 10
M  V30 10 1 10 11
M  V30 11 2 11 12
M  V30 12 1 12 13
M  V30 13 1 13 14
M  V30 14 2 14 15
M  V30 15 1 15 16
M  V30 16 2 16 17
M  V30 17 1 17 18
M  V30 18 2 18 19
M  V30 19 1 19 20
M  V30 20 2 20 21
M  V30 21 1 21 22
M  V30 22 1 22 23
M  V30 23 1 23 24
M  V30 24 1 24 25
M  V30 25 1 25 26
M  V30 26 1 26 27
M  V30 27 1 27 28
M  V30 28 1 28 29
M  V30 29 1 29 30
M  V30 30 1 11 2
M  V30 31 1 20 12
M  V30 32 1 30 25
M  V30 33 1 10 4
M  V30 34 1 19 14
M  V30 35 1 3 31
M  V30 36 1 5 32
M  V30 37 1 6 33
M  V30 38 1 9 34
M  V30 39 1 13 35
M  V30 40 1 15 36
M  V30 41 1 16 37
M  V30 42 1 17 38
M  V30 43 1 18 39
M  V30 44 1 23 40
M  V30 45 1 23 41
M  V30 46 1 24 42
M  V30 47 1 24 43
M  V30 48 1 26 44
M  V30 49 1 26 45
M  V30 50 1 27 46
M  V30 51 1 27 47
M  V30 52 1 28 48
M  V30 53 1 29 49
M  V30 54 1 29 50
M  V30 55 1 30 51
M  V30 56 1 30 52
M  V30 END BOND
M  V30 END CTAB
M  END
>  <Dataset>  (501) 
ChEMBL_Kinases

>  <Ligand_Instance>  (501) 
nan

>  <PDB_ID>  (501) 
nan

>  <Standardized_SMILES>  (501) 
O=C1Nc2ccc(F)cc2/C1=C1/Nc2ccccc2/C1=N\OCCN1CCNCC1

>  <Name>  (501) 
nan

>  <Pocket>  (501) 
nan

>  <ATP_Site>  (501) 
nan

>  <Peripheral>  (501) 
nan

>  <Num_H_Atoms_ProtBoundConf>  (501) 
nan

>  <Num_Resolved_Atoms>  (501) 
nan

>  <Num_Not_Resolved_Atoms>  (501) 
nan

$$$$
CHEMBL4792109
     RDKit          3D

  0  0  0  0  0  0  0  0  0  0999 V3000
M  V30 BEGIN CTAB
M  V30 COUNTS 51 54 0 0 0
M  V30 BEGIN ATOM
M  V30 1 C 2.602193 -0.992398 -1.297243 0
M  V30 2 C 3.499376 -0.885581 -0.057570 0
M  V30 3 C 4.304163 -2.163355 0.027830 0
M  V30 4 N 4.347783 0.276819 -0.159264 0
M  V30 5 C 5.623311 0.358690 -0.541461 0
M  V30 6 N 6.016130 1.640827 -0.486100 0
M  V30 7 N 5.000413 2.365235 -0.073027 0
M  V30 8 C 3.944452 1.526708 0.137246 0
M  V30 9 C 2.645825 2.010962 0.604487 0
M  V30 10 C 2.248143 3.303957 0.360737 0
M  V30 11 C 1.046840 3.832290 0.765812 0
M  V30 12 C 0.202113 2.997820 1.458191 0
M  V30 13 C 0.575211 1.690383 1.718760 0
M  V30 14 N -0.218892 0.720231 2.432481 0
M  V30 15 C 0.124511 0.836989 3.836707 0
M  V30 16 C -1.189390 -0.252517 2.100478 0
M  V30 17 O -1.767955 -1.010840 2.917112 0
M  V30 18 N -1.718346 -0.594567 0.849477 0
M  V30 19 C -1.342174 0.025238 -0.406549 0
M  V30 20 C -2.694991 -1.628745 0.832945 0
M  V30 21 C -3.356791 -2.133928 -0.292384 0
M  V30 22 C -4.233165 -3.130762 0.084724 0
M  V30 23 C -5.131124 -3.975001 -0.537766 0
M  V30 24 C -5.869011 -4.886386 0.190185 0
M  V30 25 C -5.695590 -4.945744 1.576993 0
M  V30 26 C -4.792551 -4.092223 2.177415 0
M  V30 27 N -4.099380 -3.223091 1.419711 0
M  V30 28 N -3.205344 -2.348884 1.847826 0
M  V30 29 N 1.773171 1.273909 1.277516 0
M  V30 30 H 1.924529 -0.130940 -1.344490 0
M  V30 31 H 2.027184 -1.933784 -1.257959 0
M  V30 32 H 3.253811 -1.074952 -2.204772 0
M  V30 33 H 2.876235 -0.787702 0.832919 0
M  V30 34 H 5.172685 -2.189662 -0.652716 0
M  V30 35 H 4.594850 -2.354137 1.078006 0
M  V30 36 H 3.643482 -3.025444 -0.280316 0
M  V30 37 H 6.262668 -0.470044 -0.852789 0
M  V30 38 H 2.907213 3.980308 -0.188016 0
M  V30 39 H 0.724242 4.847670 0.579399 0
M  V30 40 H -0.765309 3.286675 1.830547 0
M  V30 41 H 1.238429 0.701683 3.958661 0
M  V30 42 H -0.410907 0.124095 4.483307 0
M  V30 43 H -0.101321 1.882089 4.156101 0
M  V30 44 H -1.129280 1.084252 -0.264183 0
M  V30 45 H -2.161502 -0.082518 -1.160775 0
M  V30 46 H -0.428306 -0.480637 -0.835992 0
M  V30 47 H -3.225780 -1.816770 -1.306507 0
M  V30 48 H -5.225442 -3.884983 -1.620798 0
M  V30 49 H -6.565393 -5.530393 -0.353619 0
M  V30 50 H -6.295961 -5.679873 2.127138 0
M  V30 51 H -4.707356 -4.187676 3.236250 0
M  V30 END ATOM
M  V30 BEGIN BOND
M  V30 1 1 1 2
M  V30 2 1 2 3
M  V30 3 1 2 4
M  V30 4 1 4 5
M  V30 5 2 5 6
M  V30 6 1 6 7
M  V30 7 2 7 8
M  V30 8 1 8 9
M  V30 9 2 9 10
M  V30 10 1 10 11
M  V30 11 2 11 12
M  V30 12 1 12 13
M  V30 13 1 13 14
M  V30 14 1 14 15
M  V30 15 1 14 16
M  V30 16 2 16 17
M  V30 17 1 16 18
M  V30 18 1 18 19
M  V30 19 1 18 20
M  V30 20 1 20 21
M  V30 21 2 21 22
M  V30 22 1 22 23
M  V30 23 2 23 24
M  V30 24 1 24 25
M  V30 25 2 25 26
M  V30 26 1 26 27
M  V30 27 1 27 28
M  V30 28 2 13 29
M  V30 29 1 8 4
M  V30 30 1 29 9
M  V30 31 2 28 20
M  V30 32 1 27 22
M  V30 33 1 1 30
M  V30 34 1 1 31
M  V30 35 1 1 32
M  V30 36 1 2 33
M  V30 37 1 3 34
M  V30 38 1 3 35
M  V30 39 1 3 36
M  V30 40 1 5 37
M  V30 41 1 10 38
M  V30 42 1 11 39
M  V30 43 1 12 40
M  V30 44 1 15 41
M  V30 45 1 15 42
M  V30 46 1 15 43
M  V30 47 1 19 44
M  V30 48 1 19 45
M  V30 49 1 19 46
M  V30 50 1 21 47
M  V30 51 1 23 48
M  V30 52 1 24 49
M  V30 53 1 25 50
M  V30 54 1 26 51
M  V30 END BOND
M  V30 END CTAB
M  END
>  <Dataset>  (502) 
ChEMBL_Kinases

>  <Ligand_Instance>  (502) 
nan

>  <PDB_ID>  (502) 
nan

>  <Standardized_SMILES>  (502) 
CC(C)n1cnnc1-c1cccc(N(C)C(=O)N(C)c2cc3ccccn3n2)n1

>  <Name>  (502) 
nan

>  <Pocket>  (502) 
nan

>  <ATP_Site>  (502) 
nan

>  <Peripheral>  (502) 
nan

>  <Num_H_Atoms_ProtBoundConf>  (502) 
nan

>  <Num_Resolved_Atoms>  (502) 
nan

>  <Num_Not_Resolved_Atoms>  (502) 
nan

$$$$
CHEMBL4127989
     RDKit          3D

  0  0  0  0  0  0  0  0  0  0999 V3000
M  V30 BEGIN CTAB
M  V30 COUNTS 55 59 0 0 0
M  V30 BEGIN ATOM
M  V30 1 N 2.865574 -4.649246 1.633620 0
M  V30 2 C 2.328269 -4.277908 0.391042 0
M  V30 3 O 2.355470 -5.397130 -0.165747 0
M  V30 4 C 1.910673 -2.912423 0.033649 0
M  V30 5 C 2.114867 -2.009031 1.059822 0
M  V30 6 C 1.791779 -0.696412 0.921659 0
M  V30 7 C 1.250145 -0.284680 -0.278522 0
M  V30 8 C 0.878079 1.112747 -0.483699 0
M  V30 9 C 1.232134 1.858098 -1.591067 0
M  V30 10 N 0.714846 3.083046 -1.403148 0
M  V30 11 C 0.065469 3.099038 -0.227367 0
M  V30 12 N -0.617018 4.058364 0.422846 0
M  V30 13 C -1.212965 3.890445 1.610017 0
M  V30 14 C -1.184578 2.697405 2.290546 0
M  V30 15 C -1.726374 2.166319 3.523181 0
M  V30 16 C -0.762481 1.747189 4.447613 0
M  V30 17 C -1.037530 1.220799 5.701738 0
M  V30 18 C -2.377183 1.121873 6.018305 0
M  V30 19 C -3.365496 1.516190 5.152911 0
M  V30 20 C -3.029711 2.031070 3.921438 0
M  V30 21 C -4.118223 2.421425 3.030836 0
M  V30 22 F -4.057652 3.764862 2.768834 0
M  V30 23 F -5.361105 2.161023 3.532924 0
M  V30 24 F -3.960319 1.783657 1.805259 0
M  V30 25 C -0.475574 1.675421 1.632621 0
M  V30 26 C 0.136125 1.859410 0.409459 0
M  V30 27 C 1.063474 -1.218374 -1.275410 0
M  V30 28 C 1.371916 -2.556156 -1.189211 0
M  V30 29 C 1.197980 -3.599293 -2.204398 0
M  V30 30 C -0.140683 -4.307394 -2.157791 0
M  V30 31 C -0.376034 -4.821459 -3.571539 0
M  V30 32 C 0.578248 -4.068651 -4.473376 0
M  V30 33 C 1.137642 -2.953600 -3.586851 0
M  V30 34 H 2.340765 -5.171351 2.394459 0
M  V30 35 H 2.335082 -5.173376 2.394593 0
M  V30 36 H 2.541335 -2.279775 2.032559 0
M  V30 37 H 1.951140 0.013904 1.712414 0
M  V30 38 H 1.804866 1.570544 -2.459347 0
M  V30 39 H 0.762711 3.944120 -2.022587 0
M  V30 40 H -1.736996 4.644517 2.145077 0
M  V30 41 H 0.314164 1.813683 4.224162 0
M  V30 42 H -0.247067 0.915058 6.371143 0
M  V30 43 H -2.650699 0.715515 6.990090 0
M  V30 44 H -4.397291 1.421799 5.440445 0
M  V30 45 H -0.321943 0.658897 1.972293 0
M  V30 46 H 0.641882 -0.830395 -2.170486 0
M  V30 47 H 2.020456 -4.351979 -2.191963 0
M  V30 48 H -0.014559 -5.205308 -1.522885 0
M  V30 49 H -0.950277 -3.641722 -1.804910 0
M  V30 50 H -1.447806 -4.621130 -3.835802 0
M  V30 51 H -0.236455 -5.903715 -3.654216 0
M  V30 52 H 1.443399 -4.679608 -4.781555 0
M  V30 53 H 0.063858 -3.579335 -5.315485 0
M  V30 54 H 2.116335 -2.599528 -3.907571 0
M  V30 55 H 0.422418 -2.118378 -3.603378 0
M  V30 END ATOM
M  V30 BEGIN BOND
M  V30 1 1 1 2
M  V30 2 2 2 3
M  V30 3 1 2 4
M  V30 4 2 4 5
M  V30 5 1 5 6
M  V30 6 2 6 7
M  V30 7 1 7 8
M  V30 8 2 8 9
M  V30 9 1 9 10
M  V30 10 1 10 11
M  V30 11 2 11 12
M  V30 12 1 12 13
M  V30 13 2 13 14
M  V30 14 1 14 15
M  V30 15 2 15 16
M  V30 16 1 16 17
M  V30 17 2 17 18
M  V30 18 1 18 19
M  V30 19 2 19 20
M  V30 20 1 20 21
M  V30 21 1 21 22
M  V30 22 1 21 23
M  V30 23 1 21 24
M  V30 24 1 14 25
M  V30 25 2 25 26
M  V30 26 1 7 27
M  V30 27 2 27 28
M  V30 28 1 28 29
M  V30 29 1 29 30
M  V30 30 1 30 31
M  V30 31 1 31 32
M  V30 32 1 32 33
M  V30 33 1 28 4
M  V30 34 1 33 29
M  V30 35 1 26 8
M  V30 36 1 26 11
M  V30 37 1 20 15
M  V30 38 1 1 34
M  V30 39 1 1 35
M  V30 40 1 5 36
M  V30 41 1 6 37
M  V30 42 1 9 38
M  V30 43 1 10 39
M  V30 44 1 13 40
M  V30 45 1 16 41
M  V30 46 1 17 42
M  V30 47 1 18 43
M  V30 48 1 19 44
M  V30 49 1 25 45
M  V30 50 1 27 46
M  V30 51 1 29 47
M  V30 52 1 30 48
M  V30 53 1 30 49
M  V30 54 1 31 50
M  V30 55 1 31 51
M  V30 56 1 32 52
M  V30 57 1 32 53
M  V30 58 1 33 54
M  V30 59 1 33 55
M  V30 END BOND
M  V30 END CTAB
M  END
>  <Dataset>  (503) 
ChEMBL_Kinases

>  <Ligand_Instance>  (503) 
nan

>  <PDB_ID>  (503) 
nan

>  <Standardized_SMILES>  (503) 
NC(=O)c1ccc(-c2c[nH]c3ncc(-c4ccccc4C(F)(F)F)cc23)cc1C1CCCC1

>  <Name>  (503) 
nan

>  <Pocket>  (503) 
nan

>  <ATP_Site>  (503) 
nan

>  <Peripheral>  (503) 
nan

>  <Num_H_Atoms_ProtBoundConf>  (503) 
nan

>  <Num_Resolved_Atoms>  (503) 
nan

>  <Num_Not_Resolved_Atoms>  (503) 
nan

$$$$
CHEMBL4792120
     RDKit          3D

  0  0  0  0  0  0  0  0  0  0999 V3000
M  V30 BEGIN CTAB
M  V30 COUNTS 69 73 0 0 0
M  V30 BEGIN ATOM
M  V30 1 C 8.172139 -4.112076 2.955361 0
M  V30 2 N 6.902648 -4.587974 2.490662 0
M  V30 3 C 6.895162 -5.114671 1.158843 0
M  V30 4 C 6.714268 -4.038939 0.102911 0
M  V30 5 N 5.753935 -3.070889 0.448337 0
M  V30 6 C 5.171049 -2.304846 -0.615319 0
M  V30 7 C 6.096624 -1.375048 -1.283066 0
M  V30 8 C 5.615524 -0.551031 -2.421123 0
M  V30 9 O 4.580903 0.315005 -2.236539 0
M  V30 10 C 3.281952 0.205161 -1.948828 0
M  V30 11 C 2.278143 -0.702742 -1.709184 0
M  V30 12 C 0.962073 -0.444315 -1.420833 0
M  V30 13 C 0.600565 0.883370 -1.364558 0
M  V30 14 N -0.778319 1.100358 -1.058931 0
M  V30 15 C -1.148119 1.219689 0.328725 0
M  V30 16 O -0.612483 0.862245 1.388494 0
M  V30 17 S -2.742072 2.096916 0.264410 0
M  V30 18 C -3.162042 1.438023 -1.373950 0
M  V30 19 C -4.331967 1.207977 -1.906977 0
M  V30 20 C -5.555475 1.485588 -1.163254 0
M  V30 21 C -6.594030 0.596206 -1.328560 0
M  V30 22 C -7.824691 0.727462 -0.680049 0
M  V30 23 C -7.938617 1.821511 0.150786 0
M  V30 24 O -9.156338 1.954897 0.796763 0
M  V30 25 C -9.384097 1.373159 2.059035 0
M  V30 26 C -10.626787 1.551570 2.629612 0
M  V30 27 C -10.875755 0.984343 3.879314 0
M  V30 28 C -9.863054 0.258668 4.506861 0
M  V30 29 F -10.051928 -0.318260 5.732567 0
M  V30 30 C -8.664749 0.135027 3.865144 0
M  V30 31 C -8.345313 0.669445 2.625852 0
M  V30 32 C -6.936170 2.762530 0.368570 0
M  V30 33 C -5.766239 2.530428 -0.324406 0
M  V30 34 C -1.846199 1.215944 -1.966076 0
M  V30 35 O -1.648099 1.127405 -3.227846 0
M  V30 36 C 1.516592 1.900644 -1.587568 0
M  V30 37 C 2.851729 1.552084 -1.878186 0
M  V30 38 C 5.041189 -3.184637 1.647240 0
M  V30 39 C 5.793550 -3.727820 2.813128 0
M  V30 40 H 7.985733 -3.160607 3.510321 0
M  V30 41 H 8.562086 -4.853371 3.674476 0
M  V30 42 H 8.881962 -3.897430 2.147764 0
M  V30 43 H 7.850338 -5.604760 0.970382 0
M  V30 44 H 6.082197 -5.850352 1.067167 0
M  V30 45 H 6.396241 -4.565113 -0.822711 0
M  V30 46 H 7.711459 -3.590832 -0.168451 0
M  V30 47 H 4.371435 -1.680696 -0.108687 0
M  V30 48 H 4.629257 -2.994801 -1.288473 0
M  V30 49 H 7.018047 -1.924737 -1.667340 0
M  V30 50 H 6.483674 -0.669352 -0.500490 0
M  V30 51 H 5.269747 -1.278368 -3.250215 0
M  V30 52 H 6.491371 -0.059597 -2.960930 0
M  V30 53 H 2.694383 -1.687048 -1.800620 0
M  V30 54 H 0.378896 -1.340764 -1.275043 0
M  V30 55 H -4.349526 0.807090 -2.912386 0
M  V30 56 H -6.496356 -0.269243 -1.988775 0
M  V30 57 H -8.636273 0.027080 -0.812827 0
M  V30 58 H -11.429046 2.109198 2.164803 0
M  V30 59 H -11.804093 1.052894 4.428083 0
M  V30 60 H -7.891404 -0.439759 4.384741 0
M  V30 61 H -7.396810 0.558672 2.142415 0
M  V30 62 H -7.056142 3.607134 1.024460 0
M  V30 63 H -4.966742 3.238894 -0.182533 0
M  V30 64 H 1.052980 2.851420 -1.501633 0
M  V30 65 H 3.361535 2.520700 -2.009588 0
M  V30 66 H 4.108255 -3.774569 1.482082 0
M  V30 67 H 4.664956 -2.165183 1.937338 0
M  V30 68 H 6.165576 -2.900760 3.452600 0
M  V30 69 H 5.099599 -4.313923 3.451035 0
M  V30 END ATOM
M  V30 BEGIN BOND
M  V30 1 1 1 2
M  V30 2 1 2 3
M  V30 3 1 3 4
M  V30 4 1 4 5
M  V30 5 1 5 6
M  V30 6 1 6 7
M  V30 7 1 7 8
M  V30 8 1 8 9
M  V30 9 1 9 10
M  V30 10 2 10 11
M  V30 11 1 11 12
M  V30 12 2 12 13
M  V30 13 1 13 14
M  V30 14 1 14 15
M  V30 15 2 15 16
M  V30 16 1 15 17
M  V30 17 1 17 18
M  V30 18 2 18 19
M  V30 19 1 19 20
M  V30 20 2 20 21
M  V30 21 1 21 22
M  V30 22 2 22 23
M  V30 23 1 23 24
M  V30 24 1 24 25
M  V30 25 2 25 26
M  V30 26 1 26 27
M  V30 27 2 27 28
M  V30 28 1 28 29
M  V30 29 1 28 30
M  V30 30 2 30 31
M  V30 31 1 23 32
M  V30 32 2 32 33
M  V30 33 1 18 34
M  V30 34 2 34 35
M  V30 35 1 13 36
M  V30 36 2 36 37
M  V30 37 1 5 38
M  V30 38 1 38 39
M  V30 39 1 39 2
M  V30 40 1 37 10
M  V30 41 1 34 14
M  V30 42 1 33 20
M  V30 43 1 31 25
M  V30 44 1 1 40
M  V30 45 1 1 41
M  V30 46 1 1 42
M  V30 47 1 3 43
M  V30 48 1 3 44
M  V30 49 1 4 45
M  V30 50 1 4 46
M  V30 51 1 6 47
M  V30 52 1 6 48
M  V30 53 1 7 49
M  V30 54 1 7 50
M  V30 55 1 8 51
M  V30 56 1 8 52
M  V30 57 1 11 53
M  V30 58 1 12 54
M  V30 59 1 19 55
M  V30 60 1 21 56
M  V30 61 1 22 57
M  V30 62 1 26 58
M  V30 63 1 27 59
M  V30 64 1 30 60
M  V30 65 1 31 61
M  V30 66 1 32 62
M  V30 67 1 33 63
M  V30 68 1 36 64
M  V30 69 1 37 65
M  V30 70 1 38 66
M  V30 71 1 38 67
M  V30 72 1 39 68
M  V30 73 1 39 69
M  V30 END BOND
M  V30 END CTAB
M  END
>  <Dataset>  (504) 
ChEMBL_Kinases

>  <Ligand_Instance>  (504) 
nan

>  <PDB_ID>  (504) 
nan

>  <Standardized_SMILES>  (504) 
CN1CCN(CCCOc2ccc(N3C(=O)S/C(=C\c4ccc(Oc5ccc(F)cc5)cc4)C3=O)cc2)CC1

>  <Name>  (504) 
nan

>  <Pocket>  (504) 
nan

>  <ATP_Site>  (504) 
nan

>  <Peripheral>  (504) 
nan

>  <Num_H_Atoms_ProtBoundConf>  (504) 
nan

>  <Num_Resolved_Atoms>  (504) 
nan

>  <Num_Not_Resolved_Atoms>  (504) 
nan

$$$$
CHEMBL4792322
     RDKit          3D

  0  0  0  0  0  0  0  0  0  0999 V3000
M  V30 BEGIN CTAB
M  V30 COUNTS 47 50 0 0 0
M  V30 BEGIN ATOM
M  V30 1 N 2.736906 -5.447945 7.196899 0
M  V30 2 C 2.537756 -5.121747 6.099899 0
M  V30 3 C 2.291018 -4.696240 4.756141 0
M  V30 4 C 3.278420 -4.972475 3.852495 0
M  V30 5 N 3.166336 -4.631089 2.554765 0
M  V30 6 C 2.036812 -3.995617 2.142907 0
M  V30 7 N 1.782702 -3.601869 0.801492 0
M  V30 8 C 0.632346 -2.897269 0.356640 0
M  V30 9 C 0.648933 -1.593997 -0.093004 0
M  V30 10 C -0.460078 -0.903009 -0.515645 0
M  V30 11 N -0.443587 0.392143 -1.039897 0
M  V30 12 C 0.666315 1.308196 -1.145112 0
M  V30 13 C 1.148571 1.810589 0.187221 0 CFG=2
M  V30 14 C 0.048209 2.401316 1.022516 0
M  V30 15 N -0.369482 3.713856 0.559105 0
M  V30 16 C 0.829034 4.549594 0.653899 0
M  V30 17 C 1.822542 3.978176 -0.324087 0
M  V30 18 O 2.202272 2.712910 0.084396 0
M  V30 19 C -1.680360 -1.531220 -0.497484 0
M  V30 20 C -3.030168 -1.102739 -0.818852 0
M  V30 21 C -4.076619 -0.849133 0.197080 0
M  V30 22 C -3.634822 0.209694 -0.816155 0
M  V30 23 C -1.682106 -2.864237 -0.035811 0
M  V30 24 N -0.571839 -3.524865 0.375780 0
M  V30 25 C 1.040329 -3.715966 3.055226 0
M  V30 26 N 1.170878 -4.069514 4.368094 0
M  V30 27 H 4.206201 -5.482341 4.135591 0
M  V30 28 H 2.449003 -3.808138 0.018597 0
M  V30 29 H 1.626394 -1.143776 -0.102557 0
M  V30 30 H -1.272822 0.857220 -1.448830 0
M  V30 31 H 1.563813 0.819285 -1.618559 0
M  V30 32 H 0.514309 2.191223 -1.782023 0
M  V30 33 H 1.570428 0.980607 0.817017 0
M  V30 34 H 0.394017 2.406954 2.074937 0
M  V30 35 H -0.807912 1.674813 0.989835 0
M  V30 36 H -1.115345 4.036036 1.208337 0
M  V30 37 H 0.574737 5.587287 0.356354 0
M  V30 38 H 1.221496 4.591386 1.679450 0
M  V30 39 H 1.376501 4.015763 -1.340071 0
M  V30 40 H 2.735946 4.610775 -0.346982 0
M  V30 41 H -3.440783 -1.774295 -1.654045 0
M  V30 42 H -3.859881 -0.679821 1.270089 0
M  V30 43 H -5.103571 -1.258249 0.082270 0
M  V30 44 H -3.272104 1.163911 -0.426911 0
M  V30 45 H -4.430466 0.448912 -1.588438 0
M  V30 46 H -2.560890 -3.524600 0.049648 0
M  V30 47 H 0.130697 -3.214762 2.769375 0
M  V30 END ATOM
M  V30 BEGIN BOND
M  V30 1 3 1 2
M  V30 2 1 2 3
M  V30 3 2 3 4
M  V30 4 1 4 5
M  V30 5 2 5 6
M  V30 6 1 6 7
M  V30 7 1 7 8
M  V30 8 2 8 9
M  V30 9 1 9 10
M  V30 10 1 10 11
M  V30 11 1 11 12
M  V30 12 1 12 13
M  V30 13 1 13 14
M  V30 14 1 14 15
M  V30 15 1 15 16
M  V30 16 1 16 17
M  V30 17 1 17 18
M  V30 18 2 10 19
M  V30 19 1 19 20
M  V30 20 1 20 21
M  V30 21 1 21 22
M  V30 22 1 19 23
M  V30 23 2 23 24
M  V30 24 1 6 25
M  V30 25 2 25 26
M  V30 26 1 26 3
M  V30 27 1 24 8
M  V30 28 1 18 13
M  V30 29 1 22 20
M  V30 30 1 4 27
M  V30 31 1 7 28
M  V30 32 1 9 29
M  V30 33 1 11 30
M  V30 34 1 12 31
M  V30 35 1 12 32
M  V30 36 1 13 33 CFG=1
M  V30 37 1 14 34
M  V30 38 1 14 35
M  V30 39 1 15 36
M  V30 40 1 16 37
M  V30 41 1 16 38
M  V30 42 1 17 39
M  V30 43 1 17 40
M  V30 44 1 20 41
M  V30 45 1 21 42
M  V30 46 1 21 43
M  V30 47 1 22 44
M  V30 48 1 22 45
M  V30 49 1 23 46
M  V30 50 1 25 47
M  V30 END BOND
M  V30 END CTAB
M  END
>  <Dataset>  (505) 
ChEMBL_Kinases

>  <Ligand_Instance>  (505) 
nan

>  <PDB_ID>  (505) 
nan

>  <Standardized_SMILES>  (505) 
N#Cc1cnc(Nc2cc(NC[C@@H]3CNCCO3)c(C3CC3)cn2)cn1

>  <Name>  (505) 
nan

>  <Pocket>  (505) 
nan

>  <ATP_Site>  (505) 
nan

>  <Peripheral>  (505) 
nan

>  <Num_H_Atoms_ProtBoundConf>  (505) 
nan

>  <Num_Resolved_Atoms>  (505) 
nan

>  <Num_Not_Resolved_Atoms>  (505) 
nan

$$$$
CHEMBL4792401
     RDKit          3D

  0  0  0  0  0  0  0  0  0  0999 V3000
M  V30 BEGIN CTAB
M  V30 COUNTS 69 73 0 0 0
M  V30 BEGIN ATOM
M  V30 1 C -2.066634 -2.565980 -3.689428 0
M  V30 2 C -0.723818 -3.094244 -4.204873 0
M  V30 3 C -0.418190 -4.380139 -3.465467 0
M  V30 4 C -0.910416 -3.337682 -5.686169 0
M  V30 5 C 0.326515 -2.070364 -3.973958 0
M  V30 6 C 1.626210 -2.296948 -4.350347 0
M  V30 7 C 2.626422 -1.361227 -4.143600 0
M  V30 8 C 2.345900 -0.134773 -3.535769 0
M  V30 9 S 3.594770 1.033806 -3.283207 0
M  V30 10 O 4.574901 0.876921 -4.414873 0
M  V30 11 O 2.973299 2.402162 -3.386558 0
M  V30 12 N 4.463712 0.853054 -1.824088 0
M  V30 13 C 4.087039 0.901342 -0.456481 0
M  V30 14 C 2.974672 0.207280 -0.033706 0
M  V30 15 C 2.523254 0.183102 1.266596 0
M  V30 16 C 3.218474 0.897331 2.233304 0
M  V30 17 C 2.834287 0.946036 3.645129 0
M  V30 18 N 1.740695 0.256758 4.076122 0
M  V30 19 C 1.555128 0.427536 5.397018 0
M  V30 20 C 0.426046 -0.234709 6.049883 0
M  V30 21 C 0.551668 -0.786810 7.319526 0
M  V30 22 C -0.575536 -1.385967 7.834928 0
M  V30 23 N -1.739761 -1.447649 7.173224 0
M  V30 24 C -1.916815 -0.932368 5.947451 0
M  V30 25 N -3.182246 -1.024616 5.320789 0
M  V30 26 C -3.648513 -0.702261 4.026953 0
M  V30 27 C -2.903411 -0.796098 2.852332 0
M  V30 28 C -3.375516 -0.447807 1.608223 0
M  V30 29 C -4.665761 0.022495 1.513157 0
M  V30 30 O -5.175856 0.382853 0.277491 0
M  V30 31 C -5.070453 1.688574 -0.252357 0
M  V30 32 F -5.657401 1.793754 -1.496636 0
M  V30 33 F -5.605464 2.596711 0.637669 0
M  V30 34 F -3.737484 2.054689 -0.411341 0
M  V30 35 C -5.454666 0.138716 2.633758 0
M  V30 36 C -4.952234 -0.217810 3.864708 0
M  V30 37 C -0.795904 -0.331043 5.424028 0
M  V30 38 N 2.564875 1.237984 5.753143 0
M  V30 39 O 3.298977 1.529761 4.721780 0
M  V30 40 C 4.353177 1.613619 1.839012 0
M  V30 41 C 4.774342 1.613592 0.526483 0
M  V30 42 C 1.002314 0.020895 -3.182047 0
M  V30 43 C 0.000502 -0.877461 -3.371779 0
M  V30 44 H -2.363236 -1.648456 -4.241501 0
M  V30 45 H -1.906393 -2.384871 -2.594369 0
M  V30 46 H -2.829793 -3.372317 -3.724017 0
M  V30 47 H -0.482526 -5.216896 -4.173112 0
M  V30 48 H 0.562531 -4.293149 -2.957044 0
M  V30 49 H -1.166296 -4.552982 -2.649892 0
M  V30 50 H -1.967888 -3.670373 -5.849548 0
M  V30 51 H -0.198638 -4.113154 -6.017236 0
M  V30 52 H -0.652955 -2.403793 -6.215061 0
M  V30 53 H 1.835038 -3.258892 -4.824996 0
M  V30 54 H 3.649222 -1.572197 -4.453596 0
M  V30 55 H 5.510253 0.659477 -1.810283 0
M  V30 56 H 2.342917 -0.390965 -0.673570 0
M  V30 57 H 1.657798 -0.350207 1.621738 0
M  V30 58 H 1.487078 -0.742501 7.861022 0
M  V30 59 H -0.560752 -1.846608 8.833566 0
M  V30 60 H -3.963930 -1.419208 5.928176 0
M  V30 61 H -1.913159 -1.164697 2.877007 0
M  V30 62 H -2.752443 -0.538200 0.721380 0
M  V30 63 H -6.473923 0.501277 2.611182 0
M  V30 64 H -5.593763 -0.120499 4.754494 0
M  V30 65 H -0.841913 0.116169 4.466991 0
M  V30 66 H 4.911912 2.177559 2.573049 0
M  V30 67 H 5.664445 2.174696 0.208866 0
M  V30 68 H 0.791322 0.990264 -2.703250 0
M  V30 69 H -0.997167 -0.618269 -3.045696 0
M  V30 END ATOM
M  V30 BEGIN BOND
M  V30 1 1 1 2
M  V30 2 1 2 3
M  V30 3 1 2 4
M  V30 4 1 2 5
M  V30 5 2 5 6
M  V30 6 1 6 7
M  V30 7 2 7 8
M  V30 8 1 8 9
M  V30 9 2 9 10
M  V30 10 2 9 11
M  V30 11 1 9 12
M  V30 12 1 12 13
M  V30 13 2 13 14
M  V30 14 1 14 15
M  V30 15 2 15 16
M  V30 16 1 16 17
M  V30 17 2 17 18
M  V30 18 1 18 19
M  V30 19 1 19 20
M  V30 20 2 20 21
M  V30 21 1 21 22
M  V30 22 2 22 23
M  V30 23 1 23 24
M  V30 24 1 24 25
M  V30 25 1 25 26
M  V30 26 2 26 27
M  V30 27 1 27 28
M  V30 28 2 28 29
M  V30 29 1 29 30
M  V30 30 1 30 31
M  V30 31 1 31 32
M  V30 32 1 31 33
M  V30 33 1 31 34
M  V30 34 1 29 35
M  V30 35 2 35 36
M  V30 36 2 24 37
M  V30 37 2 19 38
M  V30 38 1 38 39
M  V30 39 1 16 40
M  V30 40 2 40 41
M  V30 41 1 8 42
M  V30 42 2 42 43
M  V30 43 1 43 5
M  V30 44 1 41 13
M  V30 45 1 39 17
M  V30 46 1 37 20
M  V30 47 1 36 26
M  V30 48 1 1 44
M  V30 49 1 1 45
M  V30 50 1 1 46
M  V30 51 1 3 47
M  V30 52 1 3 48
M  V30 53 1 3 49
M  V30 54 1 4 50
M  V30 55 1 4 51
M  V30 56 1 4 52
M  V30 57 1 6 53
M  V30 58 1 7 54
M  V30 59 1 12 55
M  V30 60 1 14 56
M  V30 61 1 15 57
M  V30 62 1 21 58
M  V30 63 1 22 59
M  V30 64 1 25 60
M  V30 65 1 27 61
M  V30 66 1 28 62
M  V30 67 1 35 63
M  V30 68 1 36 64
M  V30 69 1 37 65
M  V30 70 1 40 66
M  V30 71 1 41 67
M  V30 72 1 42 68
M  V30 73 1 43 69
M  V30 END BOND
M  V30 END CTAB
M  END
>  <Dataset>  (506) 
ChEMBL_Kinases

>  <Ligand_Instance>  (506) 
nan

>  <PDB_ID>  (506) 
nan

>  <Standardized_SMILES>  (506) 
CC(C)(C)c1ccc(S(=O)(=O)Nc2ccc(-c3nc(-c4ccnc(Nc5ccc(OC(F)(F)F)cc5)c4)no3)cc2)cc1

>  <Name>  (506) 
nan

>  <Pocket>  (506) 
nan

>  <ATP_Site>  (506) 
nan

>  <Peripheral>  (506) 
nan

>  <Num_H_Atoms_ProtBoundConf>  (506) 
nan

>  <Num_Resolved_Atoms>  (506) 
nan

>  <Num_Not_Resolved_Atoms>  (506) 
nan

$$$$
CHEMBL4792741
     RDKit          3D

  0  0  0  0  0  0  0  0  0  0999 V3000
M  V30 BEGIN CTAB
M  V30 COUNTS 67 71 0 0 0
M  V30 BEGIN ATOM
M  V30 1 C 4.133255 -4.655833 6.275793 0
M  V30 2 N 3.822872 -3.421572 5.576580 0
M  V30 3 C 2.926185 -3.629879 4.535199 0
M  V30 4 O 2.514565 -4.793641 4.334198 0
M  V30 5 C 2.402681 -2.542546 3.613700 0
M  V30 6 S 3.012617 -0.894250 3.931227 0
M  V30 7 C 1.996042 -0.174343 2.502906 0
M  V30 8 C 2.140656 1.319950 2.292648 0
M  V30 9 C 2.949582 2.098323 3.083141 0
M  V30 10 C 2.977963 3.443450 2.768184 0
M  V30 11 N 2.251826 3.954240 1.744055 0
M  V30 12 C 1.473435 3.126879 1.003724 0
M  V30 13 N 0.721741 3.700841 -0.068622 0
M  V30 14 C -0.548385 4.101399 0.430034 0
M  V30 15 O -0.751522 3.879221 1.671794 0
M  V30 16 C -1.664394 4.742961 -0.307512 0
M  V30 17 C -2.535428 5.666894 0.467725 0
M  V30 18 C -3.034854 4.328938 0.092832 0
M  V30 19 C 1.372898 1.750757 1.238192 0
M  V30 20 N 1.536852 -1.131722 2.190308 0
M  V30 21 C 1.567395 -2.380523 2.551479 0
M  V30 22 O 1.102582 -3.619035 2.307828 0
M  V30 23 C 0.245668 -4.130844 1.386253 0
M  V30 24 C 0.559291 -4.079786 -0.057031 0
M  V30 25 C -0.605203 -4.759452 -0.778823 0
M  V30 26 C -1.545141 -3.736331 -1.320811 0
M  V30 27 N -1.536543 -2.479175 -0.600826 0
M  V30 28 C -2.657975 -1.650074 -0.903615 0
M  V30 29 C -2.789448 -1.255853 -2.315828 0
M  V30 30 C -3.521475 -2.077864 -3.174806 0
M  V30 31 C -3.697584 -1.788264 -4.507242 0
M  V30 32 C -3.151339 -0.658853 -5.058288 0
M  V30 33 Br -3.431846 -0.315008 -6.911464 0
M  V30 34 C -2.427634 0.153570 -4.208561 0
M  V30 35 C -2.245785 -0.124599 -2.880854 0
M  V30 36 C -0.251341 -1.811616 -0.725660 0
M  V30 37 C 0.891872 -2.772577 -0.675042 0
M  V30 38 H 5.017822 -4.456332 6.916552 0
M  V30 39 H 4.287196 -5.496896 5.585021 0
M  V30 40 H 3.291984 -4.847921 6.973213 0
M  V30 41 H 4.168563 -2.455477 5.748409 0
M  V30 42 H 3.509665 1.667195 3.882600 0
M  V30 43 H 3.628375 4.059257 3.406320 0
M  V30 44 H 0.856685 3.896434 -1.087968 0
M  V30 45 H -1.446899 4.915514 -1.372716 0
M  V30 46 H -2.957352 6.542744 -0.064658 0
M  V30 47 H -2.280715 5.882783 1.539707 0
M  V30 48 H -3.172806 3.617620 0.952022 0
M  V30 49 H -3.816935 4.195738 -0.685657 0
M  V30 50 H 0.747580 1.116011 0.635793 0
M  V30 51 H -0.827047 -3.753484 1.550589 0
M  V30 52 H 0.113059 -5.234038 1.625536 0
M  V30 53 H 1.441713 -4.760649 -0.234649 0
M  V30 54 H -0.223220 -5.348353 -1.636827 0
M  V30 55 H -1.147448 -5.430873 -0.108324 0
M  V30 56 H -2.572278 -4.135541 -1.270291 0
M  V30 57 H -1.297455 -3.455648 -2.383255 0
M  V30 58 H -2.563375 -0.739866 -0.266533 0
M  V30 59 H -3.572909 -2.160685 -0.517569 0
M  V30 60 H -3.989457 -2.990332 -2.830465 0
M  V30 61 H -4.279389 -2.457128 -5.154166 0
M  V30 62 H -1.996406 1.055415 -4.667021 0
M  V30 63 H -1.674130 0.535613 -2.249197 0
M  V30 64 H -0.129049 -1.008148 0.001242 0
M  V30 65 H -0.257090 -1.322226 -1.724245 0
M  V30 66 H 1.185138 -2.989065 -1.762011 0
M  V30 67 H 1.762861 -2.325660 -0.199495 0
M  V30 END ATOM
M  V30 BEGIN BOND
M  V30 1 1 1 2
M  V30 2 1 2 3
M  V30 3 2 3 4
M  V30 4 1 3 5
M  V30 5 1 5 6
M  V30 6 1 6 7
M  V30 7 1 7 8
M  V30 8 2 8 9
M  V30 9 1 9 10
M  V30 10 2 10 11
M  V30 11 1 11 12
M  V30 12 1 12 13
M  V30 13 1 13 14
M  V30 14 2 14 15
M  V30 15 1 14 16
M  V30 16 1 16 17
M  V30 17 1 17 18
M  V30 18 2 12 19
M  V30 19 2 7 20
M  V30 20 1 20 21
M  V30 21 1 21 22
M  V30 22 1 22 23
M  V30 23 1 23 24
M  V30 24 1 24 25
M  V30 25 1 25 26
M  V30 26 1 26 27
M  V30 27 1 27 28
M  V30 28 1 28 29
M  V30 29 2 29 30
M  V30 30 1 30 31
M  V30 31 2 31 32
M  V30 32 1 32 33
M  V30 33 1 32 34
M  V30 34 2 34 35
M  V30 35 1 27 36
M  V30 36 1 36 37
M  V30 37 2 21 5
M  V30 38 1 37 24
M  V30 39 1 19 8
M  V30 40 1 35 29
M  V30 41 1 18 16
M  V30 42 1 1 38
M  V30 43 1 1 39
M  V30 44 1 1 40
M  V30 45 1 2 41
M  V30 46 1 9 42
M  V30 47 1 10 43
M  V30 48 1 13 44
M  V30 49 1 16 45
M  V30 50 1 17 46
M  V30 51 1 17 47
M  V30 52 1 18 48
M  V30 53 1 18 49
M  V30 54 1 19 50
M  V30 55 1 23 51
M  V30 56 1 23 52
M  V30 57 1 24 53
M  V30 58 1 25 54
M  V30 59 1 25 55
M  V30 60 1 26 56
M  V30 61 1 26 57
M  V30 62 1 28 58
M  V30 63 1 28 59
M  V30 64 1 30 60
M  V30 65 1 31 61
M  V30 66 1 34 62
M  V30 67 1 35 63
M  V30 68 1 36 64
M  V30 69 1 36 65
M  V30 70 1 37 66
M  V30 71 1 37 67
M  V30 END BOND
M  V30 END CTAB
M  END
>  <Dataset>  (507) 
ChEMBL_Kinases

>  <Ligand_Instance>  (507) 
nan

>  <PDB_ID>  (507) 
nan

>  <Standardized_SMILES>  (507) 
CNC(=O)c1sc(-c2ccnc(NC(=O)C3CC3)c2)nc1OCC1CCN(Cc2ccc(Br)cc2)CC1

>  <Name>  (507) 
nan

>  <Pocket>  (507) 
nan

>  <ATP_Site>  (507) 
nan

>  <Peripheral>  (507) 
nan

>  <Num_H_Atoms_ProtBoundConf>  (507) 
nan

>  <Num_Resolved_Atoms>  (507) 
nan

>  <Num_Not_Resolved_Atoms>  (507) 
nan

$$$$
CHEMBL4792449
     RDKit          3D

  0  0  0  0  0  0  0  0  0  0999 V3000
M  V30 BEGIN CTAB
M  V30 COUNTS 49 51 0 0 0
M  V30 BEGIN ATOM
M  V30 1 C 4.565123 0.629318 3.215486 0
M  V30 2 C 4.951824 1.630204 2.138378 0
M  V30 3 C 6.251911 2.267100 2.721540 0
M  V30 4 C 3.950983 2.719318 2.105755 0
M  V30 5 O 2.649127 2.366833 1.848723 0
M  V30 6 C 5.286685 0.984784 0.821523 0
M  V30 7 N 4.249775 0.195606 0.232223 0
M  V30 8 C 3.029260 0.622866 -0.331636 0
M  V30 9 N 2.951434 1.616746 -1.124182 0
M  V30 10 C 1.695270 1.927146 -1.606363 0
M  V30 11 O 1.351575 2.849619 -2.390879 0
M  V30 12 C 0.602829 1.060930 -1.140105 0
M  V30 13 C -0.701304 0.937030 -1.339740 0
M  V30 14 C -1.507128 -0.096126 -0.665942 0
M  V30 15 C -1.168435 -0.165446 0.741090 0
M  V30 16 S -2.305752 -1.558343 1.330289 0
M  V30 17 C -2.979013 -1.751524 -0.388726 0
M  V30 18 C -4.034032 -2.802681 -0.729650 0
M  V30 19 C -4.548448 -2.974570 -1.994554 0
M  V30 20 C -5.470885 -3.976735 -2.171608 0
M  V30 21 C -5.867457 -4.777012 -1.134119 0
M  V30 22 C -5.381418 -4.642504 0.149411 0
M  V30 23 O -5.746938 -5.429131 1.242716 0
M  V30 24 C -6.841771 -5.153722 2.085074 0
M  V30 25 F -6.750062 -3.930798 2.713289 0
M  V30 26 F -6.800814 -6.100522 3.117230 0
M  V30 27 F -8.065269 -5.320174 1.468358 0
M  V30 28 C -4.459030 -3.632964 0.305369 0
M  V30 29 O -3.947610 -3.470934 1.599845 0
M  V30 30 N -2.420548 -0.971901 -0.987380 0
M  V30 31 S 1.429929 -0.119004 -0.027297 0
M  V30 32 H 5.070521 -0.329381 3.141567 0
M  V30 33 H 3.469741 0.460967 3.152749 0
M  V30 34 H 4.717464 1.111895 4.209796 0
M  V30 35 H 5.972478 2.698928 3.697356 0
M  V30 36 H 6.624032 2.969676 1.980626 0
M  V30 37 H 6.979494 1.455283 2.960920 0
M  V30 38 H 3.929172 3.281613 3.084773 0
M  V30 39 H 4.245097 3.486174 1.328829 0
M  V30 40 H 2.028663 3.033272 2.243000 0
M  V30 41 H 6.263760 0.452194 0.860458 0
M  V30 42 H 5.481120 1.840965 0.116917 0
M  V30 43 H 4.447849 -0.856545 0.235292 0
M  V30 44 H -1.092449 1.660468 -2.030603 0
M  V30 45 H -0.524986 0.282876 1.528741 0
M  V30 46 H -4.127353 -2.260947 -2.684587 0
M  V30 47 H -5.835138 -4.059887 -3.183964 0
M  V30 48 H -6.600801 -5.562963 -1.307615 0
M  V30 49 H -4.425575 -2.705449 2.107230 0
M  V30 END ATOM
M  V30 BEGIN BOND
M  V30 1 1 1 2
M  V30 2 1 2 3
M  V30 3 1 2 4
M  V30 4 1 4 5
M  V30 5 1 2 6
M  V30 6 1 6 7
M  V30 7 1 7 8
M  V30 8 2 8 9
M  V30 9 1 9 10
M  V30 10 2 10 11
M  V30 11 1 10 12
M  V30 12 2 12 13
M  V30 13 1 13 14
M  V30 14 2 14 15
M  V30 15 1 15 16
M  V30 16 1 16 17
M  V30 17 1 17 18
M  V30 18 2 18 19
M  V30 19 1 19 20
M  V30 20 2 20 21
M  V30 21 1 21 22
M  V30 22 1 22 23
M  V30 23 1 23 24
M  V30 24 1 24 25
M  V30 25 1 24 26
M  V30 26 1 24 27
M  V30 27 2 22 28
M  V30 28 1 28 29
M  V30 29 2 17 30
M  V30 30 1 12 31
M  V30 31 1 31 8
M  V30 32 1 30 14
M  V30 33 1 28 18
M  V30 34 1 1 32
M  V30 35 1 1 33
M  V30 36 1 1 34
M  V30 37 1 3 35
M  V30 38 1 3 36
M  V30 39 1 3 37
M  V30 40 1 4 38
M  V30 41 1 4 39
M  V30 42 1 5 40
M  V30 43 1 6 41
M  V30 44 1 6 42
M  V30 45 1 7 43
M  V30 46 1 13 44
M  V30 47 1 15 45
M  V30 48 1 19 46
M  V30 49 1 20 47
M  V30 50 1 21 48
M  V30 51 1 29 49
M  V30 END BOND
M  V30 END CTAB
M  END
>  <Dataset>  (508) 
ChEMBL_Kinases

>  <Ligand_Instance>  (508) 
nan

>  <PDB_ID>  (508) 
nan

>  <Standardized_SMILES>  (508) 
CC(C)(CO)CNC1=NC(=O)/C(=C/c2csc(-c3cccc(OC(F)(F)F)c3O)n2)S1

>  <Name>  (508) 
nan

>  <Pocket>  (508) 
nan

>  <ATP_Site>  (508) 
nan

>  <Peripheral>  (508) 
nan

>  <Num_H_Atoms_ProtBoundConf>  (508) 
nan

>  <Num_Resolved_Atoms>  (508) 
nan

>  <Num_Not_Resolved_Atoms>  (508) 
nan

$$$$
CHEMBL479245
     RDKit          3D

  0  0  0  0  0  0  0  0  0  0999 V3000
M  V30 BEGIN CTAB
M  V30 COUNTS 47 50 0 0 0
M  V30 BEGIN ATOM
M  V30 1 O 2.554507 -3.364859 -0.673386 0
M  V30 2 C 1.359300 -3.301560 -1.129727 0
M  V30 3 N 0.754707 -4.279546 -1.976432 0
M  V30 4 C 1.463300 -5.442706 -2.412400 0
M  V30 5 C 2.631052 -5.212622 -3.324323 0
M  V30 6 C 2.333441 -4.586740 -4.670539 0
M  V30 7 C 3.005443 -3.798123 -3.605903 0
M  V30 8 C 0.629266 -2.111953 -0.706695 0
M  V30 9 C 1.238501 -1.182725 0.110627 0
M  V30 10 C 0.612115 -0.013824 0.563943 0
M  V30 11 C -0.690281 0.228028 0.173709 0
M  V30 12 C -1.314961 1.456777 0.664000 0
M  V30 13 C -1.121463 1.732825 2.003480 0
M  V30 14 C -1.635130 2.834700 2.613671 0
M  V30 15 C -1.469560 3.187898 4.024425 0
M  V30 16 O -1.969131 4.224184 4.539990 0
M  V30 17 N -0.737283 2.402091 4.933242 0
M  V30 18 C -0.541878 2.701517 6.331575 0
M  V30 19 C 0.628162 2.171761 7.068870 0
M  V30 20 C -0.734270 1.509600 7.246463 0
M  V30 21 C -2.389530 3.717178 1.839097 0
M  V30 22 C -2.604240 3.473752 0.495575 0
M  V30 23 C -2.064882 2.342429 -0.086887 0
M  V30 24 F -2.228441 2.031785 -1.394748 0
M  V30 25 C -1.335174 -0.678911 -0.644751 0
M  V30 26 C -0.669844 -1.813794 -1.061281 0
M  V30 27 H -0.225145 -4.181021 -2.307515 0
M  V30 28 H 1.918923 -5.924067 -1.485201 0
M  V30 29 H 0.781009 -6.239476 -2.791130 0
M  V30 30 H 3.433441 -5.989622 -3.332432 0
M  V30 31 H 2.886567 -4.974160 -5.533675 0
M  V30 32 H 1.297213 -4.310665 -4.917334 0
M  V30 33 H 2.461998 -2.914718 -3.239272 0
M  V30 34 H 4.064979 -3.543488 -3.850084 0
M  V30 35 H 2.260438 -1.288515 0.468002 0
M  V30 36 H 1.120443 0.692616 1.203911 0
M  V30 37 H -0.547300 1.079889 2.635632 0
M  V30 38 H -0.274542 1.510670 4.611085 0
M  V30 39 H -1.022814 3.639595 6.693457 0
M  V30 40 H 1.403289 1.588856 6.540417 0
M  V30 41 H 0.970653 2.769853 7.924938 0
M  V30 42 H -1.253367 1.627199 8.214616 0
M  V30 43 H -0.833181 0.491986 6.815177 0
M  V30 44 H -2.817820 4.614408 2.299077 0
M  V30 45 H -3.192567 4.161521 -0.109539 0
M  V30 46 H -2.347987 -0.476701 -0.939607 0
M  V30 47 H -1.197866 -2.505594 -1.700521 0
M  V30 END ATOM
M  V30 BEGIN BOND
M  V30 1 2 1 2
M  V30 2 1 2 3
M  V30 3 1 3 4
M  V30 4 1 4 5
M  V30 5 1 5 6
M  V30 6 1 6 7
M  V30 7 1 2 8
M  V30 8 2 8 9
M  V30 9 1 9 10
M  V30 10 2 10 11
M  V30 11 1 11 12
M  V30 12 2 12 13
M  V30 13 1 13 14
M  V30 14 1 14 15
M  V30 15 2 15 16
M  V30 16 1 15 17
M  V30 17 1 17 18
M  V30 18 1 18 19
M  V30 19 1 19 20
M  V30 20 2 14 21
M  V30 21 1 21 22
M  V30 22 2 22 23
M  V30 23 1 23 24
M  V30 24 1 11 25
M  V30 25 2 25 26
M  V30 26 1 7 5
M  V30 27 1 26 8
M  V30 28 1 23 12
M  V30 29 1 20 18
M  V30 30 1 3 27
M  V30 31 1 4 28
M  V30 32 1 4 29
M  V30 33 1 5 30
M  V30 34 1 6 31
M  V30 35 1 6 32
M  V30 36 1 7 33
M  V30 37 1 7 34
M  V30 38 1 9 35
M  V30 39 1 10 36
M  V30 40 1 13 37
M  V30 41 1 17 38
M  V30 42 1 18 39
M  V30 43 1 19 40
M  V30 44 1 19 41
M  V30 45 1 20 42
M  V30 46 1 20 43
M  V30 47 1 21 44
M  V30 48 1 22 45
M  V30 49 1 25 46
M  V30 50 1 26 47
M  V30 END BOND
M  V30 END CTAB
M  END
>  <Dataset>  (509) 
ChEMBL_Kinases

>  <Ligand_Instance>  (509) 
nan

>  <PDB_ID>  (509) 
nan

>  <Standardized_SMILES>  (509) 
O=C(NCC1CC1)c1ccc(-c2cc(C(=O)NC3CC3)ccc2F)cc1

>  <Name>  (509) 
nan

>  <Pocket>  (509) 
nan

>  <ATP_Site>  (509) 
nan

>  <Peripheral>  (509) 
nan

>  <Num_H_Atoms_ProtBoundConf>  (509) 
nan

>  <Num_Resolved_Atoms>  (509) 
nan

>  <Num_Not_Resolved_Atoms>  (509) 
nan

$$$$
CHEMBL4792464
     RDKit          3D

  0  0  0  0  0  0  0  0  0  0999 V3000
M  V30 BEGIN CTAB
M  V30 COUNTS 48 51 0 0 0
M  V30 BEGIN ATOM
M  V30 1 C 0.007970 -5.820901 1.933916 0
M  V30 2 O 0.112054 -4.683018 1.121644 0
M  V30 3 C -0.944621 -4.209380 0.357145 0
M  V30 4 C -0.781885 -3.072497 -0.431636 0
M  V30 5 C -1.818267 -2.560304 -1.217161 0
M  V30 6 C -1.468726 -1.349179 -1.989122 0
M  V30 7 C -1.723839 -1.016508 -3.312467 0
M  V30 8 N -1.184232 0.216914 -3.517542 0
M  V30 9 N -0.622519 0.639165 -2.394613 0
M  V30 10 C 0.031984 1.791211 -2.109758 0
M  V30 11 C 0.548680 2.023844 -0.835174 0
M  V30 12 O 1.228358 3.184986 -0.484766 0
M  V30 13 C 1.379196 4.163370 -1.524749 0
M  V30 14 C 0.387709 1.061150 0.148386 0
M  V30 15 C 0.927576 1.288954 1.503981 0 CFG=1
M  V30 16 C -0.054599 1.966692 2.425300 0
M  V30 17 O 0.311251 1.604077 3.724330 0
M  V30 18 C 1.143113 0.519198 3.669207 0
M  V30 19 C 0.725154 -0.547653 4.675814 0
M  V30 20 C 2.598735 0.930644 3.899252 0
M  V30 21 C 1.088010 -0.021119 2.254434 0
M  V30 22 N -0.274559 -0.088334 -0.165006 0
M  V30 23 C -0.766705 -0.284007 -1.419226 0
M  V30 24 C -3.033473 -3.209791 -1.201564 0
M  V30 25 C -3.160862 -4.325732 -0.414773 0
M  V30 26 N -2.163298 -4.818395 0.341073 0
M  V30 27 H 0.579635 -5.668962 2.881922 0
M  V30 28 H 0.420549 -6.731586 1.473536 0
M  V30 29 H -1.060015 -6.042565 2.154384 0
M  V30 30 H 0.205684 -2.600883 -0.402204 0
M  V30 31 H -2.264010 -1.724898 -3.923426 0
M  V30 32 H 0.168339 2.551737 -2.857689 0
M  V30 33 H 0.400719 4.405238 -1.997688 0
M  V30 34 H 1.781832 5.094968 -1.112245 0
M  V30 35 H 2.005042 3.726517 -2.313357 0
M  V30 36 H 1.884749 1.833128 1.522778 0
M  V30 37 H 0.077278 3.061684 2.347917 0
M  V30 38 H -1.079412 1.602770 2.295022 0
M  V30 39 H 0.119230 -1.314417 4.168076 0
M  V30 40 H 1.666085 -0.946171 5.108832 0
M  V30 41 H 0.073840 -0.082876 5.468471 0
M  V30 42 H 2.930093 0.699770 4.937869 0
M  V30 43 H 3.295076 0.348423 3.233317 0
M  V30 44 H 2.774816 1.997325 3.647138 0
M  V30 45 H 0.170183 -0.606868 2.089626 0
M  V30 46 H 2.010939 -0.567813 1.979314 0
M  V30 47 H -3.783246 -2.765463 -1.825141 0
M  V30 48 H -4.125585 -4.819658 -0.418653 0
M  V30 END ATOM
M  V30 BEGIN BOND
M  V30 1 1 1 2
M  V30 2 1 2 3
M  V30 3 2 3 4
M  V30 4 1 4 5
M  V30 5 1 5 6
M  V30 6 1 6 7
M  V30 7 2 7 8
M  V30 8 1 8 9
M  V30 9 1 9 10
M  V30 10 2 10 11
M  V30 11 1 11 12
M  V30 12 1 12 13
M  V30 13 1 11 14
M  V30 14 1 14 15
M  V30 15 1 15 16
M  V30 16 1 16 17
M  V30 17 1 17 18
M  V30 18 1 18 19
M  V30 19 1 18 20
M  V30 20 1 18 21
M  V30 21 2 14 22
M  V30 22 1 22 23
M  V30 23 2 5 24
M  V30 24 1 24 25
M  V30 25 2 25 26
M  V30 26 1 26 3
M  V30 27 2 23 6
M  V30 28 1 23 9
M  V30 29 1 21 15
M  V30 30 1 1 27
M  V30 31 1 1 28
M  V30 32 1 1 29
M  V30 33 1 4 30
M  V30 34 1 7 31
M  V30 35 1 10 32
M  V30 36 1 13 33
M  V30 37 1 13 34
M  V30 38 1 13 35
M  V30 39 1 15 36 CFG=3
M  V30 40 1 16 37
M  V30 41 1 16 38
M  V30 42 1 19 39
M  V30 43 1 19 40
M  V30 44 1 19 41
M  V30 45 1 20 42
M  V30 46 1 20 43
M  V30 47 1 20 44
M  V30 48 1 21 45
M  V30 49 1 21 46
M  V30 50 1 24 47
M  V30 51 1 25 48
M  V30 END BOND
M  V30 END CTAB
M  END
>  <Dataset>  (510) 
ChEMBL_Kinases

>  <Ligand_Instance>  (510) 
nan

>  <PDB_ID>  (510) 
nan

>  <Standardized_SMILES>  (510) 
COc1cc(-c2cnn3cc(OC)c([C@H]4COC(C)(C)C4)nc23)ccn1

>  <Name>  (510) 
nan

>  <Pocket>  (510) 
nan

>  <ATP_Site>  (510) 
nan

>  <Peripheral>  (510) 
nan

>  <Num_H_Atoms_ProtBoundConf>  (510) 
nan

>  <Num_Resolved_Atoms>  (510) 
nan

>  <Num_Not_Resolved_Atoms>  (510) 
nan

$$$$
CHEMBL4792540
     RDKit          3D

  0  0  0  0  0  0  0  0  0  0999 V3000
M  V30 BEGIN CTAB
M  V30 COUNTS 39 42 0 0 0
M  V30 BEGIN ATOM
M  V30 1 F -1.433343 -5.882589 1.381412 0
M  V30 2 C -0.841109 -4.861485 2.103574 0
M  V30 3 F 0.073445 -5.406358 2.981623 0
M  V30 4 F -1.809153 -4.154985 2.754674 0
M  V30 5 C -0.189063 -3.938776 1.139665 0
M  V30 6 C -0.233856 -4.175302 -0.211194 0
M  V30 7 N 0.328915 -3.388918 -1.144291 0
M  V30 8 C 0.983145 -2.286400 -0.674038 0
M  V30 9 N 1.682978 -1.229690 -1.367000 0
M  V30 10 C 1.183828 0.126032 -1.286413 0
M  V30 11 C 1.896638 1.097292 -1.959974 0
M  V30 12 N 1.422740 2.356052 -1.851233 0
M  V30 13 C 0.325700 2.645472 -1.132149 0
M  V30 14 C -0.104686 3.959902 -1.057005 0
M  V30 15 C -1.232095 4.219331 -0.305114 0
M  V30 16 C -1.942665 3.262238 0.364176 0
M  V30 17 C -1.522437 1.947552 0.296089 0
M  V30 18 C -0.387984 1.663835 -0.456450 0
M  V30 19 C 0.055449 0.361184 -0.536466 0
M  V30 20 N 1.025487 -2.057009 0.649417 0
M  V30 21 C 0.482770 -2.806652 1.601474 0
M  V30 22 N 0.572826 -2.484324 2.994535 0
M  V30 23 C 1.177078 -1.376174 3.672319 0
M  V30 24 C 0.558341 -0.012293 3.337283 0
M  V30 25 C 1.942695 -0.347513 2.953060 0
M  V30 26 H -0.751428 -5.047687 -0.567847 0
M  V30 27 H 2.519993 -1.476638 -1.902583 0
M  V30 28 H 2.766219 0.856077 -2.528467 0
M  V30 29 H 0.393346 4.795912 -1.555245 0
M  V30 30 H -1.572082 5.226909 -0.239213 0
M  V30 31 H -2.818380 3.393476 0.960605 0
M  V30 32 H -2.040572 1.118537 0.805023 0
M  V30 33 H -0.504703 -0.381299 -0.013311 0
M  V30 34 H 0.096851 -3.212526 3.612013 0
M  V30 35 H 1.382943 -1.561853 4.761188 0
M  V30 36 H -0.186664 0.010925 2.537871 0
M  V30 37 H 0.359771 0.632447 4.223719 0
M  V30 38 H 2.722871 0.253896 3.505372 0
M  V30 39 H 2.203153 -0.479401 1.899014 0
M  V30 END ATOM
M  V30 BEGIN BOND
M  V30 1 1 1 2
M  V30 2 1 2 3
M  V30 3 1 2 4
M  V30 4 1 2 5
M  V30 5 2 5 6
M  V30 6 1 6 7
M  V30 7 2 7 8
M  V30 8 1 8 9
M  V30 9 1 9 10
M  V30 10 2 10 11
M  V30 11 1 11 12
M  V30 12 2 12 13
M  V30 13 1 13 14
M  V30 14 2 14 15
M  V30 15 1 15 16
M  V30 16 2 16 17
M  V30 17 1 17 18
M  V30 18 2 18 19
M  V30 19 1 8 20
M  V30 20 2 20 21
M  V30 21 1 21 22
M  V30 22 1 22 23
M  V30 23 1 23 24
M  V30 24 1 24 25
M  V30 25 1 21 5
M  V30 26 1 25 23
M  V30 27 1 19 10
M  V30 28 1 18 13
M  V30 29 1 6 26
M  V30 30 1 9 27
M  V30 31 1 11 28
M  V30 32 1 14 29
M  V30 33 1 15 30
M  V30 34 1 16 31
M  V30 35 1 17 32
M  V30 36 1 19 33
M  V30 37 1 22 34
M  V30 38 1 23 35
M  V30 39 1 24 36
M  V30 40 1 24 37
M  V30 41 1 25 38
M  V30 42 1 25 39
M  V30 END BOND
M  V30 END CTAB
M  END
>  <Dataset>  (511) 
ChEMBL_Kinases

>  <Ligand_Instance>  (511) 
nan

>  <PDB_ID>  (511) 
nan

>  <Standardized_SMILES>  (511) 
FC(F)(F)c1cnc(Nc2cnc3ccccc3c2)nc1NC1CC1

>  <Name>  (511) 
nan

>  <Pocket>  (511) 
nan

>  <ATP_Site>  (511) 
nan

>  <Peripheral>  (511) 
nan

>  <Num_H_Atoms_ProtBoundConf>  (511) 
nan

>  <Num_Resolved_Atoms>  (511) 
nan

>  <Num_Not_Resolved_Atoms>  (511) 
nan

$$$$
CHEMBL4792541
     RDKit          3D

  0  0  0  0  0  0  0  0  0  0999 V3000
M  V30 BEGIN CTAB
M  V30 COUNTS 27 29 0 0 0
M  V30 BEGIN ATOM
M  V30 1 O 0.045629 -4.138259 4.220680 0
M  V30 2 C 0.349886 -3.105008 3.519391 0
M  V30 3 O -0.592811 -2.773766 2.531827 0
M  V30 4 C 1.508854 -2.158378 3.511975 0
M  V30 5 S 2.835710 -2.639278 2.406851 0
M  V30 6 C 2.342565 -2.683643 0.681686 0
M  V30 7 N 2.600791 -3.610296 -0.239968 0
M  V30 8 C 2.052536 -3.389350 -1.459484 0
M  V30 9 N 1.289924 -2.374116 -1.867745 0
M  V30 10 C 0.984851 -1.385345 -0.953242 0
M  V30 11 C 0.218982 -0.301414 -1.153930 0
M  V30 12 C -0.008252 0.558397 -0.165795 0
M  V30 13 C -0.755065 1.796839 -0.004339 0
M  V30 14 C -1.378007 2.524135 -0.900892 0
M  V30 15 C -2.083768 3.722650 -0.629457 0
M  V30 16 C -1.979634 3.976870 0.842797 0
M  V30 17 S -0.985115 2.606348 1.524325 0
M  V30 18 S 0.876240 -0.121107 1.174708 0
M  V30 19 C 1.527556 -1.551156 0.350852 0
M  V30 20 H -1.576904 -3.088856 2.589020 0
M  V30 21 H 1.127479 -1.144627 3.413288 0
M  V30 22 H 1.982538 -2.153496 4.555137 0
M  V30 23 H 2.290335 -4.199390 -2.166196 0
M  V30 24 H -0.277525 -0.039971 -2.085087 0
M  V30 25 H -1.381670 2.207209 -1.936934 0
M  V30 26 H -2.600103 4.321505 -1.357222 0
M  V30 27 H -2.569362 4.999141 1.075987 0
M  V30 END ATOM
M  V30 BEGIN BOND
M  V30 1 2 1 2
M  V30 2 1 2 3
M  V30 3 1 2 4
M  V30 4 1 4 5
M  V30 5 1 5 6
M  V30 6 2 6 7
M  V30 7 1 7 8
M  V30 8 2 8 9
M  V30 9 1 9 10
M  V30 10 1 10 11
M  V30 11 2 11 12
M  V30 12 1 12 13
M  V30 13 2 13 14
M  V30 14 1 14 15
M  V30 15 2 15 16
M  V30 16 1 16 17
M  V30 17 1 12 18
M  V30 18 1 18 19
M  V30 19 1 19 6
M  V30 20 2 19 10
M  V30 21 1 17 13
M  V30 22 1 3 20
M  V30 23 1 4 21
M  V30 24 1 4 22
M  V30 25 1 8 23
M  V30 26 1 11 24
M  V30 27 1 14 25
M  V30 28 1 15 26
M  V30 29 1 16 27
M  V30 END BOND
M  V30 END CTAB
M  END
>  <Dataset>  (512) 
ChEMBL_Kinases

>  <Ligand_Instance>  (512) 
nan

>  <PDB_ID>  (512) 
nan

>  <Standardized_SMILES>  (512) 
O=C(O)CSc1ncnc2cc(-c3cccs3)sc12

>  <Name>  (512) 
nan

>  <Pocket>  (512) 
nan

>  <ATP_Site>  (512) 
nan

>  <Peripheral>  (512) 
nan

>  <Num_H_Atoms_ProtBoundConf>  (512) 
nan

>  <Num_Resolved_Atoms>  (512) 
nan

>  <Num_Not_Resolved_Atoms>  (512) 
nan

$$$$
CHEMBL479257
     RDKit          3D

  0  0  0  0  0  0  0  0  0  0999 V3000
M  V30 BEGIN CTAB
M  V30 COUNTS 55 57 0 0 0
M  V30 BEGIN ATOM
M  V30 1 C -0.082591 -0.517905 4.179241 0
M  V30 2 C 0.556922 0.448897 3.287041 0
M  V30 3 C 1.576574 1.228978 3.796093 0
M  V30 4 C 2.183450 2.136217 2.965075 0
M  V30 5 C 1.759897 2.241102 1.655721 0
M  V30 6 N 2.431893 3.210264 0.820907 0
M  V30 7 C 3.514609 2.558740 0.217483 0
M  V30 8 O 3.646972 1.347782 0.522918 0
M  V30 9 C 4.496135 3.185571 -0.737710 0
M  V30 10 C 5.491544 2.091917 -1.133106 0
M  V30 11 C 6.216017 1.556922 0.071386 0
M  V30 12 C 4.839490 0.998648 -1.932288 0
M  V30 13 C 0.738511 1.451202 1.167908 0
M  V30 14 C 0.103771 0.522294 1.985863 0
M  V30 15 C -0.950402 -0.259763 1.400354 0
M  V30 16 C -2.183060 -0.525494 1.939614 0
M  V30 17 C -3.075268 -1.303646 1.232056 0
M  V30 18 C -2.835618 -1.856939 -0.006786 0
M  V30 19 C -3.783862 -2.680340 -0.745610 0
M  V30 20 O -3.392048 -3.097699 -1.885195 0
M  V30 21 N -5.081470 -3.047978 -0.308013 0
M  V30 22 C -6.047748 -3.853476 -0.951618 0
M  V30 23 C -5.762707 -5.290045 -1.174102 0
M  V30 24 C -5.545645 -6.222400 -0.034993 0
M  V30 25 C -4.426179 -5.889233 -0.999291 0
M  V30 26 C -1.588426 -1.568748 -0.516550 0
M  V30 27 C -0.667450 -0.795368 0.157935 0
M  V30 28 H -0.876283 0.005434 4.751521 0
M  V30 29 H -0.545181 -1.393541 3.703777 0
M  V30 30 H 0.635782 -0.916080 4.941931 0
M  V30 31 H 1.888007 1.122131 4.836076 0
M  V30 32 H 2.995998 2.773698 3.329603 0
M  V30 33 H 2.292833 4.237297 0.582081 0
M  V30 34 H 5.033659 4.032091 -0.312896 0
M  V30 35 H 3.941206 3.448990 -1.660289 0
M  V30 36 H 6.270819 2.538093 -1.812398 0
M  V30 37 H 5.994464 0.470283 0.234083 0
M  V30 38 H 5.841038 2.068323 0.979020 0
M  V30 39 H 7.313320 1.760798 0.050408 0
M  V30 40 H 4.509376 0.158651 -1.293366 0
M  V30 41 H 3.981037 1.352792 -2.533960 0
M  V30 42 H 5.558759 0.562305 -2.679990 0
M  V30 43 H 0.497283 1.619238 0.145443 0
M  V30 44 H -2.398017 -0.105229 2.904808 0
M  V30 45 H -4.022570 -1.468549 1.719673 0
M  V30 46 H -5.267160 -2.613243 0.643800 0
M  V30 47 H -6.421200 -3.350492 -1.904296 0
M  V30 48 H -6.980509 -3.817849 -0.306008 0
M  V30 49 H -6.369548 -5.762175 -2.008518 0
M  V30 50 H -5.886998 -7.266538 -0.089784 0
M  V30 51 H -5.466248 -5.854314 1.013863 0
M  V30 52 H -4.080598 -6.699817 -1.693234 0
M  V30 53 H -3.598965 -5.312753 -0.574201 0
M  V30 54 H -1.327193 -1.970405 -1.489683 0
M  V30 55 H 0.298662 -0.629577 -0.344550 0
M  V30 END ATOM
M  V30 BEGIN BOND
M  V30 1 1 1 2
M  V30 2 2 2 3
M  V30 3 1 3 4
M  V30 4 2 4 5
M  V30 5 1 5 6
M  V30 6 1 6 7
M  V30 7 2 7 8
M  V30 8 1 7 9
M  V30 9 1 9 10
M  V30 10 1 10 11
M  V30 11 1 10 12
M  V30 12 1 5 13
M  V30 13 2 13 14
M  V30 14 1 14 15
M  V30 15 2 15 16
M  V30 16 1 16 17
M  V30 17 2 17 18
M  V30 18 1 18 19
M  V30 19 2 19 20
M  V30 20 1 19 21
M  V30 21 1 21 22
M  V30 22 1 22 23
M  V30 23 1 23 24
M  V30 24 1 24 25
M  V30 25 1 18 26
M  V30 26 2 26 27
M  V30 27 1 14 2
M  V30 28 1 27 15
M  V30 29 1 25 23
M  V30 30 1 1 28
M  V30 31 1 1 29
M  V30 32 1 1 30
M  V30 33 1 3 31
M  V30 34 1 4 32
M  V30 35 1 6 33
M  V30 36 1 9 34
M  V30 37 1 9 35
M  V30 38 1 10 36
M  V30 39 1 11 37
M  V30 40 1 11 38
M  V30 41 1 11 39
M  V30 42 1 12 40
M  V30 43 1 12 41
M  V30 44 1 12 42
M  V30 45 1 13 43
M  V30 46 1 16 44
M  V30 47 1 17 45
M  V30 48 1 21 46
M  V30 49 1 22 47
M  V30 50 1 22 48
M  V30 51 1 23 49
M  V30 52 1 24 50
M  V30 53 1 24 51
M  V30 54 1 25 52
M  V30 55 1 25 53
M  V30 56 1 26 54
M  V30 57 1 27 55
M  V30 END BOND
M  V30 END CTAB
M  END
>  <Dataset>  (513) 
ChEMBL_Kinases

>  <Ligand_Instance>  (513) 
nan

>  <PDB_ID>  (513) 
nan

>  <Standardized_SMILES>  (513) 
Cc1ccc(NC(=O)CC(C)C)cc1-c1ccc(C(=O)NCC2CC2)cc1

>  <Name>  (513) 
nan

>  <Pocket>  (513) 
nan

>  <ATP_Site>  (513) 
nan

>  <Peripheral>  (513) 
nan

>  <Num_H_Atoms_ProtBoundConf>  (513) 
nan

>  <Num_Resolved_Atoms>  (513) 
nan

>  <Num_Not_Resolved_Atoms>  (513) 
nan

$$$$
CHEMBL479258
     RDKit          3D

  0  0  0  0  0  0  0  0  0  0999 V3000
M  V30 BEGIN CTAB
M  V30 COUNTS 56 59 0 0 0
M  V30 BEGIN ATOM
M  V30 1 C -1.933060 0.101406 4.404262 0
M  V30 2 C -0.585323 0.375717 3.887387 0
M  V30 3 C 0.348234 1.033456 4.636769 0
M  V30 4 C 1.612890 1.322308 4.226213 0
M  V30 5 C 2.005901 0.929513 2.956085 0
M  V30 6 N 3.277513 1.134156 2.340135 0
M  V30 7 C 3.713841 2.233292 1.546325 0
M  V30 8 O 2.773260 3.090489 1.430995 0
M  V30 9 C 5.101501 2.164786 1.039353 0
M  V30 10 C 5.314284 0.941215 0.158170 0
M  V30 11 C 4.368186 1.250715 -0.994831 0
M  V30 12 C 4.351075 2.751925 -1.122012 0
M  V30 13 C 5.244707 3.270501 0.003247 0
M  V30 14 C 1.057909 0.254581 2.178483 0
M  V30 15 C -0.236488 -0.034467 2.614318 0
M  V30 16 C -1.151058 -0.742259 1.730018 0
M  V30 17 C -1.971870 -1.783597 2.041163 0
M  V30 18 C -2.799102 -2.374402 1.106772 0
M  V30 19 C -2.816798 -1.909905 -0.211402 0
M  V30 20 C -3.657071 -2.471708 -1.264835 0
M  V30 21 O -3.649860 -2.024720 -2.458978 0
M  V30 22 N -4.549252 -3.550205 -1.071801 0
M  V30 23 C -5.368039 -4.081550 -2.142088 0
M  V30 24 C -4.546878 -4.607653 -3.303772 0
M  V30 25 C -3.602184 -5.726027 -2.933799 0
M  V30 26 C -4.769171 -5.989997 -3.800703 0
M  V30 27 C -1.994451 -0.854988 -0.554771 0
M  V30 28 C -1.168515 -0.277622 0.412200 0
M  V30 29 H -1.951772 -0.750947 5.115424 0
M  V30 30 H -2.730935 0.069777 3.634344 0
M  V30 31 H -2.253344 0.972648 5.052322 0
M  V30 32 H 0.080795 1.362583 5.647477 0
M  V30 33 H 2.376571 1.840175 4.791444 0
M  V30 34 H 3.874852 0.293874 2.580879 0
M  V30 35 H 5.868060 2.285125 1.803605 0
M  V30 36 H 6.350721 1.023019 -0.238470 0
M  V30 37 H 5.090435 0.001231 0.660760 0
M  V30 38 H 4.750599 0.739611 -1.895080 0
M  V30 39 H 3.320610 0.936833 -0.735607 0
M  V30 40 H 3.322885 3.169674 -1.048601 0
M  V30 41 H 4.734751 3.031550 -2.114816 0
M  V30 42 H 4.914057 4.246373 0.375745 0
M  V30 43 H 6.282215 3.256603 -0.395022 0
M  V30 44 H 1.309876 -0.076996 1.175374 0
M  V30 45 H -1.941386 -2.120166 3.050559 0
M  V30 46 H -3.441267 -3.191969 1.358013 0
M  V30 47 H -4.613494 -3.973538 -0.117278 0
M  V30 48 H -5.999981 -4.888534 -1.774415 0
M  V30 49 H -6.041718 -3.293096 -2.562841 0
M  V30 50 H -4.212431 -3.836564 -4.035522 0
M  V30 51 H -2.586864 -5.631904 -3.380689 0
M  V30 52 H -3.540855 -6.057611 -1.876432 0
M  V30 53 H -5.635758 -6.560671 -3.415940 0
M  V30 54 H -4.550109 -6.171207 -4.873127 0
M  V30 55 H -1.980530 -0.462602 -1.579575 0
M  V30 56 H -0.542660 0.555903 0.067413 0
M  V30 END ATOM
M  V30 BEGIN BOND
M  V30 1 1 1 2
M  V30 2 2 2 3
M  V30 3 1 3 4
M  V30 4 2 4 5
M  V30 5 1 5 6
M  V30 6 1 6 7
M  V30 7 2 7 8
M  V30 8 1 7 9
M  V30 9 1 9 10
M  V30 10 1 10 11
M  V30 11 1 11 12
M  V30 12 1 12 13
M  V30 13 1 5 14
M  V30 14 2 14 15
M  V30 15 1 15 16
M  V30 16 2 16 17
M  V30 17 1 17 18
M  V30 18 2 18 19
M  V30 19 1 19 20
M  V30 20 2 20 21
M  V30 21 1 20 22
M  V30 22 1 22 23
M  V30 23 1 23 24
M  V30 24 1 24 25
M  V30 25 1 25 26
M  V30 26 1 19 27
M  V30 27 2 27 28
M  V30 28 1 15 2
M  V30 29 1 28 16
M  V30 30 1 13 9
M  V30 31 1 26 24
M  V30 32 1 1 29
M  V30 33 1 1 30
M  V30 34 1 1 31
M  V30 35 1 3 32
M  V30 36 1 4 33
M  V30 37 1 6 34
M  V30 38 1 9 35
M  V30 39 1 10 36
M  V30 40 1 10 37
M  V30 41 1 11 38
M  V30 42 1 11 39
M  V30 43 1 12 40
M  V30 44 1 12 41
M  V30 45 1 13 42
M  V30 46 1 13 43
M  V30 47 1 14 44
M  V30 48 1 17 45
M  V30 49 1 18 46
M  V30 50 1 22 47
M  V30 51 1 23 48
M  V30 52 1 23 49
M  V30 53 1 24 50
M  V30 54 1 25 51
M  V30 55 1 25 52
M  V30 56 1 26 53
M  V30 57 1 26 54
M  V30 58 1 27 55
M  V30 59 1 28 56
M  V30 END BOND
M  V30 END CTAB
M  END
>  <Dataset>  (514) 
ChEMBL_Kinases

>  <Ligand_Instance>  (514) 
nan

>  <PDB_ID>  (514) 
nan

>  <Standardized_SMILES>  (514) 
Cc1ccc(NC(=O)C2CCCC2)cc1-c1ccc(C(=O)NCC2CC2)cc1

>  <Name>  (514) 
nan

>  <Pocket>  (514) 
nan

>  <ATP_Site>  (514) 
nan

>  <Peripheral>  (514) 
nan

>  <Num_H_Atoms_ProtBoundConf>  (514) 
nan

>  <Num_Resolved_Atoms>  (514) 
nan

>  <Num_Not_Resolved_Atoms>  (514) 
nan

$$$$
CHEMBL479262
     RDKit          3D

  0  0  0  0  0  0  0  0  0  0999 V3000
M  V30 BEGIN CTAB
M  V30 COUNTS 46 49 0 0 0
M  V30 BEGIN ATOM
M  V30 1 C 2.496920 -1.184735 7.507509 0
M  V30 2 O 3.718252 -0.961788 6.904838 0
M  V30 3 C 3.821497 -1.483485 5.617667 0
M  V30 4 C 2.800571 -0.867083 4.766184 0
M  V30 5 O 1.860470 -0.032106 4.780769 0
M  V30 6 N 2.922056 -1.418528 3.439285 0
M  V30 7 C 2.106939 -1.081935 2.292030 0
M  V30 8 N 2.360987 -0.106902 1.397183 0
M  V30 9 C 1.385204 -0.078276 0.458353 0
M  V30 10 C 1.280154 0.826115 -0.687988 0
M  V30 11 C 2.162859 0.947175 -1.719523 0
M  V30 12 C 1.937813 1.846484 -2.741396 0
M  V30 13 C 0.787601 2.627622 -2.694166 0
M  V30 14 F 0.511742 3.534221 -3.676337 0
M  V30 15 C -0.097323 2.499395 -1.650570 0
M  V30 16 C -1.356565 3.314858 -1.543724 0
M  V30 17 N 0.168680 1.614899 -0.689259 0
M  V30 18 C 0.486299 -1.089332 0.796471 0
M  V30 19 C -0.730389 -1.425932 0.057479 0
M  V30 20 C -1.882261 -1.264311 0.826347 0
M  V30 21 C -3.146503 -1.524301 0.332888 0
M  V30 22 C -3.269916 -1.965225 -0.985905 0
M  V30 23 N -4.466959 -2.241499 -1.545189 0
M  V30 24 C -4.477454 -2.661856 -2.827950 0
M  V30 25 C -3.341925 -2.826140 -3.601061 0
M  V30 26 N -2.139606 -2.545320 -3.029190 0
M  V30 27 C -2.122349 -2.120581 -1.734629 0
M  V30 28 C -0.858730 -1.861044 -1.242401 0
M  V30 29 N 0.950588 -1.677960 1.909935 0
M  V30 30 H 2.512389 -0.734241 8.522795 0
M  V30 31 H 1.641422 -0.748826 6.990397 0
M  V30 32 H 2.287885 -2.269055 7.609077 0
M  V30 33 H 4.853137 -1.308756 5.264465 0
M  V30 34 H 3.682403 -2.584007 5.739774 0
M  V30 35 H 3.563656 -2.121256 3.032650 0
M  V30 36 H 3.039887 0.292908 -1.674431 0
M  V30 37 H 2.639277 1.932409 -3.546890 0
M  V30 38 H -1.614667 3.832972 -2.469297 0
M  V30 39 H -1.132578 4.035995 -0.705447 0
M  V30 40 H -2.150098 2.648332 -1.138410 0
M  V30 41 H -1.900568 -0.924042 1.871327 0
M  V30 42 H -4.053253 -1.415835 0.880798 0
M  V30 43 H -5.464506 -2.875704 -3.246480 0
M  V30 44 H -3.477613 -3.173981 -4.632206 0
M  V30 45 H 0.071563 -1.956699 -1.756751 0
M  V30 46 H 0.521307 -2.469116 2.428880 0
M  V30 END ATOM
M  V30 BEGIN BOND
M  V30 1 1 1 2
M  V30 2 1 2 3
M  V30 3 1 3 4
M  V30 4 2 4 5
M  V30 5 1 4 6
M  V30 6 1 6 7
M  V30 7 2 7 8
M  V30 8 1 8 9
M  V30 9 1 9 10
M  V30 10 2 10 11
M  V30 11 1 11 12
M  V30 12 2 12 13
M  V30 13 1 13 14
M  V30 14 1 13 15
M  V30 15 1 15 16
M  V30 16 2 15 17
M  V30 17 2 9 18
M  V30 18 1 18 19
M  V30 19 2 19 20
M  V30 20 1 20 21
M  V30 21 2 21 22
M  V30 22 1 22 23
M  V30 23 2 23 24
M  V30 24 1 24 25
M  V30 25 2 25 26
M  V30 26 1 26 27
M  V30 27 2 27 28
M  V30 28 1 18 29
M  V30 29 1 29 7
M  V30 30 1 17 10
M  V30 31 1 28 19
M  V30 32 1 27 22
M  V30 33 1 1 30
M  V30 34 1 1 31
M  V30 35 1 1 32
M  V30 36 1 3 33
M  V30 37 1 3 34
M  V30 38 1 6 35
M  V30 39 1 11 36
M  V30 40 1 12 37
M  V30 41 1 16 38
M  V30 42 1 16 39
M  V30 43 1 16 40
M  V30 44 1 20 41
M  V30 45 1 21 42
M  V30 46 1 24 43
M  V30 47 1 25 44
M  V30 48 1 28 45
M  V30 49 1 29 46
M  V30 END BOND
M  V30 END CTAB
M  END
>  <Dataset>  (515) 
ChEMBL_Kinases

>  <Ligand_Instance>  (515) 
nan

>  <PDB_ID>  (515) 
nan

>  <Standardized_SMILES>  (515) 
COCC(=O)Nc1nc(-c2ccc(F)c(C)n2)c(-c2ccc3nccnc3c2)[nH]1

>  <Name>  (515) 
nan

>  <Pocket>  (515) 
nan

>  <ATP_Site>  (515) 
nan

>  <Peripheral>  (515) 
nan

>  <Num_H_Atoms_ProtBoundConf>  (515) 
nan

>  <Num_Resolved_Atoms>  (515) 
nan

>  <Num_Not_Resolved_Atoms>  (515) 
nan

$$$$
CHEMBL4792639
     RDKit          3D

  0  0  0  0  0  0  0  0  0  0999 V3000
M  V30 BEGIN CTAB
M  V30 COUNTS 34 35 0 0 0
M  V30 BEGIN ATOM
M  V30 1 C 2.437350 -5.086715 2.338490 0
M  V30 2 O 1.090234 -5.478641 2.204281 0
M  V30 3 C 0.167311 -4.609575 1.685746 0
M  V30 4 C 0.454911 -3.331190 1.262782 0
M  V30 5 C -0.530396 -2.516288 0.753612 0
M  V30 6 C -0.354595 -1.150443 0.286461 0
M  V30 7 C 0.379293 -0.185897 0.794168 0
M  V30 8 C 1.127789 -0.491116 1.982349 0
M  V30 9 N 1.723677 -0.737427 2.942695 0
M  V30 10 C 0.471555 1.155663 0.232452 0
M  V30 11 O 1.206290 2.025751 0.785145 0
M  V30 12 N -0.190878 1.625188 -0.907192 0
M  V30 13 C 0.062901 3.048704 -1.289336 0
M  V30 14 N 0.713056 3.781052 -1.908185 0
M  V30 15 N 0.562066 5.070387 -1.945524 0
M  V30 16 C -0.243126 5.695015 -1.368479 0
M  V30 17 C -0.567093 7.158318 -1.286000 0
M  V30 18 F -1.199567 7.469074 -0.104900 0
M  V30 19 F 0.631575 7.793444 -1.432021 0
M  V30 20 F -1.435839 7.492286 -2.313354 0
M  V30 21 S -1.116983 4.312730 -0.486883 0
M  V30 22 C -1.797211 -3.057835 0.697335 0
M  V30 23 C -2.149681 -4.347110 1.110445 0
M  V30 24 C -1.107007 -5.115774 1.614657 0
M  V30 25 O -1.462466 -6.400378 2.026451 0
M  V30 26 H 2.562644 -4.021134 2.639861 0
M  V30 27 H 2.944474 -5.653745 3.167440 0
M  V30 28 H 2.962433 -5.268164 1.395699 0
M  V30 29 H 1.462649 -2.950131 1.314714 0
M  V30 30 H -0.916088 -0.891453 -0.621189 0
M  V30 31 H -0.826032 0.959908 -1.429930 0
M  V30 32 H -2.622335 -2.462180 0.304284 0
M  V30 33 H -3.169881 -4.696702 1.032615 0
M  V30 34 H -1.272634 -6.679107 2.979551 0
M  V30 END ATOM
M  V30 BEGIN BOND
M  V30 1 1 1 2
M  V30 2 1 2 3
M  V30 3 2 3 4
M  V30 4 1 4 5
M  V30 5 1 5 6
M  V30 6 2 6 7
M  V30 7 1 7 8
M  V30 8 3 8 9
M  V30 9 1 7 10
M  V30 10 2 10 11
M  V30 11 1 10 12
M  V30 12 1 12 13
M  V30 13 2 13 14
M  V30 14 1 14 15
M  V30 15 2 15 16
M  V30 16 1 16 17
M  V30 17 1 17 18
M  V30 18 1 17 19
M  V30 19 1 17 20
M  V30 20 1 16 21
M  V30 21 2 5 22
M  V30 22 1 22 23
M  V30 23 2 23 24
M  V30 24 1 24 25
M  V30 25 1 24 3
M  V30 26 1 21 13
M  V30 27 1 1 26
M  V30 28 1 1 27
M  V30 29 1 1 28
M  V30 30 1 4 29
M  V30 31 1 6 30
M  V30 32 1 12 31
M  V30 33 1 22 32
M  V30 34 1 23 33
M  V30 35 1 25 34
M  V30 END BOND
M  V30 END CTAB
M  END
>  <Dataset>  (516) 
ChEMBL_Kinases

>  <Ligand_Instance>  (516) 
nan

>  <PDB_ID>  (516) 
nan

>  <Standardized_SMILES>  (516) 
COc1cc(/C=C(\C#N)C(=O)Nc2nnc(C(F)(F)F)s2)ccc1O

>  <Name>  (516) 
nan

>  <Pocket>  (516) 
nan

>  <ATP_Site>  (516) 
nan

>  <Peripheral>  (516) 
nan

>  <Num_H_Atoms_ProtBoundConf>  (516) 
nan

>  <Num_Resolved_Atoms>  (516) 
nan

>  <Num_Not_Resolved_Atoms>  (516) 
nan

$$$$
CHEMBL4792670
     RDKit          3D

  0  0  0  0  0  0  0  0  0  0999 V3000
M  V30 BEGIN CTAB
M  V30 COUNTS 54 58 0 0 0
M  V30 BEGIN ATOM
M  V30 1 O 1.320871 -1.493617 2.946141 0
M  V30 2 C 1.529813 -0.669847 2.026284 0
M  V30 3 N 2.798602 -0.779795 1.399268 0
M  V30 4 C 3.651087 -1.822466 1.918055 0
M  V30 5 C 3.696447 -3.104158 1.473319 0
M  V30 6 C 4.569521 -3.995611 2.073103 0
M  V30 7 C 5.400520 -3.619618 3.115656 0
M  V30 8 C 5.350764 -2.324091 3.560920 0
M  V30 9 C 6.215804 -1.831324 4.685233 0
M  V30 10 F 7.058176 -2.801336 5.139337 0
M  V30 11 F 6.915046 -0.739588 4.193948 0
M  V30 12 F 5.371812 -1.391012 5.668732 0
M  V30 13 C 4.489087 -1.438096 2.971312 0
M  V30 14 N 0.570170 0.310973 1.629856 0
M  V30 15 C -0.688335 0.345623 2.324010 0 CFG=1
M  V30 16 C -1.118802 1.672159 2.825054 0
M  V30 17 O -1.440160 2.392555 1.681760 0
M  V30 18 C -2.015644 1.497524 0.795132 0 CFG=1
M  V30 19 C -1.750631 0.096780 1.269300 0 CFG=2
M  V30 20 O -2.930462 -0.367997 1.818881 0
M  V30 21 C -3.963195 0.192097 1.065248 0
M  V30 22 C -3.499890 1.594157 0.729938 0 CFG=2
M  V30 23 N -3.931487 2.050953 -0.564317 0
M  V30 24 C -3.708854 1.367635 -1.812107 0
M  V30 25 N -4.158493 1.913156 -2.956394 0
M  V30 26 C -3.995010 1.336322 -4.150982 0
M  V30 27 C -3.331849 0.129575 -4.174728 0
M  V30 28 C -2.868458 -0.434817 -3.004246 0
M  V30 29 C -2.176120 -1.725506 -3.138567 0
M  V30 30 C -1.629957 -2.504602 -2.165271 0
M  V30 31 C -1.090941 -3.618085 -2.758169 0
M  V30 32 C -1.338682 -3.465649 -4.105049 0
M  V30 33 O -1.972571 -2.347149 -4.268983 0
M  V30 34 N -3.050834 0.173842 -1.820724 0
M  V30 35 H 3.022671 -0.108713 0.618799 0
M  V30 36 H 3.044239 -3.359432 0.670295 0
M  V30 37 H 4.605900 -5.018880 1.718240 0
M  V30 38 H 6.082151 -4.294260 3.591889 0
M  V30 39 H 4.464882 -0.408940 3.342066 0
M  V30 40 H 0.775405 0.984034 0.858110 0
M  V30 41 H -0.724623 -0.444653 3.102819 0
M  V30 42 H -0.445593 2.178107 3.500010 0
M  V30 43 H -2.071735 1.508718 3.372209 0
M  V30 44 H -1.530104 1.614265 -0.195943 0
M  V30 45 H -1.369858 -0.560820 0.458425 0
M  V30 46 H -4.146420 -0.443952 0.198614 0
M  V30 47 H -4.891871 0.275961 1.648418 0
M  V30 48 H -3.836919 2.326479 1.493318 0
M  V30 49 H -4.462959 2.971219 -0.627657 0
M  V30 50 H -4.374562 1.814178 -5.040528 0
M  V30 51 H -3.214134 -0.315664 -5.163771 0
M  V30 52 H -1.599230 -2.330629 -1.118918 0
M  V30 53 H -0.567660 -4.491846 -2.399426 0
M  V30 54 H -1.145967 -4.017613 -5.009224 0
M  V30 END ATOM
M  V30 BEGIN BOND
M  V30 1 2 1 2
M  V30 2 1 2 3
M  V30 3 1 3 4
M  V30 4 2 4 5
M  V30 5 1 5 6
M  V30 6 2 6 7
M  V30 7 1 7 8
M  V30 8 1 8 9
M  V30 9 1 9 10
M  V30 10 1 9 11
M  V30 11 1 9 12
M  V30 12 2 8 13
M  V30 13 1 2 14
M  V30 14 1 14 15
M  V30 15 1 15 16
M  V30 16 1 16 17
M  V30 17 1 17 18
M  V30 18 1 18 19
M  V30 19 1 19 20
M  V30 20 1 20 21
M  V30 21 1 21 22
M  V30 22 1 22 23
M  V30 23 1 23 24
M  V30 24 2 24 25
M  V30 25 1 25 26
M  V30 26 2 26 27
M  V30 27 1 27 28
M  V30 28 1 28 29
M  V30 29 2 29 30
M  V30 30 1 30 31
M  V30 31 2 31 32
M  V30 32 1 32 33
M  V30 33 2 28 34
M  V30 34 1 13 4
M  V30 35 1 19 15
M  V30 36 1 34 24
M  V30 37 1 22 18
M  V30 38 1 33 29
M  V30 39 1 3 35
M  V30 40 1 5 36
M  V30 41 1 6 37
M  V30 42 1 7 38
M  V30 43 1 13 39
M  V30 44 1 14 40
M  V30 45 1 15 41 CFG=1
M  V30 46 1 16 42
M  V30 47 1 16 43
M  V30 48 1 18 44 CFG=3
M  V30 49 1 19 45 CFG=3
M  V30 50 1 21 46
M  V30 51 1 21 47
M  V30 52 1 22 48 CFG=1
M  V30 53 1 23 49
M  V30 54 1 26 50
M  V30 55 1 27 51
M  V30 56 1 30 52
M  V30 57 1 31 53
M  V30 58 1 32 54
M  V30 END BOND
M  V30 END CTAB
M  END
>  <Dataset>  (517) 
ChEMBL_Kinases

>  <Ligand_Instance>  (517) 
nan

>  <PDB_ID>  (517) 
nan

>  <Standardized_SMILES>  (517) 
O=C(Nc1cccc(C(F)(F)F)c1)N[C@H]1CO[C@H]2[C@@H]1OC[C@@H]2Nc1nccc(-c2ccco2)n1

>  <Name>  (517) 
nan

>  <Pocket>  (517) 
nan

>  <ATP_Site>  (517) 
nan

>  <Peripheral>  (517) 
nan

>  <Num_H_Atoms_ProtBoundConf>  (517) 
nan

>  <Num_Resolved_Atoms>  (517) 
nan

>  <Num_Not_Resolved_Atoms>  (517) 
nan

$$$$
CHEMBL4792678
     RDKit          3D

  0  0  0  0  0  0  0  0  0  0999 V3000
M  V30 BEGIN CTAB
M  V30 COUNTS 69 73 0 0 0
M  V30 BEGIN ATOM
M  V30 1 C 6.896410 -3.476569 -1.606137 0
M  V30 2 N 5.639887 -2.817802 -1.611624 0
M  V30 3 C 4.823807 -1.898479 -2.052583 0
M  V30 4 O 5.522184 -1.258504 -2.948935 0
M  V30 5 C 3.963391 -0.956310 -2.493307 0
M  V30 6 S 2.699694 0.233991 -2.966140 0
M  V30 7 C 1.224752 -0.400002 -2.189778 0
M  V30 8 C -0.048705 0.425796 -2.303876 0
M  V30 9 C 0.000501 1.621806 -2.977496 0
M  V30 10 C -1.110104 2.426039 -3.072898 0
M  V30 11 N -2.193712 1.933569 -2.466769 0
M  V30 12 C -2.267165 0.783061 -1.814627 0
M  V30 13 N -3.473611 0.358308 -1.204581 0
M  V30 14 C -4.484842 1.308793 -1.212995 0
M  V30 15 O -4.552036 2.487296 -1.640474 0
M  V30 16 C -5.886911 1.327135 -0.730855 0
M  V30 17 C -6.836987 0.299056 -1.258828 0
M  V30 18 C -6.466481 0.378256 0.196580 0
M  V30 19 C -1.177406 -0.085693 -1.674444 0
M  V30 20 N 1.516631 -1.438076 -1.577248 0
M  V30 21 C 2.897503 -1.739886 -1.717252 0
M  V30 22 O 2.717936 -2.841139 -0.940861 0
M  V30 23 C 2.403378 -3.830636 -0.213921 0
M  V30 24 C 1.662135 -3.597544 1.094702 0
M  V30 25 C 2.369600 -2.684934 2.040588 0
M  V30 26 C 1.435093 -2.402396 3.226947 0
M  V30 27 N 0.321218 -1.653640 2.795134 0
M  V30 28 C -0.573877 -1.150475 3.758154 0
M  V30 29 C -1.219085 0.135674 3.345955 0
M  V30 30 C -2.415719 0.282452 2.685150 0
M  V30 31 C -2.858137 1.550560 2.384724 0
M  V30 32 C -2.060330 2.594635 2.772884 0
M  V30 33 C -0.853090 2.551489 3.437017 0
M  V30 34 N -0.088405 3.691693 3.792190 0 CHG=1 VAL=4
M  V30 35 O 1.012921 3.443272 4.360258 0
M  V30 36 O -0.463457 4.984762 3.549227 0 CHG=-1 VAL=1
M  V30 37 C -0.442920 1.240173 3.720012 0
M  V30 38 C -0.088839 -1.880493 1.482340 0
M  V30 39 C 0.261781 -3.216634 0.927394 0
M  V30 40 H 6.737096 -4.583633 -1.661609 0
M  V30 41 H 7.604147 -3.159261 -2.399440 0
M  V30 42 H 7.355943 -3.275612 -0.579943 0
M  V30 43 H 4.978168 -3.197759 -0.913574 0
M  V30 44 H 0.874509 2.015537 -3.466873 0
M  V30 45 H -1.248887 3.368042 -3.553299 0
M  V30 46 H -3.742257 -0.531275 -0.748981 0
M  V30 47 H -6.337881 2.366810 -0.817973 0
M  V30 48 H -7.891156 0.582591 -1.453794 0
M  V30 49 H -6.438276 -0.516029 -1.879125 0
M  V30 50 H -7.207838 0.764550 0.942332 0
M  V30 51 H -5.959856 -0.549294 0.547044 0
M  V30 52 H -1.158606 -1.020095 -1.166169 0
M  V30 53 H 1.774640 -4.662984 -0.705742 0
M  V30 54 H 3.326289 -4.459256 0.102769 0
M  V30 55 H 1.663450 -4.660020 1.551192 0
M  V30 56 H 3.275920 -3.128330 2.420291 0
M  V30 57 H 2.630229 -1.708751 1.542848 0
M  V30 58 H 1.137646 -3.369557 3.618066 0
M  V30 59 H 2.027744 -1.815142 3.921613 0
M  V30 60 H -1.455925 -1.861938 3.854866 0
M  V30 61 H -0.107433 -1.039133 4.736937 0
M  V30 62 H -2.984961 -0.594051 2.425072 0
M  V30 63 H -3.796639 1.733326 1.863642 0
M  V30 64 H -2.383195 3.621394 2.549012 0
M  V30 65 H 0.518692 1.145439 4.250572 0
M  V30 66 H -1.220707 -1.729440 1.357472 0
M  V30 67 H 0.307493 -1.019716 0.859646 0
M  V30 68 H -0.464967 -3.963979 1.386432 0
M  V30 69 H -0.011546 -3.286817 -0.172587 0
M  V30 END ATOM
M  V30 BEGIN BOND
M  V30 1 1 1 2
M  V30 2 1 2 3
M  V30 3 2 3 4
M  V30 4 1 3 5
M  V30 5 1 5 6
M  V30 6 1 6 7
M  V30 7 1 7 8
M  V30 8 2 8 9
M  V30 9 1 9 10
M  V30 10 2 10 11
M  V30 11 1 11 12
M  V30 12 1 12 13
M  V30 13 1 13 14
M  V30 14 2 14 15
M  V30 15 1 14 16
M  V30 16 1 16 17
M  V30 17 1 17 18
M  V30 18 2 12 19
M  V30 19 2 7 20
M  V30 20 1 20 21
M  V30 21 1 21 22
M  V30 22 1 22 23
M  V30 23 1 23 24
M  V30 24 1 24 25
M  V30 25 1 25 26
M  V30 26 1 26 27
M  V30 27 1 27 28
M  V30 28 1 28 29
M  V30 29 2 29 30
M  V30 30 1 30 31
M  V30 31 2 31 32
M  V30 32 1 32 33
M  V30 33 1 33 34
M  V30 34 2 34 35
M  V30 35 1 34 36
M  V30 36 2 33 37
M  V30 37 1 27 38
M  V30 38 1 38 39
M  V30 39 2 21 5
M  V30 40 1 39 24
M  V30 41 1 19 8
M  V30 42 1 37 29
M  V30 43 1 18 16
M  V30 44 1 1 40
M  V30 45 1 1 41
M  V30 46 1 1 42
M  V30 47 1 2 43
M  V30 48 1 9 44
M  V30 49 1 10 45
M  V30 50 1 13 46
M  V30 51 1 16 47
M  V30 52 1 17 48
M  V30 53 1 17 49
M  V30 54 1 18 50
M  V30 55 1 18 51
M  V30 56 1 19 52
M  V30 57 1 23 53
M  V30 58 1 23 54
M  V30 59 1 24 55
M  V30 60 1 25 56
M  V30 61 1 25 57
M  V30 62 1 26 58
M  V30 63 1 26 59
M  V30 64 1 28 60
M  V30 65 1 28 61
M  V30 66 1 30 62
M  V30 67 1 31 63
M  V30 68 1 32 64
M  V30 69 1 37 65
M  V30 70 1 38 66
M  V30 71 1 38 67
M  V30 72 1 39 68
M  V30 73 1 39 69
M  V30 END BOND
M  V30 END CTAB
M  END
>  <Dataset>  (518) 
ChEMBL_Kinases

>  <Ligand_Instance>  (518) 
nan

>  <PDB_ID>  (518) 
nan

>  <Standardized_SMILES>  (518) 
CNC(=O)c1sc(-c2ccnc(NC(=O)C3CC3)c2)nc1OCC1CCN(Cc2cccc([N+](=O)[O-])c2)CC1

>  <Name>  (518) 
nan

>  <Pocket>  (518) 
nan

>  <ATP_Site>  (518) 
nan

>  <Peripheral>  (518) 
nan

>  <Num_H_Atoms_ProtBoundConf>  (518) 
nan

>  <Num_Resolved_Atoms>  (518) 
nan

>  <Num_Not_Resolved_Atoms>  (518) 
nan

$$$$
CHEMBL4792739
     RDKit          3D

  0  0  0  0  0  0  0  0  0  0999 V3000
M  V30 BEGIN CTAB
M  V30 COUNTS 51 54 0 0 0
M  V30 BEGIN ATOM
M  V30 1 C 2.186353 -5.965101 0.302297 0
M  V30 2 C 3.414505 -5.354381 -0.280485 0
M  V30 3 C 3.201350 -3.952745 -0.828267 0
M  V30 4 S 2.654662 -2.830725 0.397683 0
M  V30 5 O 3.751046 -2.783365 1.454722 0
M  V30 6 O 1.441353 -3.325705 1.136535 0
M  V30 7 N 2.454994 -1.281860 -0.249601 0
M  V30 8 C 1.701996 -0.612786 -1.220201 0
M  V30 9 C 1.446129 -1.118785 -2.486846 0
M  V30 10 C 0.705824 -0.436518 -3.421715 0
M  V30 11 C 0.192603 0.798490 -3.098400 0
M  V30 12 F -0.534284 1.424941 -4.067364 0
M  V30 13 C 0.388071 1.386833 -1.871286 0
M  V30 14 C -0.156461 2.701673 -1.630835 0
M  V30 15 O -0.276933 3.357538 -2.731698 0
M  V30 16 C -0.597705 3.474364 -0.514645 0
M  V30 17 N -0.616137 4.804060 -0.499442 0
M  V30 18 N -1.112345 5.245193 0.656662 0
M  V30 19 C -1.446729 4.222075 1.460395 0
M  V30 20 N -1.991869 4.145902 2.704672 0
M  V30 21 C -2.233964 2.918557 3.252470 0
M  V30 22 C -1.926360 1.775456 2.544915 0
M  V30 23 C -2.194248 0.480211 3.146906 0
M  V30 24 C -2.145829 0.171082 4.491068 0
M  V30 25 C -2.432225 -1.120991 4.904972 0
M  V30 26 C -2.766115 -2.097964 3.969728 0
M  V30 27 O -3.036565 -3.359529 4.471347 0
M  V30 28 C -2.822206 -1.816181 2.618843 0
M  V30 29 C -2.529183 -0.511002 2.239060 0
M  V30 30 C -1.381422 1.899581 1.303096 0
M  V30 31 C -1.118087 3.113461 0.710252 0
M  V30 32 C 1.129772 0.647035 -1.011292 0
M  V30 33 F 1.429716 1.146629 0.214240 0
M  V30 34 H 2.290676 -7.074602 0.201430 0
M  V30 35 H 2.102039 -5.792929 1.408432 0
M  V30 36 H 1.256261 -5.699455 -0.231864 0
M  V30 37 H 3.780720 -5.950209 -1.149170 0
M  V30 38 H 4.217244 -5.319681 0.465070 0
M  V30 39 H 4.166681 -3.601667 -1.236414 0
M  V30 40 H 2.475380 -3.961858 -1.663481 0
M  V30 41 H 3.087045 -0.530119 0.176695 0
M  V30 42 H 1.818124 -2.073830 -2.812584 0
M  V30 43 H 0.519406 -0.861204 -4.417869 0
M  V30 44 H -1.201270 6.264229 0.845658 0
M  V30 45 H -2.667455 2.828563 4.242604 0
M  V30 46 H -1.883565 0.968337 5.152381 0
M  V30 47 H -2.391432 -1.357616 5.975824 0
M  V30 48 H -3.272362 -4.150483 3.875078 0
M  V30 49 H -3.083530 -2.594393 1.925944 0
M  V30 50 H -2.596261 -0.372391 1.156685 0
M  V30 51 H -1.149705 1.007156 0.742457 0
M  V30 END ATOM
M  V30 BEGIN BOND
M  V30 1 1 1 2
M  V30 2 1 2 3
M  V30 3 1 3 4
M  V30 4 2 4 5
M  V30 5 2 4 6
M  V30 6 1 4 7
M  V30 7 1 7 8
M  V30 8 2 8 9
M  V30 9 1 9 10
M  V30 10 2 10 11
M  V30 11 1 11 12
M  V30 12 1 11 13
M  V30 13 1 13 14
M  V30 14 2 14 15
M  V30 15 1 14 16
M  V30 16 2 16 17
M  V30 17 1 17 18
M  V30 18 1 18 19
M  V30 19 2 19 20
M  V30 20 1 20 21
M  V30 21 2 21 22
M  V30 22 1 22 23
M  V30 23 2 23 24
M  V30 24 1 24 25
M  V30 25 2 25 26
M  V30 26 1 26 27
M  V30 27 1 26 28
M  V30 28 2 28 29
M  V30 29 1 22 30
M  V30 30 2 30 31
M  V30 31 2 13 32
M  V30 32 1 32 33
M  V30 33 1 32 8
M  V30 34 1 31 16
M  V30 35 1 31 19
M  V30 36 1 29 23
M  V30 37 1 1 34
M  V30 38 1 1 35
M  V30 39 1 1 36
M  V30 40 1 2 37
M  V30 41 1 2 38
M  V30 42 1 3 39
M  V30 43 1 3 40
M  V30 44 1 7 41
M  V30 45 1 9 42
M  V30 46 1 10 43
M  V30 47 1 18 44
M  V30 48 1 21 45
M  V30 49 1 24 46
M  V30 50 1 25 47
M  V30 51 1 27 48
M  V30 52 1 28 49
M  V30 53 1 29 50
M  V30 54 1 30 51
M  V30 END BOND
M  V30 END CTAB
M  END
>  <Dataset>  (519) 
ChEMBL_Kinases

>  <Ligand_Instance>  (519) 
nan

>  <PDB_ID>  (519) 
nan

>  <Standardized_SMILES>  (519) 
CCCS(=O)(=O)Nc1ccc(F)c(C(=O)c2n[nH]c3ncc(-c4ccc(O)cc4)cc23)c1F

>  <Name>  (519) 
nan

>  <Pocket>  (519) 
nan

>  <ATP_Site>  (519) 
nan

>  <Peripheral>  (519) 
nan

>  <Num_H_Atoms_ProtBoundConf>  (519) 
nan

>  <Num_Resolved_Atoms>  (519) 
nan

>  <Num_Not_Resolved_Atoms>  (519) 
nan

$$$$
CHEMBL479244
     RDKit          3D

  0  0  0  0  0  0  0  0  0  0999 V3000
M  V30 BEGIN CTAB
M  V30 COUNTS 51 54 0 0 0
M  V30 BEGIN ATOM
M  V30 1 C 1.664922 -3.185523 4.255389 0
M  V30 2 O 1.270232 -2.474161 3.100191 0
M  V30 3 C 1.762332 -1.251167 2.722703 0
M  V30 4 C 2.707877 -0.562686 3.428662 0
M  V30 5 C 3.154863 0.654717 2.993992 0
M  V30 6 C 2.679290 1.240972 1.835548 0
M  V30 7 C 3.098792 2.537491 1.294503 0
M  V30 8 O 2.627887 3.022232 0.229408 0
M  V30 9 N 4.076378 3.340693 1.945684 0
M  V30 10 C 4.491564 4.638416 1.397396 0
M  V30 11 C 5.845563 5.155436 1.602951 0
M  V30 12 C 4.669943 5.796261 2.312796 0
M  V30 13 C 1.716462 0.547784 1.109876 0
M  V30 14 C 1.249402 -0.700149 1.543278 0
M  V30 15 C 0.240380 -1.328700 0.697562 0
M  V30 16 C -0.806392 -0.556762 0.231757 0
M  V30 17 C -1.759147 -1.150179 -0.567459 0
M  V30 18 C -1.757673 -2.474509 -0.949966 0
M  V30 19 C -2.763306 -3.106281 -1.795359 0
M  V30 20 O -2.589019 -4.344553 -2.042274 0
M  V30 21 N -3.887437 -2.359704 -2.316325 0
M  V30 22 C -4.857972 -3.000205 -3.120436 0
M  V30 23 C -5.646953 -4.023180 -2.357513 0
M  V30 24 C -6.518484 -3.618938 -1.194721 0
M  V30 25 C -5.228566 -4.388982 -1.004691 0
M  V30 26 C -0.686667 -3.183774 -0.450048 0
M  V30 27 C 0.300398 -2.661807 0.351094 0
M  V30 28 H 2.769987 -3.269491 4.282829 0
M  V30 29 H 1.274738 -2.683654 5.171367 0
M  V30 30 H 1.273854 -4.221368 4.143078 0
M  V30 31 H 3.117342 -0.982039 4.352478 0
M  V30 32 H 3.904429 1.215680 3.540655 0
M  V30 33 H 4.525335 3.026317 2.833799 0
M  V30 34 H 3.974750 4.916224 0.445906 0
M  V30 35 H 6.333693 5.734877 0.783746 0
M  V30 36 H 6.601157 4.609407 2.226112 0
M  V30 37 H 4.557985 5.564173 3.411988 0
M  V30 38 H 4.357587 6.817739 2.001239 0
M  V30 39 H 1.318756 0.989170 0.183268 0
M  V30 40 H -0.860225 0.489968 0.499349 0
M  V30 41 H -2.551073 -0.504362 -0.901914 0
M  V30 42 H -3.943018 -1.347007 -2.073089 0
M  V30 43 H -5.620322 -2.208214 -3.412378 0
M  V30 44 H -4.439767 -3.430427 -4.065065 0
M  V30 45 H -6.086251 -4.834509 -3.002491 0
M  V30 46 H -7.470689 -4.164252 -1.048590 0
M  V30 47 H -6.553421 -2.567098 -0.879623 0
M  V30 48 H -5.327116 -5.478963 -0.700818 0
M  V30 49 H -4.519297 -3.868929 -0.364892 0
M  V30 50 H -0.568509 -4.233681 -0.676265 0
M  V30 51 H 1.123107 -3.259012 0.719975 0
M  V30 END ATOM
M  V30 BEGIN BOND
M  V30 1 1 1 2
M  V30 2 1 2 3
M  V30 3 2 3 4
M  V30 4 1 4 5
M  V30 5 2 5 6
M  V30 6 1 6 7
M  V30 7 2 7 8
M  V30 8 1 7 9
M  V30 9 1 9 10
M  V30 10 1 10 11
M  V30 11 1 11 12
M  V30 12 1 6 13
M  V30 13 2 13 14
M  V30 14 1 14 15
M  V30 15 2 15 16
M  V30 16 1 16 17
M  V30 17 2 17 18
M  V30 18 1 18 19
M  V30 19 2 19 20
M  V30 20 1 19 21
M  V30 21 1 21 22
M  V30 22 1 22 23
M  V30 23 1 23 24
M  V30 24 1 24 25
M  V30 25 1 18 26
M  V30 26 2 26 27
M  V30 27 1 14 3
M  V30 28 1 27 15
M  V30 29 1 12 10
M  V30 30 1 25 23
M  V30 31 1 1 28
M  V30 32 1 1 29
M  V30 33 1 1 30
M  V30 34 1 4 31
M  V30 35 1 5 32
M  V30 36 1 9 33
M  V30 37 1 10 34
M  V30 38 1 11 35
M  V30 39 1 11 36
M  V30 40 1 12 37
M  V30 41 1 12 38
M  V30 42 1 13 39
M  V30 43 1 16 40
M  V30 44 1 17 41
M  V30 45 1 21 42
M  V30 46 1 22 43
M  V30 47 1 22 44
M  V30 48 1 23 45
M  V30 49 1 24 46
M  V30 50 1 24 47
M  V30 51 1 25 48
M  V30 52 1 25 49
M  V30 53 1 26 50
M  V30 54 1 27 51
M  V30 END BOND
M  V30 END CTAB
M  END
>  <Dataset>  (520) 
ChEMBL_Kinases

>  <Ligand_Instance>  (520) 
nan

>  <PDB_ID>  (520) 
nan

>  <Standardized_SMILES>  (520) 
COc1ccc(C(=O)NC2CC2)cc1-c1ccc(C(=O)NCC2CC2)cc1

>  <Name>  (520) 
nan

>  <Pocket>  (520) 
nan

>  <ATP_Site>  (520) 
nan

>  <Peripheral>  (520) 
nan

>  <Num_H_Atoms_ProtBoundConf>  (520) 
nan

>  <Num_Resolved_Atoms>  (520) 
nan

>  <Num_Not_Resolved_Atoms>  (520) 
nan

$$$$
CHEMBL4784549
     RDKit          3D

  0  0  0  0  0  0  0  0  0  0999 V3000
M  V30 BEGIN CTAB
M  V30 COUNTS 48 50 0 0 0
M  V30 BEGIN ATOM
M  V30 1 C 2.707706 -5.074460 3.878539 0
M  V30 2 O 1.962565 -4.139885 3.100880 0
M  V30 3 C 2.536889 -3.257413 2.245946 0
M  V30 4 O 3.654387 -3.725915 2.567630 0
M  V30 5 C 2.334491 -2.189571 1.296432 0
M  V30 6 C 3.479982 -1.691506 0.735008 0
M  V30 7 N 3.397047 -0.695573 -0.157845 0
M  V30 8 C 2.192581 -0.184739 -0.504285 0
M  V30 9 N 2.218530 0.869431 -1.451835 0
M  V30 10 C 1.978261 2.085602 -0.766782 0
M  V30 11 C 0.617758 2.365289 -0.933561 0
M  V30 12 N 0.033631 3.478984 -0.386740 0
M  V30 13 C 0.840719 4.307131 0.331239 0
M  V30 14 C 0.294235 5.495874 0.935887 0
M  V30 15 N -0.171483 6.460734 1.424979 0
M  V30 16 C 2.172667 4.038030 0.496840 0
M  V30 17 N 2.732615 2.926659 -0.054838 0
M  V30 18 C 1.081369 -0.724417 0.091218 0
M  V30 19 C 1.058116 -1.743795 1.016909 0
M  V30 20 N -0.113887 -2.247117 1.580737 0
M  V30 21 C -1.510338 -1.928513 1.447663 0
M  V30 22 C -1.923247 -0.568202 1.840201 0
M  V30 23 C -2.686845 0.219102 0.813335 0
M  V30 24 N -3.714410 -0.470800 0.115671 0
M  V30 25 C -3.794129 0.098367 -1.245281 0
M  V30 26 C -3.496424 -1.874665 -0.025711 0
M  V30 27 C -2.041235 -2.276386 0.086569 0
M  V30 28 H 3.430557 -4.539569 4.530803 0
M  V30 29 H 1.923915 -5.569370 4.519655 0
M  V30 30 H 3.174351 -5.833865 3.223211 0
M  V30 31 H 4.451831 -2.074424 0.986592 0
M  V30 32 H 2.391857 0.731197 -2.486156 0
M  V30 33 H -0.169733 1.817723 -1.470432 0
M  V30 34 H 2.868562 4.643708 1.050014 0
M  V30 35 H 0.201740 -0.227734 -0.262487 0
M  V30 36 H 0.121427 -3.041044 2.256073 0
M  V30 37 H -2.053691 -2.655352 2.147826 0
M  V30 38 H -2.633705 -0.640863 2.724213 0
M  V30 39 H -1.091259 0.058101 2.245791 0
M  V30 40 H -3.087714 1.162585 1.294715 0
M  V30 41 H -1.966629 0.604500 0.070660 0
M  V30 42 H -4.588769 -0.397009 -1.799656 0
M  V30 43 H -3.849368 1.188448 -1.248900 0
M  V30 44 H -2.805570 -0.145266 -1.732792 0
M  V30 45 H -3.812362 -2.205772 -1.057101 0
M  V30 46 H -4.087744 -2.414002 0.750600 0
M  V30 47 H -1.479236 -1.789201 -0.703615 0
M  V30 48 H -2.035984 -3.392249 -0.023092 0
M  V30 END ATOM
M  V30 BEGIN BOND
M  V30 1 1 1 2
M  V30 2 1 2 3
M  V30 3 2 3 4
M  V30 4 1 3 5
M  V30 5 2 5 6
M  V30 6 1 6 7
M  V30 7 2 7 8
M  V30 8 1 8 9
M  V30 9 1 9 10
M  V30 10 2 10 11
M  V30 11 1 11 12
M  V30 12 2 12 13
M  V30 13 1 13 14
M  V30 14 3 14 15
M  V30 15 1 13 16
M  V30 16 2 16 17
M  V30 17 1 8 18
M  V30 18 2 18 19
M  V30 19 1 19 20
M  V30 20 1 20 21
M  V30 21 1 21 22
M  V30 22 1 22 23
M  V30 23 1 23 24
M  V30 24 1 24 25
M  V30 25 1 24 26
M  V30 26 1 26 27
M  V30 27 1 19 5
M  V30 28 1 27 21
M  V30 29 1 17 10
M  V30 30 1 1 28
M  V30 31 1 1 29
M  V30 32 1 1 30
M  V30 33 1 6 31
M  V30 34 1 9 32
M  V30 35 1 11 33
M  V30 36 1 16 34
M  V30 37 1 18 35
M  V30 38 1 20 36
M  V30 39 1 21 37
M  V30 40 1 22 38
M  V30 41 1 22 39
M  V30 42 1 23 40
M  V30 43 1 23 41
M  V30 44 1 25 42
M  V30 45 1 25 43
M  V30 46 1 25 44
M  V30 47 1 26 45
M  V30 48 1 26 46
M  V30 49 1 27 47
M  V30 50 1 27 48
M  V30 END BOND
M  V30 END CTAB
M  END
>  <Dataset>  (521) 
ChEMBL_Kinases

>  <Ligand_Instance>  (521) 
nan

>  <PDB_ID>  (521) 
nan

>  <Standardized_SMILES>  (521) 
COC(=O)c1cnc(Nc2cnc(C#N)cn2)cc1NC1CCN(C)CC1

>  <Name>  (521) 
nan

>  <Pocket>  (521) 
nan

>  <ATP_Site>  (521) 
nan

>  <Peripheral>  (521) 
nan

>  <Num_H_Atoms_ProtBoundConf>  (521) 
nan

>  <Num_Resolved_Atoms>  (521) 
nan

>  <Num_Not_Resolved_Atoms>  (521) 
nan

$$$$
CHEMBL4203444
     RDKit          3D

  0  0  0  0  0  0  0  0  0  0999 V3000
M  V30 BEGIN CTAB
M  V30 COUNTS 35 38 0 0 0
M  V30 BEGIN ATOM
M  V30 1 O -1.012674 -2.042055 2.145186 0
M  V30 2 C -0.118259 -1.162937 2.158570 0
M  V30 3 N 1.264806 -1.339561 1.924607 0
M  V30 4 C 2.051149 -0.154388 2.019803 0
M  V30 5 N 3.130952 0.067690 1.334144 0
M  V30 6 C 3.630508 -0.887153 0.402659 0
M  V30 7 C 4.746362 -1.695522 0.475690 0
M  V30 8 C 5.021557 -2.549295 -0.570423 0
M  V30 9 C 4.213620 -2.614515 -1.681104 0
M  V30 10 O 4.571851 -3.511011 -2.693442 0
M  V30 11 C 3.089907 -1.812310 -1.773929 0
M  V30 12 C 2.806850 -0.945899 -0.717042 0
M  V30 13 S 1.047130 0.710076 3.280624 0
M  V30 14 C -0.487417 0.180679 2.444830 0
M  V30 15 C -1.465758 0.996628 2.217096 0
M  V30 16 C -1.684045 2.377880 2.611865 0
M  V30 17 O -0.856982 2.963705 3.328214 0
M  V30 18 N -2.912685 2.799507 2.038784 0
M  V30 19 C -3.408120 1.660499 1.307613 0
M  V30 20 C -4.584953 1.696873 0.592203 0
M  V30 21 C -4.963980 0.567531 -0.098724 0
M  V30 22 C -4.147067 -0.570639 -0.052305 0
M  V30 23 Br -4.764358 -2.071502 -1.043358 0
M  V30 24 C -2.996628 -0.497335 0.691910 0
M  V30 25 C -2.565903 0.577118 1.396397 0
M  V30 26 H 1.647544 -2.316237 1.689957 0
M  V30 27 H 5.298822 -1.553318 1.393891 0
M  V30 28 H 5.923175 -3.152360 -0.429946 0
M  V30 29 H 3.913884 -3.768931 -3.430457 0
M  V30 30 H 2.492313 -1.901536 -2.662096 0
M  V30 31 H 1.903734 -0.370052 -0.903649 0
M  V30 32 H -3.278719 3.744463 2.181065 0
M  V30 33 H -5.241245 2.547488 0.529163 0
M  V30 34 H -5.877923 0.574803 -0.661938 0
M  V30 35 H -2.493285 -1.419840 0.583431 0
M  V30 END ATOM
M  V30 BEGIN BOND
M  V30 1 2 1 2
M  V30 2 1 2 3
M  V30 3 1 3 4
M  V30 4 2 4 5
M  V30 5 1 5 6
M  V30 6 2 6 7
M  V30 7 1 7 8
M  V30 8 2 8 9
M  V30 9 1 9 10
M  V30 10 1 9 11
M  V30 11 2 11 12
M  V30 12 1 4 13
M  V30 13 1 13 14
M  V30 14 2 14 15
M  V30 15 1 15 16
M  V30 16 2 16 17
M  V30 17 1 16 18
M  V30 18 1 18 19
M  V30 19 2 19 20
M  V30 20 1 20 21
M  V30 21 2 21 22
M  V30 22 1 22 23
M  V30 23 1 22 24
M  V30 24 2 24 25
M  V30 25 1 14 2
M  V30 26 1 25 15
M  V30 27 1 12 6
M  V30 28 1 25 19
M  V30 29 1 3 26
M  V30 30 1 7 27
M  V30 31 1 8 28
M  V30 32 1 10 29
M  V30 33 1 11 30
M  V30 34 1 12 31
M  V30 35 1 18 32
M  V30 36 1 20 33
M  V30 37 1 21 34
M  V30 38 1 24 35
M  V30 END BOND
M  V30 END CTAB
M  END
>  <Dataset>  (522) 
ChEMBL_Kinases

>  <Ligand_Instance>  (522) 
nan

>  <PDB_ID>  (522) 
nan

>  <Standardized_SMILES>  (522) 
O=C1N/C(=N\c2ccc(O)cc2)S/C1=C1\C(=O)Nc2ccc(Br)cc21

>  <Name>  (522) 
nan

>  <Pocket>  (522) 
nan

>  <ATP_Site>  (522) 
nan

>  <Peripheral>  (522) 
nan

>  <Num_H_Atoms_ProtBoundConf>  (522) 
nan

>  <Num_Resolved_Atoms>  (522) 
nan

>  <Num_Not_Resolved_Atoms>  (522) 
nan

$$$$
CHEMBL4784560
     RDKit          3D

  0  0  0  0  0  0  0  0  0  0999 V3000
M  V30 BEGIN CTAB
M  V30 COUNTS 59 63 0 0 0
M  V30 BEGIN ATOM
M  V30 1 C 8.176842 -2.243857 5.340082 0
M  V30 2 C 7.915700 -1.231092 4.281625 0
M  V30 3 C 8.972948 -0.492329 3.795609 0
M  V30 4 C 8.706863 0.437252 2.818051 0
M  V30 5 C 7.431953 0.637692 2.328129 0
M  V30 6 N 6.404442 -0.088064 2.808138 0
M  V30 7 C 5.048771 0.030047 2.380886 0
M  V30 8 C 4.201123 1.073110 2.704791 0
M  V30 9 C 2.897584 1.112909 2.249000 0
M  V30 10 C 2.391189 0.089802 1.438603 0
M  V30 11 C 1.013092 0.127822 0.954269 0
M  V30 12 C 0.630806 -0.149494 -0.341366 0
M  V30 13 C -0.681896 -0.102742 -0.760246 0
M  V30 14 C -1.664139 0.235754 0.150722 0
M  V30 15 C -3.033312 0.373828 0.074101 0
M  V30 16 C -3.833914 0.168125 -1.126392 0
M  V30 17 O -3.241015 -0.156051 -2.160515 0
M  V30 18 N -5.243648 0.336140 -1.100337 0
M  V30 19 C -6.132778 0.156872 -2.232190 0
M  V30 20 C -5.992531 -1.272896 -2.704197 0
M  V30 21 C -6.359684 -2.256361 -1.618332 0
M  V30 22 C -6.576126 -3.620143 -2.210478 0
M  V30 23 O -5.881087 -3.711855 -3.413430 0
M  V30 24 C -6.523174 -2.937571 -4.403486 0
M  V30 25 C -6.892542 -1.569778 -3.879744 0
M  V30 26 N -3.462101 0.722205 1.281064 0
M  V30 27 N -2.438150 0.818023 2.141474 0
M  V30 28 C -1.298051 0.517029 1.454836 0
M  V30 29 C 0.023023 0.471610 1.882971 0
M  V30 30 C 3.253055 -0.943189 1.126074 0
M  V30 31 Cl 2.708858 -2.265384 0.119363 0
M  V30 32 C 4.562711 -1.004175 1.571200 0
M  V30 33 C 6.656911 -1.014206 3.779180 0
M  V30 34 O 5.718627 -1.724047 4.263952 0
M  V30 35 H 7.201663 -2.344120 5.891992 0
M  V30 36 H 8.357186 -3.210715 4.857143 0
M  V30 37 H 8.979147 -1.924986 6.020335 0
M  V30 38 H 9.991247 -0.607783 4.142902 0
M  V30 39 H 9.460388 1.066870 2.370011 0
M  V30 40 H 7.104224 1.329257 1.571122 0
M  V30 41 H 4.634534 1.841097 3.332738 0
M  V30 42 H 2.259318 1.956685 2.528480 0
M  V30 43 H 1.400449 -0.413964 -1.052075 0
M  V30 44 H -0.933558 -0.331833 -1.800883 0
M  V30 45 H -5.648746 0.615840 -0.161228 0
M  V30 46 H -7.151024 0.421032 -1.953709 0
M  V30 47 H -5.799133 0.872400 -3.004092 0
M  V30 48 H -4.959312 -1.452606 -3.044478 0
M  V30 49 H -7.314956 -1.968103 -1.135314 0
M  V30 50 H -5.534891 -2.338843 -0.871740 0
M  V30 51 H -6.173610 -4.397104 -1.534115 0
M  V30 52 H -7.651975 -3.864147 -2.333639 0
M  V30 53 H -7.428143 -3.524780 -4.689216 0
M  V30 54 H -5.785588 -2.817548 -5.204177 0
M  V30 55 H -7.965706 -1.545768 -3.593330 0
M  V30 56 H -6.764664 -0.848422 -4.706724 0
M  V30 57 H -2.542873 1.079793 3.149036 0
M  V30 58 H 0.257547 0.704964 2.932894 0
M  V30 59 H 5.216996 -1.837139 1.304204 0
M  V30 END ATOM
M  V30 BEGIN BOND
M  V30 1 1 1 2
M  V30 2 2 2 3
M  V30 3 1 3 4
M  V30 4 2 4 5
M  V30 5 1 5 6
M  V30 6 1 6 7
M  V30 7 2 7 8
M  V30 8 1 8 9
M  V30 9 2 9 10
M  V30 10 1 10 11
M  V30 11 2 11 12
M  V30 12 1 12 13
M  V30 13 2 13 14
M  V30 14 1 14 15
M  V30 15 1 15 16
M  V30 16 2 16 17
M  V30 17 1 16 18
M  V30 18 1 18 19
M  V30 19 1 19 20
M  V30 20 1 20 21
M  V30 21 1 21 22
M  V30 22 1 22 23
M  V30 23 1 23 24
M  V30 24 1 24 25
M  V30 25 2 15 26
M  V30 26 1 26 27
M  V30 27 1 27 28
M  V30 28 2 28 29
M  V30 29 1 10 30
M  V30 30 1 30 31
M  V30 31 2 30 32
M  V30 32 1 6 33
M  V30 33 2 33 34
M  V30 34 1 33 2
M  V30 35 1 32 7
M  V30 36 1 29 11
M  V30 37 1 28 14
M  V30 38 1 25 20
M  V30 39 1 1 35
M  V30 40 1 1 36
M  V30 41 1 1 37
M  V30 42 1 3 38
M  V30 43 1 4 39
M  V30 44 1 5 40
M  V30 45 1 8 41
M  V30 46 1 9 42
M  V30 47 1 12 43
M  V30 48 1 13 44
M  V30 49 1 18 45
M  V30 50 1 19 46
M  V30 51 1 19 47
M  V30 52 1 20 48
M  V30 53 1 21 49
M  V30 54 1 21 50
M  V30 55 1 22 51
M  V30 56 1 22 52
M  V30 57 1 24 53
M  V30 58 1 24 54
M  V30 59 1 25 55
M  V30 60 1 25 56
M  V30 61 1 27 57
M  V30 62 1 29 58
M  V30 63 1 32 59
M  V30 END BOND
M  V30 END CTAB
M  END
>  <Dataset>  (523) 
ChEMBL_Kinases

>  <Ligand_Instance>  (523) 
nan

>  <PDB_ID>  (523) 
nan

>  <Standardized_SMILES>  (523) 
Cc1cccn(-c2ccc(-c3ccc4c(C(=O)NCC5CCOCC5)n[nH]c4c3)c(Cl)c2)c1=O

>  <Name>  (523) 
nan

>  <Pocket>  (523) 
nan

>  <ATP_Site>  (523) 
nan

>  <Peripheral>  (523) 
nan

>  <Num_H_Atoms_ProtBoundConf>  (523) 
nan

>  <Num_Resolved_Atoms>  (523) 
nan

>  <Num_Not_Resolved_Atoms>  (523) 
nan

$$$$
CHEMBL4784564
     RDKit          3D

  0  0  0  0  0  0  0  0  0  0999 V3000
M  V30 BEGIN CTAB
M  V30 COUNTS 39 41 0 0 0
M  V30 BEGIN ATOM
M  V30 1 C -1.924013 -4.448283 1.569844 0
M  V30 2 N -0.460268 -4.515228 1.447329 0
M  V30 3 C 0.063173 -4.086823 2.744841 0
M  V30 4 C -0.021621 -3.596630 0.401367 0
M  V30 5 C 1.449567 -3.647025 0.182124 0
M  V30 6 N 1.912238 -2.722694 -0.832860 0
M  V30 7 C 1.743362 -1.347116 -0.544093 0
M  V30 8 N 2.908695 -0.662811 -0.740361 0
M  V30 9 C 3.038342 0.648892 -0.533155 0
M  V30 10 C 1.942622 1.393962 -0.090566 0
M  V30 11 C 1.962916 2.747976 0.160514 0
M  V30 12 C 0.831717 3.402331 0.600201 0
M  V30 13 C 0.890625 4.770870 0.845231 0
M  V30 14 N -0.230085 5.402907 1.279049 0
M  V30 15 C -1.392577 4.741383 1.477738 0
M  V30 16 C -1.475444 3.386425 1.241557 0
M  V30 17 C -0.355719 2.733192 0.803834 0
M  V30 18 C -0.301726 1.387656 0.533356 0
M  V30 19 N -1.502904 0.681308 0.725181 0 CHG=1 VAL=4
M  V30 20 O -2.693229 0.589370 1.033806 0
M  V30 21 O -2.171497 -0.508430 0.675361 0 CHG=-1 VAL=1
M  V30 22 C 0.781552 0.679041 0.097754 0
M  V30 23 N 0.683917 -0.640652 -0.120308 0
M  V30 24 H -2.232769 -3.424067 1.844270 0
M  V30 25 H -2.194583 -5.118246 2.403297 0
M  V30 26 H -2.363995 -4.793709 0.619264 0
M  V30 27 H 1.026949 -4.557958 2.948696 0
M  V30 28 H -0.661445 -4.422523 3.512043 0
M  V30 29 H 0.092273 -2.974550 2.776538 0
M  V30 30 H -0.506552 -3.951327 -0.549562 0
M  V30 31 H -0.389844 -2.592008 0.618827 0
M  V30 32 H 1.828470 -4.674990 0.002409 0
M  V30 33 H 1.947714 -3.335705 1.141456 0
M  V30 34 H 2.343432 -3.017289 -1.733599 0
M  V30 35 H 3.960832 1.191787 -0.689561 0
M  V30 36 H 2.904113 3.241383 -0.008457 0
M  V30 37 H 1.818030 5.287077 0.684892 0
M  V30 38 H -2.280926 5.252335 1.823011 0
M  V30 39 H -2.384378 2.859367 1.394848 0
M  V30 END ATOM
M  V30 BEGIN BOND
M  V30 1 1 1 2
M  V30 2 1 2 3
M  V30 3 1 2 4
M  V30 4 1 4 5
M  V30 5 1 5 6
M  V30 6 1 6 7
M  V30 7 2 7 8
M  V30 8 1 8 9
M  V30 9 2 9 10
M  V30 10 1 10 11
M  V30 11 2 11 12
M  V30 12 1 12 13
M  V30 13 2 13 14
M  V30 14 1 14 15
M  V30 15 2 15 16
M  V30 16 1 16 17
M  V30 17 2 17 18
M  V30 18 1 18 19
M  V30 19 2 19 20
M  V30 20 1 19 21
M  V30 21 1 18 22
M  V30 22 2 22 23
M  V30 23 1 23 7
M  V30 24 1 22 10
M  V30 25 1 17 12
M  V30 26 1 1 24
M  V30 27 1 1 25
M  V30 28 1 1 26
M  V30 29 1 3 27
M  V30 30 1 3 28
M  V30 31 1 3 29
M  V30 32 1 4 30
M  V30 33 1 4 31
M  V30 34 1 5 32
M  V30 35 1 5 33
M  V30 36 1 6 34
M  V30 37 1 9 35
M  V30 38 1 11 36
M  V30 39 1 13 37
M  V30 40 1 15 38
M  V30 41 1 16 39
M  V30 END BOND
M  V30 END CTAB
M  END
>  <Dataset>  (524) 
ChEMBL_Kinases

>  <Ligand_Instance>  (524) 
nan

>  <PDB_ID>  (524) 
nan

>  <Standardized_SMILES>  (524) 
CN(C)CCNc1ncc2cc3cnccc3c([N+](=O)[O-])c2n1

>  <Name>  (524) 
nan

>  <Pocket>  (524) 
nan

>  <ATP_Site>  (524) 
nan

>  <Peripheral>  (524) 
nan

>  <Num_H_Atoms_ProtBoundConf>  (524) 
nan

>  <Num_Resolved_Atoms>  (524) 
nan

>  <Num_Not_Resolved_Atoms>  (524) 
nan

$$$$
CHEMBL4203337
     RDKit          3D

  0  0  0  0  0  0  0  0  0  0999 V3000
M  V30 BEGIN CTAB
M  V30 COUNTS 70 74 0 0 0
M  V30 BEGIN ATOM
M  V30 1 C 2.829044 -2.003295 4.388893 0
M  V30 2 C 2.491113 -0.964245 3.372738 0
M  V30 3 N 1.246082 -1.182178 2.674835 0
M  V30 4 C 1.247973 -1.942218 1.468102 0
M  V30 5 O 2.280489 -2.446298 0.959113 0
M  V30 6 N 0.016761 -2.153583 0.784519 0
M  V30 7 C -0.143236 -2.887541 -0.425587 0
M  V30 8 C -0.021764 -2.135831 -1.585599 0
M  V30 9 C -0.162007 -2.764303 -2.799103 0
M  V30 10 N -0.045104 -2.030096 -4.026768 0
M  V30 11 C -1.232331 -1.463462 -4.559791 0
M  V30 12 O -2.227501 -1.701652 -3.850917 0
M  V30 13 C -1.198136 -0.710087 -5.791754 0
M  V30 14 C -0.087280 -0.447975 -6.576572 0
M  V30 15 C -0.198361 0.286211 -7.730189 0
M  V30 16 C -1.415389 0.804743 -8.175903 0
M  V30 17 C -1.466256 1.583419 -9.421287 0
M  V30 18 C -2.547913 0.566858 -7.423327 0
M  V30 19 C -3.868263 1.080882 -7.828282 0
M  V30 20 F -4.813226 0.687073 -6.883815 0
M  V30 21 F -4.286200 0.580055 -9.034622 0
M  V30 22 F -3.902033 2.479031 -7.884583 0
M  V30 23 C -2.389884 -0.167778 -6.284168 0
M  V30 24 C -0.418234 -4.121707 -2.786259 0
M  V30 25 C -0.542619 -4.886663 -1.650082 0
M  V30 26 C -0.399989 -4.245319 -0.438579 0
M  V30 27 C -0.505692 -4.927733 0.873654 0
M  V30 28 C -1.258127 -1.635874 1.245678 0
M  V30 29 C -1.131839 -0.868888 2.500495 0
M  V30 30 C -2.288791 -0.334978 3.022452 0
M  V30 31 N -2.239173 0.370714 4.158270 0
M  V30 32 C -1.117297 0.611459 4.857757 0
M  V30 33 N -1.156408 1.370878 6.054078 0
M  V30 34 C -0.094809 1.718047 6.907289 0
M  V30 35 C 1.228725 1.383378 6.753019 0
M  V30 36 C 2.253627 1.735672 7.604049 0
M  V30 37 C 1.925061 2.489542 8.707030 0
M  V30 38 C 2.935655 2.934875 9.701731 0
M  V30 39 N 0.636266 2.835943 8.889818 0
M  V30 40 C -0.334195 2.471735 8.035363 0
M  V30 41 N -0.015404 0.074718 4.315737 0
M  V30 42 C 0.039145 -0.643969 3.188748 0
M  V30 43 H 3.769151 -2.564411 4.123485 0
M  V30 44 H 3.041380 -1.595630 5.407834 0
M  V30 45 H 2.048576 -2.794406 4.440487 0
M  V30 46 H 3.299344 -0.964782 2.598343 0
M  V30 47 H 2.525948 0.058130 3.823764 0
M  V30 48 H 0.176909 -1.082652 -1.602755 0
M  V30 49 H 0.901312 -1.934367 -4.488871 0
M  V30 50 H 0.845922 -0.855445 -6.218845 0
M  V30 51 H 0.708734 0.467883 -8.318453 0
M  V30 52 H -2.189506 2.428258 -9.410924 0
M  V30 53 H -1.745377 0.944850 -10.308231 0
M  V30 54 H -0.485249 2.042605 -9.674899 0
M  V30 55 H -3.299905 -0.346844 -5.698927 0
M  V30 56 H -0.536583 -4.660399 -3.721533 0
M  V30 57 H -0.741430 -5.940119 -1.640670 0
M  V30 58 H 0.123607 -4.392208 1.619213 0
M  V30 59 H -1.541795 -4.950977 1.246943 0
M  V30 60 H -0.112032 -5.974257 0.837945 0
M  V30 61 H -1.762763 -1.019379 0.465790 0
M  V30 62 H -1.906907 -2.513335 1.478783 0
M  V30 63 H -3.259734 -0.462318 2.545766 0
M  V30 64 H -2.116854 1.719362 6.335625 0
M  V30 65 H 1.523492 0.792754 5.899658 0
M  V30 66 H 3.277732 1.438613 7.424146 0
M  V30 67 H 2.570356 2.709082 10.724588 0
M  V30 68 H 3.930632 2.546495 9.475172 0
M  V30 69 H 2.956052 4.056895 9.659237 0
M  V30 70 H -1.341718 2.812717 8.289654 0
M  V30 END ATOM
M  V30 BEGIN BOND
M  V30 1 1 1 2
M  V30 2 1 2 3
M  V30 3 1 3 4
M  V30 4 2 4 5
M  V30 5 1 4 6
M  V30 6 1 6 7
M  V30 7 2 7 8
M  V30 8 1 8 9
M  V30 9 1 9 10
M  V30 10 1 10 11
M  V30 11 2 11 12
M  V30 12 1 11 13
M  V30 13 2 13 14
M  V30 14 1 14 15
M  V30 15 2 15 16
M  V30 16 1 16 17
M  V30 17 1 16 18
M  V30 18 1 18 19
M  V30 19 1 19 20
M  V30 20 1 19 21
M  V30 21 1 19 22
M  V30 22 2 18 23
M  V30 23 2 9 24
M  V30 24 1 24 25
M  V30 25 2 25 26
M  V30 26 1 26 27
M  V30 27 1 6 28
M  V30 28 1 28 29
M  V30 29 2 29 30
M  V30 30 1 30 31
M  V30 31 2 31 32
M  V30 32 1 32 33
M  V30 33 1 33 34
M  V30 34 2 34 35
M  V30 35 1 35 36
M  V30 36 2 36 37
M  V30 37 1 37 38
M  V30 38 1 37 39
M  V30 39 2 39 40
M  V30 40 1 32 41
M  V30 41 2 41 42
M  V30 42 1 42 3
M  V30 43 1 26 7
M  V30 44 1 42 29
M  V30 45 1 23 13
M  V30 46 1 40 34
M  V30 47 1 1 43
M  V30 48 1 1 44
M  V30 49 1 1 45
M  V30 50 1 2 46
M  V30 51 1 2 47
M  V30 52 1 8 48
M  V30 53 1 10 49
M  V30 54 1 14 50
M  V30 55 1 15 51
M  V30 56 1 17 52
M  V30 57 1 17 53
M  V30 58 1 17 54
M  V30 59 1 23 55
M  V30 60 1 24 56
M  V30 61 1 25 57
M  V30 62 1 27 58
M  V30 63 1 27 59
M  V30 64 1 27 60
M  V30 65 1 28 61
M  V30 66 1 28 62
M  V30 67 1 30 63
M  V30 68 1 33 64
M  V30 69 1 35 65
M  V30 70 1 36 66
M  V30 71 1 38 67
M  V30 72 1 38 68
M  V30 73 1 38 69
M  V30 74 1 40 70
M  V30 END BOND
M  V30 END CTAB
M  END
>  <Dataset>  (525) 
ChEMBL_Kinases

>  <Ligand_Instance>  (525) 
nan

>  <PDB_ID>  (525) 
nan

>  <Standardized_SMILES>  (525) 
CCN1C(=O)N(c2cc(NC(=O)c3ccc(C)c(C(F)(F)F)c3)ccc2C)Cc2cnc(Nc3ccc(C)nc3)nc21

>  <Name>  (525) 
nan

>  <Pocket>  (525) 
nan

>  <ATP_Site>  (525) 
nan

>  <Peripheral>  (525) 
nan

>  <Num_H_Atoms_ProtBoundConf>  (525) 
nan

>  <Num_Resolved_Atoms>  (525) 
nan

>  <Num_Not_Resolved_Atoms>  (525) 
nan

$$$$
CHEMBL4203279
     RDKit          3D

  0  0  0  0  0  0  0  0  0  0999 V3000
M  V30 BEGIN CTAB
M  V30 COUNTS 39 41 0 0 0
M  V30 BEGIN ATOM
M  V30 1 C 1.638762 -5.098690 1.085865 0
M  V30 2 N 1.364220 -4.380516 -0.152178 0
M  V30 3 C -0.014586 -4.122000 -0.505866 0
M  V30 4 C 0.110689 -3.650179 -1.931513 0
M  V30 5 C 1.478660 -3.000336 -2.044195 0 CFG=1
M  V30 6 O 1.900019 -3.003346 -3.350948 0
M  V30 7 C 1.442410 -1.608931 -1.558378 0
M  V30 8 C 1.424217 -0.471042 -1.144152 0
M  V30 9 C 1.392998 0.878750 -0.637309 0
M  V30 10 C 2.063595 1.916106 -1.254583 0
M  V30 11 C 1.949251 3.158333 -0.664037 0
M  V30 12 N 1.238664 3.407371 0.451116 0
M  V30 13 C 0.566275 2.398852 1.080849 0
M  V30 14 N -0.214466 2.552822 2.265177 0
M  V30 15 C 0.097688 3.107793 3.451005 0
M  V30 16 C -1.021468 2.997093 4.256720 0
M  V30 17 C -2.009633 2.358349 3.512074 0
M  V30 18 C -3.365333 2.017265 3.930991 0
M  V30 19 N -3.801727 2.345905 5.245834 0
M  V30 20 O -4.234232 1.434382 3.219080 0
M  V30 21 N -1.477415 2.104225 2.303274 0
M  V30 22 C 0.679578 1.154748 0.491169 0
M  V30 23 C 2.277228 -3.855668 -1.136963 0
M  V30 24 O 3.481805 -4.196146 -1.046374 0
M  V30 25 H 1.650555 -4.363286 1.909166 0
M  V30 26 H 0.917332 -5.919608 1.263267 0
M  V30 27 H 2.657385 -5.540737 1.046217 0
M  V30 28 H -0.428802 -3.309449 0.149430 0
M  V30 29 H -0.665716 -5.000063 -0.487123 0
M  V30 30 H -0.095880 -4.406971 -2.692987 0
M  V30 31 H -0.633901 -2.826526 -2.068657 0
M  V30 32 H 1.118187 -2.746029 -3.922243 0
M  V30 33 H 2.635282 1.725339 -2.148472 0
M  V30 34 H 2.460804 4.013853 -1.112962 0
M  V30 35 H 1.061377 3.545983 3.680019 0
M  V30 36 H -1.112647 3.343371 5.278615 0
M  V30 37 H -3.980124 1.472261 5.820901 0
M  V30 38 H -4.114857 2.596180 6.188743 0
M  V30 39 H 0.150771 0.329741 0.975540 0
M  V30 END ATOM
M  V30 BEGIN BOND
M  V30 1 1 1 2
M  V30 2 1 2 3
M  V30 3 1 3 4
M  V30 4 1 4 5
M  V30 5 1 5 6
M  V30 6 1 5 7 CFG=1
M  V30 7 3 7 8
M  V30 8 1 8 9
M  V30 9 2 9 10
M  V30 10 1 10 11
M  V30 11 2 11 12
M  V30 12 1 12 13
M  V30 13 1 13 14
M  V30 14 1 14 15
M  V30 15 2 15 16
M  V30 16 1 16 17
M  V30 17 1 17 18
M  V30 18 1 18 19
M  V30 19 2 18 20
M  V30 20 2 17 21
M  V30 21 2 13 22
M  V30 22 1 5 23
M  V30 23 2 23 24
M  V30 24 1 23 2
M  V30 25 1 22 9
M  V30 26 1 21 14
M  V30 27 1 1 25
M  V30 28 1 1 26
M  V30 29 1 1 27
M  V30 30 1 3 28
M  V30 31 1 3 29
M  V30 32 1 4 30
M  V30 33 1 4 31
M  V30 34 1 6 32
M  V30 35 1 10 33
M  V30 36 1 11 34
M  V30 37 1 15 35
M  V30 38 1 16 36
M  V30 39 1 19 37
M  V30 40 1 19 38
M  V30 41 1 22 39
M  V30 END BOND
M  V30 END CTAB
M  END
>  <Dataset>  (526) 
ChEMBL_Kinases

>  <Ligand_Instance>  (526) 
nan

>  <PDB_ID>  (526) 
nan

>  <Standardized_SMILES>  (526) 
CN1CC[C@@](O)(C#Cc2ccnc(-n3ccc(C(N)=O)n3)c2)C1=O

>  <Name>  (526) 
nan

>  <Pocket>  (526) 
nan

>  <ATP_Site>  (526) 
nan

>  <Peripheral>  (526) 
nan

>  <Num_H_Atoms_ProtBoundConf>  (526) 
nan

>  <Num_Resolved_Atoms>  (526) 
nan

>  <Num_Not_Resolved_Atoms>  (526) 
nan

$$$$
CHEMBL4203275
     RDKit          3D

  0  0  0  0  0  0  0  0  0  0999 V3000
M  V30 BEGIN CTAB
M  V30 COUNTS 34 36 0 0 0
M  V30 BEGIN ATOM
M  V30 1 C -0.989113 -2.392637 2.590371 0
M  V30 2 C -0.994354 -3.541466 1.606628 0
M  V30 3 C 0.064538 -3.409358 0.550361 0
M  V30 4 C -0.070180 -4.642125 -0.362293 0
M  V30 5 N 1.416923 -3.471613 1.055723 0
M  V30 6 C 1.933210 -2.208032 1.451709 0
M  V30 7 O 2.918741 -2.072664 2.221879 0
M  V30 8 C 1.327061 -0.964152 0.969631 0
M  V30 9 S 1.682754 0.743899 1.239874 0
M  V30 10 C 0.340074 1.387473 0.185978 0
M  V30 11 C 0.104318 2.790383 -0.005106 0
M  V30 12 C -0.929941 3.239822 -0.816724 0
M  V30 13 C -1.119432 4.599238 -0.971369 0
M  V30 14 N -0.337015 5.509734 -0.363204 0
M  V30 15 C 0.674150 5.078399 0.430251 0
M  V30 16 C 0.901922 3.729578 0.614812 0
M  V30 17 C -0.255313 0.263544 -0.274727 0
M  V30 18 C 0.220895 -0.942235 0.103766 0
M  V30 19 N -0.227234 -2.248293 -0.239121 0
M  V30 20 H -0.008600 -2.386392 3.108868 0
M  V30 21 H -1.811873 -2.613809 3.329247 0
M  V30 22 H -1.279749 -1.433620 2.138729 0
M  V30 23 H -1.968150 -3.468567 1.078998 0
M  V30 24 H -0.906010 -4.486665 2.181903 0
M  V30 25 H -1.081555 -5.108344 -0.238311 0
M  V30 26 H 0.072776 -4.379524 -1.419438 0
M  V30 27 H 0.653105 -5.437776 -0.075839 0
M  V30 28 H 2.019351 -4.315853 1.151698 0
M  V30 29 H -1.533196 2.472740 -1.285325 0
M  V30 30 H -1.934669 4.923201 -1.610966 0
M  V30 31 H 1.308580 5.783666 0.923538 0
M  V30 32 H 1.709378 3.379233 1.248448 0
M  V30 33 H -1.096354 0.432883 -0.934415 0
M  V30 34 H -0.806642 -2.354150 -1.127330 0
M  V30 END ATOM
M  V30 BEGIN BOND
M  V30 1 1 1 2
M  V30 2 1 2 3
M  V30 3 1 3 4
M  V30 4 1 3 5
M  V30 5 1 5 6
M  V30 6 2 6 7
M  V30 7 1 6 8
M  V30 8 1 8 9
M  V30 9 1 9 10
M  V30 10 1 10 11
M  V30 11 2 11 12
M  V30 12 1 12 13
M  V30 13 2 13 14
M  V30 14 1 14 15
M  V30 15 2 15 16
M  V30 16 2 10 17
M  V30 17 1 17 18
M  V30 18 1 18 19
M  V30 19 1 19 3
M  V30 20 2 18 8
M  V30 21 1 16 11
M  V30 22 1 1 20
M  V30 23 1 1 21
M  V30 24 1 1 22
M  V30 25 1 2 23
M  V30 26 1 2 24
M  V30 27 1 4 25
M  V30 28 1 4 26
M  V30 29 1 4 27
M  V30 30 1 5 28
M  V30 31 1 12 29
M  V30 32 1 13 30
M  V30 33 1 15 31
M  V30 34 1 16 32
M  V30 35 1 17 33
M  V30 36 1 19 34
M  V30 END BOND
M  V30 END CTAB
M  END
>  <Dataset>  (527) 
ChEMBL_Kinases

>  <Ligand_Instance>  (527) 
nan

>  <PDB_ID>  (527) 
nan

>  <Standardized_SMILES>  (527) 
CCC1(C)NC(=O)c2sc(-c3ccncc3)cc2N1

>  <Name>  (527) 
nan

>  <Pocket>  (527) 
nan

>  <ATP_Site>  (527) 
nan

>  <Peripheral>  (527) 
nan

>  <Num_H_Atoms_ProtBoundConf>  (527) 
nan

>  <Num_Resolved_Atoms>  (527) 
nan

>  <Num_Not_Resolved_Atoms>  (527) 
nan

$$$$
CHEMBL4203258
     RDKit          3D

  0  0  0  0  0  0  0  0  0  0999 V3000
M  V30 BEGIN CTAB
M  V30 COUNTS 32 34 0 0 0
M  V30 BEGIN ATOM
M  V30 1 O 1.888843 -3.849957 2.278621 0
M  V30 2 C 2.065770 -2.639836 1.941049 0
M  V30 3 N 3.345364 -2.034698 2.126601 0
M  V30 4 C 3.311312 -0.682965 1.680598 0
M  V30 5 C 4.200825 0.387688 1.600012 0
M  V30 6 C 3.826728 1.618242 1.091940 0
M  V30 7 C 2.535749 1.830398 0.639464 0
M  V30 8 Br 2.065014 3.540904 -0.052100 0
M  V30 9 C 1.635956 0.784135 0.709124 0
M  V30 10 C 2.034635 -0.434625 1.220707 0
M  V30 11 C 1.190522 -1.621416 1.352269 0
M  V30 12 N -0.014371 -1.924438 1.091557 0
M  V30 13 N -0.972930 -1.071078 0.531207 0
M  V30 14 C -1.170601 -0.999400 -0.926466 0
M  V30 15 C -2.570780 -1.404958 -1.281605 0
M  V30 16 C -3.473069 -1.641311 -0.123522 0
M  V30 17 C -3.241531 -0.815352 1.095889 0
M  V30 18 C -1.911812 -0.141678 1.186386 0
M  V30 19 H 4.232986 -2.423071 2.515895 0
M  V30 20 H 5.200383 0.190929 1.960824 0
M  V30 21 H 4.577595 2.404069 1.061948 0
M  V30 22 H 0.630275 0.974654 0.348501 0
M  V30 23 H -0.402202 -1.583588 -1.476142 0
M  V30 24 H -0.974124 0.063643 -1.186374 0
M  V30 25 H -3.000199 -0.657948 -1.977895 0
M  V30 26 H -2.484030 -2.364679 -1.863481 0
M  V30 27 H -4.518977 -1.463277 -0.453932 0
M  V30 28 H -3.440503 -2.739107 0.143650 0
M  V30 29 H -3.342656 -1.467710 2.003372 0
M  V30 30 H -4.012504 -0.010335 1.228732 0
M  V30 31 H -1.883360 0.854581 0.687736 0
M  V30 32 H -1.630420 -0.022115 2.252812 0
M  V30 END ATOM
M  V30 BEGIN BOND
M  V30 1 2 1 2
M  V30 2 1 2 3
M  V30 3 1 3 4
M  V30 4 2 4 5
M  V30 5 1 5 6
M  V30 6 2 6 7
M  V30 7 1 7 8
M  V30 8 1 7 9
M  V30 9 2 9 10
M  V30 10 1 10 11
M  V30 11 2 11 12 CFG=2
M  V30 12 1 12 13
M  V30 13 1 13 14
M  V30 14 1 14 15
M  V30 15 1 15 16
M  V30 16 1 16 17
M  V30 17 1 17 18
M  V30 18 1 11 2
M  V30 19 1 18 13
M  V30 20 1 10 4
M  V30 21 1 3 19
M  V30 22 1 5 20
M  V30 23 1 6 21
M  V30 24 1 9 22
M  V30 25 1 14 23
M  V30 26 1 14 24
M  V30 27 1 15 25
M  V30 28 1 15 26
M  V30 29 1 16 27
M  V30 30 1 16 28
M  V30 31 1 17 29
M  V30 32 1 17 30
M  V30 33 1 18 31
M  V30 34 1 18 32
M  V30 END BOND
M  V30 END CTAB
M  END
>  <Dataset>  (528) 
ChEMBL_Kinases

>  <Ligand_Instance>  (528) 
nan

>  <PDB_ID>  (528) 
nan

>  <Standardized_SMILES>  (528) 
O=C1Nc2ccc(Br)cc2C1=NN1CCCCC1

>  <Name>  (528) 
nan

>  <Pocket>  (528) 
nan

>  <ATP_Site>  (528) 
nan

>  <Peripheral>  (528) 
nan

>  <Num_H_Atoms_ProtBoundConf>  (528) 
nan

>  <Num_Resolved_Atoms>  (528) 
nan

>  <Num_Not_Resolved_Atoms>  (528) 
nan

$$$$
CHEMBL4203242
     RDKit          3D

  0  0  0  0  0  0  0  0  0  0999 V3000
M  V30 BEGIN CTAB
M  V30 COUNTS 26 27 0 0 0
M  V30 BEGIN ATOM
M  V30 1 C -0.467112 1.216577 4.389558 0
M  V30 2 C -0.030075 -0.026081 4.013693 0
M  V30 3 N 0.334186 -0.351696 2.770301 0
M  V30 4 C 0.276517 0.584648 1.808236 0
M  V30 5 N 0.658460 0.268977 0.470751 0
M  V30 6 C 1.117021 -1.027888 0.044895 0
M  V30 7 C 1.476759 -1.029546 -1.432242 0
M  V30 8 C 0.287574 -0.532750 -2.176334 0
M  V30 9 O -0.934887 -0.851480 -1.692455 0
M  V30 10 C -1.051029 -1.929339 -0.852786 0
M  V30 11 C 0.008378 -2.034623 0.196733 0
M  V30 12 N -0.142836 1.826962 2.103491 0
M  V30 13 C -0.498442 2.114141 3.357542 0
M  V30 14 H -0.749659 1.441590 5.390111 0
M  V30 15 H 0.052563 -0.851334 4.715807 0
M  V30 16 H 0.606522 1.026842 -0.266353 0
M  V30 17 H 2.020326 -1.326726 0.583416 0
M  V30 18 H 1.680127 -2.075623 -1.733585 0
M  V30 19 H 2.318619 -0.344618 -1.619501 0
M  V30 20 H 0.342517 0.593524 -2.241770 0
M  V30 21 H 0.349981 -0.859248 -3.252792 0
M  V30 22 H -2.020579 -1.810008 -0.322023 0
M  V30 23 H -1.138768 -2.880609 -1.419353 0
M  V30 24 H 0.502778 -3.033705 0.118794 0
M  V30 25 H -0.390398 -1.992427 1.228235 0
M  V30 26 H -0.832585 3.147514 3.535776 0
M  V30 END ATOM
M  V30 BEGIN BOND
M  V30 1 2 1 2
M  V30 2 1 2 3
M  V30 3 2 3 4
M  V30 4 1 4 5
M  V30 5 1 5 6
M  V30 6 1 6 7
M  V30 7 1 7 8
M  V30 8 1 8 9
M  V30 9 1 9 10
M  V30 10 1 10 11
M  V30 11 1 4 12
M  V30 12 2 12 13
M  V30 13 1 13 1
M  V30 14 1 11 6
M  V30 15 1 1 14
M  V30 16 1 2 15
M  V30 17 1 5 16
M  V30 18 1 6 17
M  V30 19 1 7 18
M  V30 20 1 7 19
M  V30 21 1 8 20
M  V30 22 1 8 21
M  V30 23 1 10 22
M  V30 24 1 10 23
M  V30 25 1 11 24
M  V30 26 1 11 25
M  V30 27 1 13 26
M  V30 END BOND
M  V30 END CTAB
M  END
>  <Dataset>  (529) 
ChEMBL_Kinases

>  <Ligand_Instance>  (529) 
nan

>  <PDB_ID>  (529) 
nan

>  <Standardized_SMILES>  (529) 
c1cnc(NC2CCOCC2)nc1

>  <Name>  (529) 
nan

>  <Pocket>  (529) 
nan

>  <ATP_Site>  (529) 
nan

>  <Peripheral>  (529) 
nan

>  <Num_H_Atoms_ProtBoundConf>  (529) 
nan

>  <Num_Resolved_Atoms>  (529) 
nan

>  <Num_Not_Resolved_Atoms>  (529) 
nan

$$$$
CHEMBL4784607
     RDKit          3D

  0  0  0  0  0  0  0  0  0  0999 V3000
M  V30 BEGIN CTAB
M  V30 COUNTS 59 63 0 0 0
M  V30 BEGIN ATOM
M  V30 1 C 1.813481 -2.042394 1.544460 0
M  V30 2 C 2.118875 -1.067276 2.618533 0
M  V30 3 N 2.911363 -1.160828 3.699078 0
M  V30 4 O 2.862752 -0.050158 4.337368 0
M  V30 5 C 2.065586 0.825981 3.748361 0
M  V30 6 C 1.840462 2.189952 4.292894 0
M  V30 7 C 1.555467 0.189543 2.609566 0
M  V30 8 C 0.634253 0.972390 1.800086 0
M  V30 9 N 1.256052 1.575622 0.750348 0
M  V30 10 N 0.395145 2.299203 0.047507 0
M  V30 11 C 0.631938 3.101799 -1.142095 0
M  V30 12 C 2.002728 2.933934 -1.744219 0
M  V30 13 C 1.579346 4.250536 -1.105055 0
M  V30 14 C -0.793197 2.162317 0.648270 0
M  V30 15 C -0.692600 1.343385 1.746046 0
M  V30 16 O -1.529600 0.857600 2.714355 0
M  V30 17 C -1.826549 -0.474792 2.911226 0
M  V30 18 C -2.544203 -0.756143 4.049993 0
M  V30 19 C -2.870510 -2.067011 4.297208 0
M  V30 20 N -2.516009 -3.057618 3.474989 0
M  V30 21 C -1.815763 -2.833439 2.351079 0
M  V30 22 N -1.461038 -3.928767 1.531255 0
M  V30 23 C -0.872132 -4.110775 0.258323 0
M  V30 24 C -0.050186 -5.174768 -0.101337 0
M  V30 25 C 0.450016 -5.265607 -1.372105 0
M  V30 26 N 0.181390 -4.361138 -2.307916 0
M  V30 27 C -0.611075 -3.306531 -2.015444 0
M  V30 28 C -0.834942 -2.372140 -3.144583 0
M  V30 29 C -1.739066 -1.220518 -2.700792 0
M  V30 30 C 0.470562 -1.734015 -3.582320 0
M  V30 31 O -1.494794 -2.984039 -4.207981 0
M  V30 32 C -1.132340 -3.182768 -0.746156 0
M  V30 33 C -1.493718 -1.520552 2.112843 0
M  V30 34 H 1.524973 -1.535989 0.620364 0
M  V30 35 H 2.730572 -2.653543 1.288787 0
M  V30 36 H 1.090620 -2.795614 1.922006 0
M  V30 37 H 2.709691 2.497723 4.906095 0
M  V30 38 H 0.959178 2.156836 4.977829 0
M  V30 39 H 1.752205 2.962882 3.498508 0
M  V30 40 H -0.205392 3.159000 -1.888424 0
M  V30 41 H 2.790219 2.367269 -1.166471 0
M  V30 42 H 2.100453 2.931434 -2.836022 0
M  V30 43 H 2.076967 4.532262 -0.146118 0
M  V30 44 H 1.373077 5.081741 -1.810739 0
M  V30 45 H -1.765846 2.584710 0.400555 0
M  V30 46 H -2.873637 -0.024226 4.768341 0
M  V30 47 H -3.437782 -2.389750 5.175311 0
M  V30 48 H -1.662621 -4.884357 1.908548 0
M  V30 49 H 0.143209 -5.882135 0.680112 0
M  V30 50 H 1.072754 -6.110800 -1.572672 0
M  V30 51 H -2.691859 -1.693960 -2.368517 0
M  V30 52 H -1.986313 -0.564041 -3.552709 0
M  V30 53 H -1.284328 -0.695867 -1.841952 0
M  V30 54 H 1.280808 -2.493418 -3.687352 0
M  V30 55 H 0.750785 -1.013705 -2.788827 0
M  V30 56 H 0.285873 -1.204698 -4.531671 0
M  V30 57 H -1.880229 -3.824407 -3.887536 0
M  V30 58 H -1.747467 -2.304599 -0.668776 0
M  V30 59 H -0.928734 -1.248665 1.237092 0
M  V30 END ATOM
M  V30 BEGIN BOND
M  V30 1 1 1 2
M  V30 2 2 2 3
M  V30 3 1 3 4
M  V30 4 1 4 5
M  V30 5 1 5 6
M  V30 6 2 5 7
M  V30 7 1 7 8
M  V30 8 2 8 9
M  V30 9 1 9 10
M  V30 10 1 10 11
M  V30 11 1 11 12
M  V30 12 1 12 13
M  V30 13 1 10 14
M  V30 14 2 14 15
M  V30 15 1 15 16
M  V30 16 1 16 17
M  V30 17 2 17 18
M  V30 18 1 18 19
M  V30 19 2 19 20
M  V30 20 1 20 21
M  V30 21 1 21 22
M  V30 22 1 22 23
M  V30 23 2 23 24
M  V30 24 1 24 25
M  V30 25 2 25 26
M  V30 26 1 26 27
M  V30 27 1 27 28
M  V30 28 1 28 29
M  V30 29 1 28 30
M  V30 30 1 28 31
M  V30 31 2 27 32
M  V30 32 2 21 33
M  V30 33 1 7 2
M  V30 34 1 15 8
M  V30 35 1 33 17
M  V30 36 1 13 11
M  V30 37 1 32 23
M  V30 38 1 1 34
M  V30 39 1 1 35
M  V30 40 1 1 36
M  V30 41 1 6 37
M  V30 42 1 6 38
M  V30 43 1 6 39
M  V30 44 1 11 40
M  V30 45 1 12 41
M  V30 46 1 12 42
M  V30 47 1 13 43
M  V30 48 1 13 44
M  V30 49 1 14 45
M  V30 50 1 18 46
M  V30 51 1 19 47
M  V30 52 1 22 48
M  V30 53 1 24 49
M  V30 54 1 25 50
M  V30 55 1 29 51
M  V30 56 1 29 52
M  V30 57 1 29 53
M  V30 58 1 30 54
M  V30 59 1 30 55
M  V30 60 1 30 56
M  V30 61 1 31 57
M  V30 62 1 32 58
M  V30 63 1 33 59
M  V30 END BOND
M  V30 END CTAB
M  END
>  <Dataset>  (530) 
ChEMBL_Kinases

>  <Ligand_Instance>  (530) 
nan

>  <PDB_ID>  (530) 
nan

>  <Standardized_SMILES>  (530) 
Cc1noc(C)c1-c1nn(C2CC2)cc1Oc1ccnc(Nc2ccnc(C(C)(C)O)c2)c1

>  <Name>  (530) 
nan

>  <Pocket>  (530) 
nan

>  <ATP_Site>  (530) 
nan

>  <Peripheral>  (530) 
nan

>  <Num_H_Atoms_ProtBoundConf>  (530) 
nan

>  <Num_Resolved_Atoms>  (530) 
nan

>  <Num_Not_Resolved_Atoms>  (530) 
nan

$$$$
CHEMBL4203202
     RDKit          3D

  0  0  0  0  0  0  0  0  0  0999 V3000
M  V30 BEGIN CTAB
M  V30 COUNTS 27 29 0 0 0
M  V30 BEGIN ATOM
M  V30 1 O 3.729005 -2.483654 -0.110419 0
M  V30 2 C 2.773595 -2.137102 0.637578 0
M  V30 3 N 2.635813 -2.519538 2.001812 0
M  V30 4 C 1.467575 -1.974248 2.563295 0
M  V30 5 C 0.889270 -2.039111 3.813935 0
M  V30 6 C -0.293581 -1.389381 4.098784 0
M  V30 7 C -0.921723 -0.649059 3.101582 0
M  V30 8 C -0.315794 -0.605636 1.862479 0
M  V30 9 C 0.864173 -1.244439 1.551176 0
M  V30 10 C 1.609446 -1.291249 0.318276 0
M  V30 11 N 1.413325 -0.774071 -0.824135 0
M  V30 12 C 0.336412 0.043017 -1.220107 0
M  V30 13 C 0.504898 1.404802 -1.064685 0
M  V30 14 C -0.566802 2.204293 -1.459547 0
M  V30 15 C -1.723372 1.645792 -1.974871 0
M  V30 16 C -1.819181 0.274376 -2.100717 0
M  V30 17 C -0.784113 -0.589986 -1.725139 0
M  V30 18 F -0.839655 -1.924345 -1.831936 0
M  V30 19 H 3.321114 -3.126708 2.507153 0
M  V30 20 H 1.318583 -2.588883 4.622715 0
M  V30 21 H -0.780906 -1.414662 5.067281 0
M  V30 22 H -1.849742 -0.132732 3.306034 0
M  V30 23 H -0.830567 -0.024196 1.118690 0
M  V30 24 H 1.422293 1.808395 -0.658397 0
M  V30 25 H -0.456368 3.274419 -1.346551 0
M  V30 26 H -2.538975 2.299585 -2.272520 0
M  V30 27 H -2.719063 -0.190042 -2.503531 0
M  V30 END ATOM
M  V30 BEGIN BOND
M  V30 1 2 1 2
M  V30 2 1 2 3
M  V30 3 1 3 4
M  V30 4 2 4 5
M  V30 5 1 5 6
M  V30 6 2 6 7
M  V30 7 1 7 8
M  V30 8 2 8 9
M  V30 9 1 9 10
M  V30 10 2 10 11 CFG=2
M  V30 11 1 11 12
M  V30 12 2 12 13
M  V30 13 1 13 14
M  V30 14 2 14 15
M  V30 15 1 15 16
M  V30 16 2 16 17
M  V30 17 1 17 18
M  V30 18 1 10 2
M  V30 19 1 17 12
M  V30 20 1 9 4
M  V30 21 1 3 19
M  V30 22 1 5 20
M  V30 23 1 6 21
M  V30 24 1 7 22
M  V30 25 1 8 23
M  V30 26 1 13 24
M  V30 27 1 14 25
M  V30 28 1 15 26
M  V30 29 1 16 27
M  V30 END BOND
M  V30 END CTAB
M  END
>  <Dataset>  (531) 
ChEMBL_Kinases

>  <Ligand_Instance>  (531) 
nan

>  <PDB_ID>  (531) 
nan

>  <Standardized_SMILES>  (531) 
O=C1Nc2ccccc2C1=Nc1ccccc1F

>  <Name>  (531) 
nan

>  <Pocket>  (531) 
nan

>  <ATP_Site>  (531) 
nan

>  <Peripheral>  (531) 
nan

>  <Num_H_Atoms_ProtBoundConf>  (531) 
nan

>  <Num_Resolved_Atoms>  (531) 
nan

>  <Num_Not_Resolved_Atoms>  (531) 
nan

$$$$
CHEMBL4165274
     RDKit          3D

  0  0  0  0  0  0  0  0  0  0999 V3000
M  V30 BEGIN CTAB
M  V30 COUNTS 49 53 0 0 0
M  V30 BEGIN ATOM
M  V30 1 N -1.148339 -1.585907 0.560607 0
M  V30 2 C -1.050954 -2.703879 0.873605 0
M  V30 3 C -0.956421 -4.060971 1.245376 0
M  V30 4 C 0.285223 -4.459479 1.670482 0
M  V30 5 O 1.486057 -3.822343 1.821025 0
M  V30 6 C 1.653685 -2.497593 1.526741 0
M  V30 7 C 2.038209 -2.174397 0.221684 0
M  V30 8 C 2.200814 -0.818683 -0.041685 0
M  V30 9 C 1.988713 0.129885 0.944862 0
M  V30 10 C 2.167685 1.547505 0.637368 0
M  V30 11 N 2.007498 2.580516 1.456791 0
M  V30 12 C 2.257635 3.751408 0.835211 0
M  V30 13 C 2.220452 5.059749 1.277951 0
M  V30 14 C 2.534493 6.086786 0.392862 0
M  V30 15 C 2.517854 7.493143 0.784972 0
M  V30 16 O 2.788383 8.474568 0.045341 0
M  V30 17 O 2.171063 7.795376 2.101844 0
M  V30 18 C 2.868696 5.719214 -0.894218 0
M  V30 19 C 2.911314 4.406053 -1.357613 0
M  V30 20 C 2.593053 3.393029 -0.454066 0
M  V30 21 N 2.533718 2.036570 -0.561567 0
M  V30 22 C 1.609191 -0.245060 2.219705 0
M  V30 23 C 1.427360 -1.579048 2.557291 0
M  V30 24 N 0.447024 -5.759692 2.043980 0
M  V30 25 C -0.595031 -6.640862 1.996981 0
M  V30 26 S -0.491664 -8.361022 2.462254 0
M  V30 27 N -1.793998 -6.214804 1.575993 0
M  V30 28 C -2.017128 -4.939691 1.192937 0
M  V30 29 C -3.299573 -4.424557 0.726589 0
M  V30 30 C -3.965079 -3.261527 1.050981 0
M  V30 31 C -5.182993 -2.994781 0.465731 0
M  V30 32 C -5.792187 -3.833847 -0.442801 0
M  V30 33 Cl -7.322634 -3.336300 -1.075441 0
M  V30 34 C -5.116371 -4.992484 -0.757975 0
M  V30 35 C -3.881623 -5.305800 -0.191804 0
M  V30 36 H 2.184898 -2.971152 -0.493897 0
M  V30 37 H 2.499494 -0.559684 -1.053507 0
M  V30 38 H 1.948601 5.310442 2.313491 0
M  V30 39 H 1.704829 8.647162 2.370475 0
M  V30 40 H 3.112581 6.525030 -1.579656 0
M  V30 41 H 3.179579 4.172593 -2.376207 0
M  V30 42 H 2.743369 1.493901 -1.442704 0
M  V30 43 H 1.438447 0.490106 3.007149 0
M  V30 44 H 1.132516 -1.944526 3.530147 0
M  V30 45 H -1.255147 -9.110630 1.560404 0
M  V30 46 H -3.430117 -2.671205 1.757000 0
M  V30 47 H -5.649455 -2.060873 0.768231 0
M  V30 48 H -5.628714 -5.633329 -1.481007 0
M  V30 49 H -3.482110 -6.256360 -0.546311 0
M  V30 END ATOM
M  V30 BEGIN BOND
M  V30 1 3 1 2
M  V30 2 1 2 3
M  V30 3 2 3 4
M  V30 4 1 4 5
M  V30 5 1 5 6
M  V30 6 2 6 7
M  V30 7 1 7 8
M  V30 8 2 8 9
M  V30 9 1 9 10
M  V30 10 2 10 11
M  V30 11 1 11 12
M  V30 12 2 12 13
M  V30 13 1 13 14
M  V30 14 1 14 15
M  V30 15 2 15 16
M  V30 16 1 15 17
M  V30 17 2 14 18
M  V30 18 1 18 19
M  V30 19 2 19 20
M  V30 20 1 20 21
M  V30 21 1 9 22
M  V30 22 2 22 23
M  V30 23 1 4 24
M  V30 24 2 24 25
M  V30 25 1 25 26
M  V30 26 1 25 27
M  V30 27 2 27 28
M  V30 28 1 28 29
M  V30 29 2 29 30
M  V30 30 1 30 31
M  V30 31 2 31 32
M  V30 32 1 32 33
M  V30 33 1 32 34
M  V30 34 2 34 35
M  V30 35 1 28 3
M  V30 36 1 35 29
M  V30 37 1 23 6
M  V30 38 1 21 10
M  V30 39 1 20 12
M  V30 40 1 7 36
M  V30 41 1 8 37
M  V30 42 1 13 38
M  V30 43 1 17 39
M  V30 44 1 18 40
M  V30 45 1 19 41
M  V30 46 1 21 42
M  V30 47 1 22 43
M  V30 48 1 23 44
M  V30 49 1 26 45
M  V30 50 1 30 46
M  V30 51 1 31 47
M  V30 52 1 34 48
M  V30 53 1 35 49
M  V30 END BOND
M  V30 END CTAB
M  END
>  <Dataset>  (532) 
ChEMBL_Kinases

>  <Ligand_Instance>  (532) 
nan

>  <PDB_ID>  (532) 
nan

>  <Standardized_SMILES>  (532) 
N#Cc1c(Oc2ccc(-c3nc4cc(C(=O)O)ccc4[nH]3)cc2)nc(S)nc1-c1ccc(Cl)cc1

>  <Name>  (532) 
nan

>  <Pocket>  (532) 
nan

>  <ATP_Site>  (532) 
nan

>  <Peripheral>  (532) 
nan

>  <Num_H_Atoms_ProtBoundConf>  (532) 
nan

>  <Num_Resolved_Atoms>  (532) 
nan

>  <Num_Not_Resolved_Atoms>  (532) 
nan

$$$$
CHEMBL4202882
     RDKit          3D

  0  0  0  0  0  0  0  0  0  0999 V3000
M  V30 BEGIN CTAB
M  V30 COUNTS 64 68 0 0 0
M  V30 BEGIN ATOM
M  V30 1 C -0.463442 0.122204 5.481725 0
M  V30 2 C -1.044073 -1.275475 5.459484 0 CFG=2
M  V30 3 N -0.136670 -2.216219 4.831822 0
M  V30 4 C 0.515562 -3.391707 5.241402 0
M  V30 5 O 0.211948 -3.658911 6.454278 0
M  V30 6 C 1.392351 -4.077344 4.250311 0
M  V30 7 N 1.433591 -3.392297 2.967928 0
M  V30 8 C 0.541252 -3.634687 1.859961 0
M  V30 9 C 0.967826 -2.715539 0.801402 0
M  V30 10 C 0.463869 -2.523981 -0.473325 0
M  V30 11 C 1.063879 -1.575160 -1.282727 0
M  V30 12 C 2.150643 -0.820980 -0.841948 0
M  V30 13 C 2.649092 0.130493 -1.837306 0
M  V30 14 N 1.709925 0.856483 -2.496877 0
M  V30 15 C 2.003524 1.770466 -3.438824 0
M  V30 16 N 0.963295 2.495892 -4.090358 0
M  V30 17 C -0.410674 2.223834 -3.713101 0
M  V30 18 C -0.825010 0.795767 -3.942983 0
M  V30 19 C -2.245268 0.706836 -4.474732 0
M  V30 20 O -2.364499 1.308266 -5.726682 0
M  V30 21 C -1.463875 2.339505 -5.903954 0
M  V30 22 C -1.284878 3.097135 -4.600309 0
M  V30 23 N 3.297642 1.975772 -3.743287 0
M  V30 24 C 4.258667 1.276845 -3.112619 0
M  V30 25 C 3.981451 0.333133 -2.141977 0
M  V30 26 Cl 5.164841 -0.610391 -1.281799 0
M  V30 27 C 2.641970 -1.025546 0.436104 0
M  V30 28 C 2.044752 -1.972655 1.247128 0
M  V30 29 C 2.381984 -2.362281 2.617179 0
M  V30 30 O 3.299867 -1.904926 3.344700 0
M  V30 31 C -2.338581 -1.298535 4.749603 0
M  V30 32 C -2.724511 -2.622686 4.509984 0
M  V30 33 C -3.918656 -2.929100 3.849493 0
M  V30 34 C -4.719981 -1.888882 3.432803 0
M  V30 35 C -4.339311 -0.589848 3.668976 0
M  V30 36 C -3.166542 -0.284270 4.317796 0
M  V30 37 H -0.159773 0.374010 4.465472 0
M  V30 38 H -1.175841 0.873439 5.837763 0
M  V30 39 H 0.450966 0.088756 6.125562 0
M  V30 40 H -1.254496 -1.584099 6.512026 0
M  V30 41 H -0.035726 -1.802175 3.867860 0
M  V30 42 H 0.961081 -5.102362 4.076234 0
M  V30 43 H 2.414715 -4.186111 4.670719 0
M  V30 44 H -0.489891 -3.492666 2.225453 0
M  V30 45 H 0.585617 -4.686071 1.493952 0
M  V30 46 H -0.367892 -3.098578 -0.815575 0
M  V30 47 H 0.627849 -1.459961 -2.285902 0
M  V30 48 H 1.236385 3.201713 -4.821135 0
M  V30 49 H -0.618907 2.532335 -2.668246 0
M  V30 50 H -0.121138 0.231439 -4.569224 0
M  V30 51 H -0.862343 0.305990 -2.940693 0
M  V30 52 H -2.484973 -0.362056 -4.578395 0
M  V30 53 H -2.913510 1.130899 -3.711600 0
M  V30 54 H -0.452213 1.971756 -6.204646 0
M  V30 55 H -1.823126 3.008409 -6.690727 0
M  V30 56 H -2.261979 3.276516 -4.122766 0
M  V30 57 H -0.743842 4.047460 -4.783524 0
M  V30 58 H 5.310875 1.422991 -3.339228 0
M  V30 59 H 3.485865 -0.400590 0.700708 0
M  V30 60 H -2.189619 -3.538249 4.783466 0
M  V30 61 H -4.265529 -3.911212 3.638587 0
M  V30 62 H -5.655114 -2.033339 2.917686 0
M  V30 63 H -4.925267 0.261548 3.366349 0
M  V30 64 H -2.753666 0.683616 4.564268 0
M  V30 END ATOM
M  V30 BEGIN BOND
M  V30 1 1 1 2
M  V30 2 1 2 3
M  V30 3 1 3 4
M  V30 4 2 4 5
M  V30 5 1 4 6
M  V30 6 1 6 7
M  V30 7 1 7 8
M  V30 8 1 8 9
M  V30 9 2 9 10
M  V30 10 1 10 11
M  V30 11 2 11 12
M  V30 12 1 12 13
M  V30 13 2 13 14
M  V30 14 1 14 15
M  V30 15 1 15 16
M  V30 16 1 16 17
M  V30 17 1 17 18
M  V30 18 1 18 19
M  V30 19 1 19 20
M  V30 20 1 20 21
M  V30 21 1 21 22
M  V30 22 2 15 23
M  V30 23 1 23 24
M  V30 24 2 24 25
M  V30 25 1 25 26
M  V30 26 1 12 27
M  V30 27 2 27 28
M  V30 28 1 28 29
M  V30 29 2 29 30
M  V30 30 1 2 31
M  V30 31 2 31 32
M  V30 32 1 32 33
M  V30 33 2 33 34
M  V30 34 1 34 35
M  V30 35 2 35 36
M  V30 36 1 29 7
M  V30 37 1 36 31
M  V30 38 1 28 9
M  V30 39 1 25 13
M  V30 40 1 22 17
M  V30 41 1 1 37
M  V30 42 1 1 38
M  V30 43 1 1 39
M  V30 44 1 2 40 CFG=1
M  V30 45 1 3 41
M  V30 46 1 6 42
M  V30 47 1 6 43
M  V30 48 1 8 44
M  V30 49 1 8 45
M  V30 50 1 10 46
M  V30 51 1 11 47
M  V30 52 1 16 48
M  V30 53 1 17 49
M  V30 54 1 18 50
M  V30 55 1 18 51
M  V30 56 1 19 52
M  V30 57 1 19 53
M  V30 58 1 21 54
M  V30 59 1 21 55
M  V30 60 1 22 56
M  V30 61 1 22 57
M  V30 62 1 24 58
M  V30 63 1 27 59
M  V30 64 1 32 60
M  V30 65 1 33 61
M  V30 66 1 34 62
M  V30 67 1 35 63
M  V30 68 1 36 64
M  V30 END BOND
M  V30 END CTAB
M  END
>  <Dataset>  (533) 
ChEMBL_Kinases

>  <Ligand_Instance>  (533) 
nan

>  <PDB_ID>  (533) 
nan

>  <Standardized_SMILES>  (533) 
C[C@H](NC(=O)CN1Cc2ccc(-c3nc(NC4CCOCC4)ncc3Cl)cc2C1=O)c1ccccc1

>  <Name>  (533) 
nan

>  <Pocket>  (533) 
nan

>  <ATP_Site>  (533) 
nan

>  <Peripheral>  (533) 
nan

>  <Num_H_Atoms_ProtBoundConf>  (533) 
nan

>  <Num_Resolved_Atoms>  (533) 
nan

>  <Num_Not_Resolved_Atoms>  (533) 
nan

$$$$
CHEMBL4202879
     RDKit          3D

  0  0  0  0  0  0  0  0  0  0999 V3000
M  V30 BEGIN CTAB
M  V30 COUNTS 55 59 0 0 0
M  V30 BEGIN ATOM
M  V30 1 O 0.409164 -3.418189 1.326679 0
M  V30 2 C -0.205762 -2.496167 0.674263 0
M  V30 3 N 0.394987 -1.198593 0.422995 0
M  V30 4 C 0.062556 0.050728 -0.265056 0
M  V30 5 C 0.415122 1.170443 0.694805 0
M  V30 6 N 1.853486 1.330012 0.506472 0
M  V30 7 C 2.782394 2.355371 0.176859 0
M  V30 8 N 3.460509 2.112875 -0.983217 0
M  V30 9 C 4.378285 2.958347 -1.477006 0
M  V30 10 N 4.630790 4.086863 -0.791144 0
M  V30 11 C 4.017137 4.416005 0.359525 0
M  V30 12 N 4.036645 5.419990 1.254886 0
M  V30 13 C 3.150043 5.179198 2.261287 0
M  V30 14 C 2.522885 3.958922 2.008555 0
M  V30 15 Cl 1.306580 3.197972 2.996597 0
M  V30 16 C 3.081293 3.523362 0.835018 0
M  V30 17 C 2.526321 0.068098 0.712827 0
M  V30 18 C 1.708226 -1.100977 1.026385 0
M  V30 19 C -1.535039 -2.992731 0.265038 0
M  V30 20 C -2.536722 -2.494045 1.197690 0
M  V30 21 C -2.751184 -1.264304 1.754414 0
M  V30 22 C -3.742560 -0.906179 2.635345 0
M  V30 23 C -4.643933 -1.874146 3.025461 0
M  V30 24 Br -6.010100 -1.362095 4.245192 0
M  V30 25 C -4.485010 -3.160763 2.493942 0
M  V30 26 C -3.459421 -3.443803 1.610354 0
M  V30 27 C -1.523775 -4.460733 0.058208 0
M  V30 28 C -0.615208 -4.715627 -1.157254 0
M  V30 29 N -1.451144 -4.504658 -2.324906 0
M  V30 30 C -2.453626 -3.491275 -2.013505 0
M  V30 31 C -1.914976 -2.402387 -1.111085 0
M  V30 32 H -0.995692 0.105210 -0.577133 0
M  V30 33 H 0.665516 0.209780 -1.180537 0
M  V30 34 H 0.152352 0.789852 1.703866 0
M  V30 35 H -0.163828 2.062685 0.403043 0
M  V30 36 H 4.891986 2.721026 -2.405109 0
M  V30 37 H 4.678616 6.252511 1.130841 0
M  V30 38 H 2.965969 5.826515 3.110877 0
M  V30 39 H 3.259565 -0.132009 -0.125446 0
M  V30 40 H 3.222449 0.269382 1.582304 0
M  V30 41 H 1.621205 -1.259488 2.136399 0
M  V30 42 H 2.273663 -2.017098 0.680300 0
M  V30 43 H -2.058342 -0.495047 1.467730 0
M  V30 44 H -3.793442 0.110864 2.997739 0
M  V30 45 H -5.261925 -3.813432 2.887953 0
M  V30 46 H -3.568621 -4.493418 1.365020 0
M  V30 47 H -1.046205 -4.977515 0.929399 0
M  V30 48 H -2.470333 -4.935808 -0.227159 0
M  V30 49 H -0.296675 -5.764074 -1.162991 0
M  V30 50 H 0.217108 -3.985574 -1.195339 0
M  V30 51 H -1.994916 -5.377276 -2.508265 0
M  V30 52 H -2.652666 -2.980769 -3.007450 0
M  V30 53 H -3.408509 -3.914561 -1.685944 0
M  V30 54 H -0.993254 -2.042458 -1.615627 0
M  V30 55 H -2.706901 -1.641747 -1.016847 0
M  V30 END ATOM
M  V30 BEGIN BOND
M  V30 1 2 1 2
M  V30 2 1 2 3
M  V30 3 1 3 4
M  V30 4 1 4 5
M  V30 5 1 5 6
M  V30 6 1 6 7
M  V30 7 2 7 8
M  V30 8 1 8 9
M  V30 9 2 9 10
M  V30 10 1 10 11
M  V30 11 1 11 12
M  V30 12 1 12 13
M  V30 13 2 13 14
M  V30 14 1 14 15
M  V30 15 1 14 16
M  V30 16 1 6 17
M  V30 17 1 17 18
M  V30 18 1 2 19
M  V30 19 1 19 20
M  V30 20 2 20 21
M  V30 21 1 21 22
M  V30 22 2 22 23
M  V30 23 1 23 24
M  V30 24 1 23 25
M  V30 25 2 25 26
M  V30 26 1 19 27
M  V30 27 1 27 28
M  V30 28 1 28 29
M  V30 29 1 29 30
M  V30 30 1 30 31
M  V30 31 1 18 3
M  V30 32 1 31 19
M  V30 33 1 16 7
M  V30 34 1 26 20
M  V30 35 2 16 11
M  V30 36 1 4 32
M  V30 37 1 4 33
M  V30 38 1 5 34
M  V30 39 1 5 35
M  V30 40 1 9 36
M  V30 41 1 12 37
M  V30 42 1 13 38
M  V30 43 1 17 39
M  V30 44 1 17 40
M  V30 45 1 18 41
M  V30 46 1 18 42
M  V30 47 1 21 43
M  V30 48 1 22 44
M  V30 49 1 25 45
M  V30 50 1 26 46
M  V30 51 1 27 47
M  V30 52 1 27 48
M  V30 53 1 28 49
M  V30 54 1 28 50
M  V30 55 1 29 51
M  V30 56 1 30 52
M  V30 57 1 30 53
M  V30 58 1 31 54
M  V30 59 1 31 55
M  V30 END BOND
M  V30 END CTAB
M  END
>  <Dataset>  (534) 
ChEMBL_Kinases

>  <Ligand_Instance>  (534) 
nan

>  <PDB_ID>  (534) 
nan

>  <Standardized_SMILES>  (534) 
O=C(N1CCN(c2ncnc3[nH]cc(Cl)c23)CC1)C1(c2ccc(Br)cc2)CCNCC1

>  <Name>  (534) 
nan

>  <Pocket>  (534) 
nan

>  <ATP_Site>  (534) 
nan

>  <Peripheral>  (534) 
nan

>  <Num_H_Atoms_ProtBoundConf>  (534) 
nan

>  <Num_Resolved_Atoms>  (534) 
nan

>  <Num_Not_Resolved_Atoms>  (534) 
nan

$$$$
CHEMBL4202865
     RDKit          3D

  0  0  0  0  0  0  0  0  0  0999 V3000
M  V30 BEGIN CTAB
M  V30 COUNTS 60 63 0 0 0
M  V30 BEGIN ATOM
M  V30 1 C 1.775070 2.674949 5.102130 0
M  V30 2 C 1.714707 3.706469 3.972157 0
M  V30 3 C 0.576216 4.656922 4.276184 0
M  V30 4 O 1.445117 3.097788 2.742830 0
M  V30 5 C 2.230644 3.118841 1.625654 0
M  V30 6 C 3.458970 3.751610 1.487793 0
M  V30 7 C 4.168022 3.695238 0.282423 0
M  V30 8 C 3.682996 3.011034 -0.822617 0
M  V30 9 C 4.553558 3.049205 -2.021642 0
M  V30 10 O 5.429340 1.969635 -1.945226 0
M  V30 11 C 2.467328 2.391335 -0.669235 0
M  V30 12 C 1.772078 2.449516 0.519379 0
M  V30 13 N 0.518185 1.789266 0.561514 0
M  V30 14 C -0.227405 1.001769 -0.356602 0
M  V30 15 N -0.668106 1.496297 -1.537959 0
M  V30 16 C -1.390780 0.710031 -2.387802 0
M  V30 17 C -1.662419 -0.596634 -2.017856 0
M  V30 18 C -1.222420 -1.115351 -0.820683 0
M  V30 19 C -1.471973 -2.468611 -0.336993 0
M  V30 20 C -0.966084 -2.797589 0.899256 0
M  V30 21 C -1.131317 -4.033763 1.487821 0
M  V30 22 C -0.613018 -4.385123 2.776519 0
M  V30 23 N -0.178607 -4.662431 3.818153 0
M  V30 24 C -1.851987 -4.973573 0.766758 0
M  V30 25 C -2.367000 -4.660397 -0.475246 0
M  V30 26 C -2.191121 -3.399526 -1.061185 0
M  V30 27 C -3.099435 -5.832580 -1.036293 0 CFG=1
M  V30 28 C -4.588505 -5.716322 -0.810831 0
M  V30 29 C -2.751453 -6.027834 -2.487118 0
M  V30 30 O -3.400353 -7.105700 -3.080596 0
M  V30 31 C -2.543040 -6.986787 -0.223493 0
M  V30 32 N -2.221109 -6.320150 1.034546 0
M  V30 33 N -0.521548 -0.262603 -0.059092 0
M  V30 34 H 0.885385 2.774869 5.746389 0
M  V30 35 H 2.704570 2.816846 5.681015 0
M  V30 36 H 1.815960 1.668188 4.620957 0
M  V30 37 H 2.651347 4.291973 3.996157 0
M  V30 38 H 0.663819 5.602585 3.702849 0
M  V30 39 H 0.555114 4.960303 5.359836 0
M  V30 40 H -0.386547 4.169762 3.989085 0
M  V30 41 H 3.834196 4.281478 2.352360 0
M  V30 42 H 5.121260 4.243329 0.326522 0
M  V30 43 H 3.909090 2.921554 -2.942575 0
M  V30 44 H 5.100605 4.027018 -2.089915 0
M  V30 45 H 5.380377 1.542245 -1.057011 0
M  V30 46 H 2.120025 1.860981 -1.564287 0
M  V30 47 H -0.068679 1.834764 1.432979 0
M  V30 48 H -1.753385 1.091777 -3.344016 0
M  V30 49 H -2.235993 -1.264012 -2.665987 0
M  V30 50 H -0.397045 -2.101601 1.500320 0
M  V30 51 H -2.591775 -3.158560 -2.026308 0
M  V30 52 H -5.008191 -4.997967 -1.518849 0
M  V30 53 H -4.715704 -5.454435 0.264037 0
M  V30 54 H -5.026808 -6.712337 -0.929039 0
M  V30 55 H -1.649187 -6.128653 -2.549829 0
M  V30 56 H -3.038347 -5.094696 -3.013834 0
M  V30 57 H -3.450374 -7.821158 -2.370814 0
M  V30 58 H -1.623140 -7.341632 -0.714180 0
M  V30 59 H -3.295138 -7.786552 -0.078725 0
M  V30 60 H -2.269309 -6.795964 1.955083 0
M  V30 END ATOM
M  V30 BEGIN BOND
M  V30 1 1 1 2
M  V30 2 1 2 3
M  V30 3 1 2 4
M  V30 4 1 4 5
M  V30 5 2 5 6
M  V30 6 1 6 7
M  V30 7 2 7 8
M  V30 8 1 8 9
M  V30 9 1 9 10
M  V30 10 1 8 11
M  V30 11 2 11 12
M  V30 12 1 12 13
M  V30 13 1 13 14
M  V30 14 2 14 15
M  V30 15 1 15 16
M  V30 16 2 16 17
M  V30 17 1 17 18
M  V30 18 1 18 19
M  V30 19 2 19 20
M  V30 20 1 20 21
M  V30 21 1 21 22
M  V30 22 3 22 23
M  V30 23 2 21 24
M  V30 24 1 24 25
M  V30 25 2 25 26
M  V30 26 1 25 27
M  V30 27 1 27 28 CFG=3
M  V30 28 1 27 29
M  V30 29 1 29 30
M  V30 30 1 27 31
M  V30 31 1 31 32
M  V30 32 2 18 33
M  V30 33 1 12 5
M  V30 34 1 33 14
M  V30 35 1 26 19
M  V30 36 1 32 24
M  V30 37 1 1 34
M  V30 38 1 1 35
M  V30 39 1 1 36
M  V30 40 1 2 37
M  V30 41 1 3 38
M  V30 42 1 3 39
M  V30 43 1 3 40
M  V30 44 1 6 41
M  V30 45 1 7 42
M  V30 46 1 9 43
M  V30 47 1 9 44
M  V30 48 1 10 45
M  V30 49 1 11 46
M  V30 50 1 13 47
M  V30 51 1 16 48
M  V30 52 1 17 49
M  V30 53 1 20 50
M  V30 54 1 26 51
M  V30 55 1 28 52
M  V30 56 1 28 53
M  V30 57 1 28 54
M  V30 58 1 29 55
M  V30 59 1 29 56
M  V30 60 1 30 57
M  V30 61 1 31 58
M  V30 62 1 31 59
M  V30 63 1 32 60
M  V30 END BOND
M  V30 END CTAB
M  END
>  <Dataset>  (535) 
ChEMBL_Kinases

>  <Ligand_Instance>  (535) 
nan

>  <PDB_ID>  (535) 
nan

>  <Standardized_SMILES>  (535) 
CC(C)Oc1ccc(CO)cc1Nc1nccc(-c2cc(C#N)c3c(c2)[C@@](C)(CO)CN3)n1

>  <Name>  (535) 
nan

>  <Pocket>  (535) 
nan

>  <ATP_Site>  (535) 
nan

>  <Peripheral>  (535) 
nan

>  <Num_H_Atoms_ProtBoundConf>  (535) 
nan

>  <Num_Resolved_Atoms>  (535) 
nan

>  <Num_Not_Resolved_Atoms>  (535) 
nan

$$$$
CHEMBL4202820
     RDKit          3D

  0  0  0  0  0  0  0  0  0  0999 V3000
M  V30 BEGIN CTAB
M  V30 COUNTS 77 81 0 0 0
M  V30 BEGIN ATOM
M  V30 1 C 5.254031 -3.399456 1.703203 0
M  V30 2 O 3.881823 -3.121592 1.912285 0
M  V30 3 C 3.295764 -1.901373 1.557330 0
M  V30 4 C 4.045496 -0.890344 0.974855 0
M  V30 5 C 3.426905 0.297802 0.640528 0
M  V30 6 C 4.228230 1.339584 0.033695 0
M  V30 7 O 5.438187 1.152045 -0.217440 0
M  V30 8 N 3.673299 2.588250 -0.289696 0
M  V30 9 C 4.238015 3.780271 -0.890086 0
M  V30 10 C 3.506018 4.072605 -2.175249 0
M  V30 11 C 3.808408 5.412873 -2.763816 0
M  V30 12 N 3.578371 6.466332 -1.825837 0
M  V30 13 C 2.572935 7.378309 -2.325091 0
M  V30 14 C 3.109604 5.962789 -0.537408 0
M  V30 15 C 4.087968 4.966301 0.024464 0
M  V30 16 C 2.086162 0.442827 0.894730 0
M  V30 17 C 1.342257 -0.562634 1.473531 0
M  V30 18 C 1.928019 -1.770750 1.823986 0
M  V30 19 N 1.181482 -2.840637 2.440705 0
M  V30 20 C -0.205644 -2.591258 2.626928 0
M  V30 21 N -0.801609 -1.948970 3.665886 0
M  V30 22 C -2.136737 -1.787158 3.705041 0
M  V30 23 C -2.913930 -2.277944 2.679929 0
M  V30 24 C -2.326457 -2.945395 1.595463 0
M  V30 25 N -0.961164 -3.071921 1.624669 0
M  V30 26 N -3.085457 -3.504462 0.485670 0
M  V30 27 C -2.553302 -4.653387 -0.194931 0
M  V30 28 C -3.284533 -5.933520 -0.012970 0
M  V30 29 C -4.581712 -5.893377 -0.717125 0
M  V30 30 C -4.588732 -5.393573 -2.108126 0
M  V30 31 C -3.477340 -4.533266 -2.548956 0
M  V30 32 C -2.312150 -4.399692 -1.660272 0
M  V30 33 C -4.304131 -2.724640 0.318402 0 CFG=2
M  V30 34 C -3.973933 -1.286523 -0.091909 0
M  V30 35 C -5.052506 -2.646905 1.600540 0
M  V30 36 O -6.258903 -3.000430 1.847786 0
M  V30 37 N -4.340133 -2.108451 2.707523 0
M  V30 38 C -4.971800 -1.413258 3.839378 0
M  V30 39 H 5.549804 -4.166957 2.477599 0
M  V30 40 H 5.902133 -2.518351 1.898059 0
M  V30 41 H 5.454463 -3.879125 0.717383 0
M  V30 42 H 5.101314 -1.015293 0.777884 0
M  V30 43 H 2.686245 2.847173 -0.123981 0
M  V30 44 H 5.309834 3.581783 -1.132132 0
M  V30 45 H 2.407226 4.004278 -1.963726 0
M  V30 46 H 3.719683 3.257869 -2.921001 0
M  V30 47 H 3.117906 5.536729 -3.640056 0
M  V30 48 H 4.876661 5.397282 -3.131787 0
M  V30 49 H 2.755622 8.393882 -1.872267 0
M  V30 50 H 2.614038 7.437677 -3.434246 0
M  V30 51 H 1.597345 7.049148 -1.934398 0
M  V30 52 H 2.092914 5.534773 -0.658902 0
M  V30 53 H 3.018877 6.855654 0.125587 0
M  V30 54 H 3.666611 4.616356 1.001146 0
M  V30 55 H 5.030350 5.481353 0.229448 0
M  V30 56 H 1.559375 1.349191 0.652552 0
M  V30 57 H 0.283096 -0.436885 1.670105 0
M  V30 58 H 1.707818 -3.686485 2.691906 0
M  V30 59 H -2.592168 -1.273983 4.538300 0
M  V30 60 H -1.522594 -4.839556 0.255173 0
M  V30 61 H -3.463863 -6.190374 1.057299 0
M  V30 62 H -2.631803 -6.747852 -0.410573 0
M  V30 63 H -4.991820 -6.964557 -0.666219 0
M  V30 64 H -5.326054 -5.356560 -0.055617 0
M  V30 65 H -5.585748 -4.877488 -2.248438 0
M  V30 66 H -4.699074 -6.292137 -2.785937 0
M  V30 67 H -3.870003 -3.504987 -2.742438 0
M  V30 68 H -3.144811 -4.865107 -3.572835 0
M  V30 69 H -1.527781 -5.147569 -1.976594 0
M  V30 70 H -1.805992 -3.412950 -1.726527 0
M  V30 71 H -4.980476 -3.086551 -0.452205 0
M  V30 72 H -4.710087 -0.878692 -0.813468 0
M  V30 73 H -2.997661 -1.223364 -0.585955 0
M  V30 74 H -3.967347 -0.591035 0.763139 0
M  V30 75 H -4.572730 -0.362730 3.823606 0
M  V30 76 H -4.704101 -1.888064 4.797061 0
M  V30 77 H -6.048262 -1.308558 3.661112 0
M  V30 END ATOM
M  V30 BEGIN BOND
M  V30 1 1 1 2
M  V30 2 1 2 3
M  V30 3 2 3 4
M  V30 4 1 4 5
M  V30 5 1 5 6
M  V30 6 2 6 7
M  V30 7 1 6 8
M  V30 8 1 8 9
M  V30 9 1 9 10
M  V30 10 1 10 11
M  V30 11 1 11 12
M  V30 12 1 12 13
M  V30 13 1 12 14
M  V30 14 1 14 15
M  V30 15 2 5 16
M  V30 16 1 16 17
M  V30 17 2 17 18
M  V30 18 1 18 19
M  V30 19 1 19 20
M  V30 20 2 20 21
M  V30 21 1 21 22
M  V30 22 2 22 23
M  V30 23 1 23 24
M  V30 24 2 24 25
M  V30 25 1 24 26
M  V30 26 1 26 27
M  V30 27 1 27 28
M  V30 28 1 28 29
M  V30 29 1 29 30
M  V30 30 1 30 31
M  V30 31 1 31 32
M  V30 32 1 26 33
M  V30 33 1 33 34
M  V30 34 1 33 35
M  V30 35 2 35 36
M  V30 36 1 35 37
M  V30 37 1 37 38
M  V30 38 1 18 3
M  V30 39 1 25 20
M  V30 40 1 32 27
M  V30 41 1 15 9
M  V30 42 1 37 23
M  V30 43 1 1 39
M  V30 44 1 1 40
M  V30 45 1 1 41
M  V30 46 1 4 42
M  V30 47 1 8 43
M  V30 48 1 9 44
M  V30 49 1 10 45
M  V30 50 1 10 46
M  V30 51 1 11 47
M  V30 52 1 11 48
M  V30 53 1 13 49
M  V30 54 1 13 50
M  V30 55 1 13 51
M  V30 56 1 14 52
M  V30 57 1 14 53
M  V30 58 1 15 54
M  V30 59 1 15 55
M  V30 60 1 16 56
M  V30 61 1 17 57
M  V30 62 1 19 58
M  V30 63 1 22 59
M  V30 64 1 27 60
M  V30 65 1 28 61
M  V30 66 1 28 62
M  V30 67 1 29 63
M  V30 68 1 29 64
M  V30 69 1 30 65
M  V30 70 1 30 66
M  V30 71 1 31 67
M  V30 72 1 31 68
M  V30 73 1 32 69
M  V30 74 1 32 70
M  V30 75 1 33 71 CFG=3
M  V30 76 1 34 72
M  V30 77 1 34 73
M  V30 78 1 34 74
M  V30 79 1 38 75
M  V30 80 1 38 76
M  V30 81 1 38 77
M  V30 END BOND
M  V30 END CTAB
M  END
>  <Dataset>  (536) 
ChEMBL_Kinases

>  <Ligand_Instance>  (536) 
nan

>  <PDB_ID>  (536) 
nan

>  <Standardized_SMILES>  (536) 
COc1cc(C(=O)NC2CCN(C)CC2)ccc1Nc1ncc2c(n1)N(C1CCCCC1)[C@H](C)C(=O)N2C

>  <Name>  (536) 
nan

>  <Pocket>  (536) 
nan

>  <ATP_Site>  (536) 
nan

>  <Peripheral>  (536) 
nan

>  <Num_H_Atoms_ProtBoundConf>  (536) 
nan

>  <Num_Resolved_Atoms>  (536) 
nan

>  <Num_Not_Resolved_Atoms>  (536) 
nan

$$$$
CHEMBL4784634
     RDKit          3D

  0  0  0  0  0  0  0  0  0  0999 V3000
M  V30 BEGIN CTAB
M  V30 COUNTS 59 62 0 0 0
M  V30 BEGIN ATOM
M  V30 1 C -6.828777 -1.124935 -2.180735 0
M  V30 2 C -5.412981 -0.607524 -2.064560 0
M  V30 3 N -4.448841 -1.370421 -1.552337 0
M  V30 4 C -3.255347 -0.776938 -1.518201 0
M  V30 5 C -1.921625 -1.154626 -1.100555 0
M  V30 6 C -1.310567 -2.272182 -1.447877 0
M  V30 7 C -1.726458 -3.383414 -2.285405 0
M  V30 8 O -2.842843 -3.363815 -2.844436 0
M  V30 9 N -0.645999 -4.292663 -2.248309 0
M  V30 10 C 0.421225 -3.809307 -1.434567 0
M  V30 11 C 1.616933 -4.467645 -1.199029 0
M  V30 12 C 2.526607 -3.803073 -0.365507 0
M  V30 13 C 2.168607 -2.573055 0.143696 0
M  V30 14 C 3.172344 -1.923928 1.012981 0
M  V30 15 O 4.248986 -2.559516 1.253161 0
M  V30 16 N 3.064661 -0.642857 1.620637 0
M  V30 17 C 4.290425 -0.447770 2.370495 0
M  V30 18 C 4.236695 0.915697 3.038561 0
M  V30 19 C 4.107433 2.031648 2.092700 0
M  V30 20 C 2.895234 2.545760 1.678818 0
M  V30 21 C 2.868870 3.602991 0.774710 0
M  V30 22 C 3.995740 4.169698 0.265923 0
M  V30 23 C 5.233947 3.675333 0.662768 0
M  V30 24 C 5.251908 2.614309 1.570098 0
M  V30 25 C 0.962726 -1.959239 -0.121423 0
M  V30 26 C 0.042707 -2.582355 -0.936457 0
M  V30 27 C -3.525139 0.485711 -2.069125 0
M  V30 28 C -2.563242 1.570030 -2.289060 0
M  V30 29 C -4.850380 0.600688 -2.408790 0
M  V30 30 N -5.713303 1.572429 -2.943274 0
M  V30 31 C -5.618547 2.934729 -3.266686 0
M  V30 32 O -4.538683 3.530433 -3.060521 0
M  V30 33 C -6.561068 3.912097 -3.837604 0
M  V30 34 Cl -8.083264 3.062667 -4.150809 0
M  V30 35 H -7.435096 -0.479714 -2.814041 0
M  V30 36 H -7.230827 -1.304138 -1.162987 0
M  V30 37 H -6.711348 -2.112445 -2.701089 0
M  V30 38 H -4.583162 -2.336443 -1.184827 0
M  V30 39 H -1.430341 -0.420907 -0.448334 0
M  V30 40 H -0.783646 -5.182682 -2.819139 0
M  V30 41 H 1.846604 -5.425330 -1.620942 0
M  V30 42 H 3.465930 -4.304178 -0.172065 0
M  V30 43 H 2.177355 -0.154561 1.404705 0
M  V30 44 H 4.359165 -1.190235 3.201156 0
M  V30 45 H 5.186456 -0.565809 1.753935 0
M  V30 46 H 5.115697 1.084811 3.691036 0
M  V30 47 H 3.350972 0.983622 3.724718 0
M  V30 48 H 1.975279 2.136368 2.051183 0
M  V30 49 H 1.903722 4.012871 0.444101 0
M  V30 50 H 3.966771 5.002808 -0.446576 0
M  V30 51 H 6.176184 4.081901 0.294894 0
M  V30 52 H 6.216648 2.206638 1.897979 0
M  V30 53 H 0.701792 -1.001577 0.284573 0
M  V30 54 H -2.481213 1.906281 -3.342665 0
M  V30 55 H -2.632812 2.419079 -1.582451 0
M  V30 56 H -1.535750 1.138005 -2.052035 0
M  V30 57 H -6.717397 1.372357 -3.226292 0
M  V30 58 H -6.708662 4.766512 -3.119497 0
M  V30 59 H -6.164375 4.391915 -4.766858 0
M  V30 END ATOM
M  V30 BEGIN BOND
M  V30 1 1 1 2
M  V30 2 1 2 3
M  V30 3 1 3 4
M  V30 4 1 4 5
M  V30 5 2 5 6
M  V30 6 1 6 7
M  V30 7 2 7 8
M  V30 8 1 7 9
M  V30 9 1 9 10
M  V30 10 2 10 11
M  V30 11 1 11 12
M  V30 12 2 12 13
M  V30 13 1 13 14
M  V30 14 2 14 15
M  V30 15 1 14 16
M  V30 16 1 16 17
M  V30 17 1 17 18
M  V30 18 1 18 19
M  V30 19 2 19 20
M  V30 20 1 20 21
M  V30 21 2 21 22
M  V30 22 1 22 23
M  V30 23 2 23 24
M  V30 24 1 13 25
M  V30 25 2 25 26
M  V30 26 2 4 27
M  V30 27 1 27 28
M  V30 28 1 27 29
M  V30 29 1 29 30
M  V30 30 1 30 31
M  V30 31 2 31 32
M  V30 32 1 31 33
M  V30 33 1 33 34
M  V30 34 2 29 2
M  V30 35 1 26 6
M  V30 36 1 26 10
M  V30 37 1 24 19
M  V30 38 1 1 35
M  V30 39 1 1 36
M  V30 40 1 1 37
M  V30 41 1 3 38
M  V30 42 1 5 39
M  V30 43 1 9 40
M  V30 44 1 11 41
M  V30 45 1 12 42
M  V30 46 1 16 43
M  V30 47 1 17 44
M  V30 48 1 17 45
M  V30 49 1 18 46
M  V30 50 1 18 47
M  V30 51 1 20 48
M  V30 52 1 21 49
M  V30 53 1 22 50
M  V30 54 1 23 51
M  V30 55 1 24 52
M  V30 56 1 25 53
M  V30 57 1 28 54
M  V30 58 1 28 55
M  V30 59 1 28 56
M  V30 60 1 30 57
M  V30 61 1 33 58
M  V30 62 1 33 59
M  V30 END BOND
M  V30 END CTAB
M  END
>  <Dataset>  (537) 
ChEMBL_Kinases

>  <Ligand_Instance>  (537) 
nan

>  <PDB_ID>  (537) 
nan

>  <Standardized_SMILES>  (537) 
Cc1[nH]c(/C=C2\C(=O)Nc3ccc(C(=O)NCCc4ccccc4)cc32)c(C)c1NC(=O)CCl

>  <Name>  (537) 
nan

>  <Pocket>  (537) 
nan

>  <ATP_Site>  (537) 
nan

>  <Peripheral>  (537) 
nan

>  <Num_H_Atoms_ProtBoundConf>  (537) 
nan

>  <Num_Resolved_Atoms>  (537) 
nan

>  <Num_Not_Resolved_Atoms>  (537) 
nan

$$$$
CHEMBL4202743
     RDKit          3D

  0  0  0  0  0  0  0  0  0  0999 V3000
M  V30 BEGIN CTAB
M  V30 COUNTS 34 36 0 0 0
M  V30 BEGIN ATOM
M  V30 1 C 1.704516 -2.645106 1.020635 0
M  V30 2 C 1.201515 -2.538964 -0.392401 0
M  V30 3 C 0.990827 -3.857986 -1.057655 0
M  V30 4 C 2.194846 -4.710590 -1.172036 0
M  V30 5 F 3.237276 -4.200650 -1.871788 0
M  V30 6 F 2.634180 -5.151916 0.058949 0
M  V30 7 F 1.803973 -5.874140 -1.850487 0
M  V30 8 N 2.129100 -1.764235 -1.232668 0
M  V30 9 C 2.154174 -0.410366 -0.798274 0
M  V30 10 O 3.123998 0.407224 -0.941464 0
M  V30 11 C 1.017380 0.183037 -0.120471 0
M  V30 12 S 0.680299 1.818762 0.563335 0
M  V30 13 C -0.998392 1.412317 1.143051 0
M  V30 14 C -1.798482 2.390204 1.806504 0
M  V30 15 C -1.305922 3.660386 2.016770 0
M  V30 16 C -2.193691 4.515258 2.676823 0
M  V30 17 N -3.432140 4.133536 3.077372 0
M  V30 18 C -3.887775 2.871868 2.854217 0
M  V30 19 C -3.046220 1.978105 2.200966 0
M  V30 20 C -1.175135 0.124909 0.792789 0
M  V30 21 C -0.179897 -0.558983 0.143637 0
M  V30 22 N -0.107981 -1.895910 -0.326937 0
M  V30 23 H 1.632879 -1.624151 1.472363 0
M  V30 24 H 1.029292 -3.299013 1.573151 0
M  V30 25 H 2.761941 -2.947226 1.100609 0
M  V30 26 H 0.540557 -3.669763 -2.047921 0
M  V30 27 H 0.233314 -4.443004 -0.480144 0
M  V30 28 H 2.760549 -1.963417 -2.053775 0
M  V30 29 H -0.325599 3.994947 1.710418 0
M  V30 30 H -1.909697 5.550729 2.898230 0
M  V30 31 H -4.892921 2.666891 3.213952 0
M  V30 32 H -3.434298 0.981816 2.036773 0
M  V30 33 H -2.131236 -0.301023 1.057332 0
M  V30 34 H -1.012837 -2.377030 -0.613613 0
M  V30 END ATOM
M  V30 BEGIN BOND
M  V30 1 1 1 2
M  V30 2 1 2 3
M  V30 3 1 3 4
M  V30 4 1 4 5
M  V30 5 1 4 6
M  V30 6 1 4 7
M  V30 7 1 2 8
M  V30 8 1 8 9
M  V30 9 2 9 10
M  V30 10 1 9 11
M  V30 11 1 11 12
M  V30 12 1 12 13
M  V30 13 1 13 14
M  V30 14 2 14 15
M  V30 15 1 15 16
M  V30 16 2 16 17
M  V30 17 1 17 18
M  V30 18 2 18 19
M  V30 19 2 13 20
M  V30 20 1 20 21
M  V30 21 1 21 22
M  V30 22 1 22 2
M  V30 23 2 21 11
M  V30 24 1 19 14
M  V30 25 1 1 23
M  V30 26 1 1 24
M  V30 27 1 1 25
M  V30 28 1 3 26
M  V30 29 1 3 27
M  V30 30 1 8 28
M  V30 31 1 15 29
M  V30 32 1 16 30
M  V30 33 1 18 31
M  V30 34 1 19 32
M  V30 35 1 20 33
M  V30 36 1 22 34
M  V30 END BOND
M  V30 END CTAB
M  END
>  <Dataset>  (538) 
ChEMBL_Kinases

>  <Ligand_Instance>  (538) 
nan

>  <PDB_ID>  (538) 
nan

>  <Standardized_SMILES>  (538) 
CC1(CC(F)(F)F)NC(=O)c2sc(-c3ccncc3)cc2N1

>  <Name>  (538) 
nan

>  <Pocket>  (538) 
nan

>  <ATP_Site>  (538) 
nan

>  <Peripheral>  (538) 
nan

>  <Num_H_Atoms_ProtBoundConf>  (538) 
nan

>  <Num_Resolved_Atoms>  (538) 
nan

>  <Num_Not_Resolved_Atoms>  (538) 
nan

$$$$
CHEMBL4202731
     RDKit          3D

  0  0  0  0  0  0  0  0  0  0999 V3000
M  V30 BEGIN CTAB
M  V30 COUNTS 44 48 0 0 0
M  V30 BEGIN ATOM
M  V30 1 O 4.928776 1.652758 0.970984 0
M  V30 2 C 4.408954 1.574374 -0.156017 0
M  V30 3 N 4.731263 2.219234 -1.367913 0
M  V30 4 C 3.776098 1.734541 -2.338171 0
M  V30 5 C 3.774616 2.171419 -3.645456 0
M  V30 6 C 2.802346 1.668997 -4.483656 0
M  V30 7 C 1.875755 0.751360 -3.969364 0
M  V30 8 I 0.436686 0.058827 -5.353747 0
M  V30 9 C 1.977644 0.390340 -2.649924 0
M  V30 10 C 2.911264 0.849530 -1.787693 0
M  V30 11 C 3.269860 0.711924 -0.412341 0
M  V30 12 C 2.614850 -0.032158 0.392799 0
M  V30 13 S 2.974939 -0.177885 2.169343 0
M  V30 14 C 1.191451 -0.295258 2.591714 0
M  V30 15 N 0.553948 0.221472 3.568322 0
M  V30 16 C -0.835422 -0.009863 3.691950 0
M  V30 17 C -1.607528 0.971041 3.055818 0
M  V30 18 C -2.996646 0.829299 3.150134 0
M  V30 19 C -3.510797 -0.241219 3.846550 0
M  V30 20 C -2.708928 -1.186709 4.459623 0
M  V30 21 C -1.321645 -1.090693 4.395020 0
M  V30 22 N 0.738119 -1.141284 1.508900 0
M  V30 23 C -0.369678 -2.037092 1.589170 0
M  V30 24 C -0.297564 -3.343199 2.090500 0
M  V30 25 C -1.317398 -4.260120 2.160388 0
M  V30 26 C -2.546797 -3.854629 1.686711 0
M  V30 27 C -2.747838 -2.593323 1.167963 0
M  V30 28 C -1.664212 -1.747568 1.141165 0
M  V30 29 C 1.536814 -0.989168 0.302302 0
M  V30 30 O 1.309459 -1.646138 -0.734747 0
M  V30 31 H 5.519795 2.891718 -1.437938 0
M  V30 32 H 4.470566 2.873328 -4.069225 0
M  V30 33 H 2.775832 1.989600 -5.507594 0
M  V30 34 H 1.178557 -0.268378 -2.451799 0
M  V30 35 H -1.191202 1.801481 2.515538 0
M  V30 36 H -3.661893 1.537372 2.691113 0
M  V30 37 H -4.569641 -0.428364 3.969841 0
M  V30 38 H -3.099683 -2.036112 5.012168 0
M  V30 39 H -0.600220 -1.764141 4.831460 0
M  V30 40 H 0.689758 -3.656141 2.466216 0
M  V30 41 H -1.112019 -5.237818 2.575548 0
M  V30 42 H -3.366933 -4.541143 1.724127 0
M  V30 43 H -3.698442 -2.245192 0.788932 0
M  V30 44 H -1.824980 -0.745841 0.728873 0
M  V30 END ATOM
M  V30 BEGIN BOND
M  V30 1 2 1 2
M  V30 2 1 2 3
M  V30 3 1 3 4
M  V30 4 2 4 5
M  V30 5 1 5 6
M  V30 6 2 6 7
M  V30 7 1 7 8
M  V30 8 1 7 9
M  V30 9 2 9 10
M  V30 10 1 10 11
M  V30 11 2 11 12
M  V30 12 1 12 13
M  V30 13 1 13 14
M  V30 14 2 14 15
M  V30 15 1 15 16
M  V30 16 2 16 17
M  V30 17 1 17 18
M  V30 18 2 18 19
M  V30 19 1 19 20
M  V30 20 2 20 21
M  V30 21 1 14 22
M  V30 22 1 22 23
M  V30 23 2 23 24
M  V30 24 1 24 25
M  V30 25 2 25 26
M  V30 26 1 26 27
M  V30 27 2 27 28
M  V30 28 1 22 29
M  V30 29 2 29 30
M  V30 30 1 11 2
M  V30 31 1 29 12
M  V30 32 1 10 4
M  V30 33 1 21 16
M  V30 34 1 28 23
M  V30 35 1 3 31
M  V30 36 1 5 32
M  V30 37 1 6 33
M  V30 38 1 9 34
M  V30 39 1 17 35
M  V30 40 1 18 36
M  V30 41 1 19 37
M  V30 42 1 20 38
M  V30 43 1 21 39
M  V30 44 1 24 40
M  V30 45 1 25 41
M  V30 46 1 26 42
M  V30 47 1 27 43
M  V30 48 1 28 44
M  V30 END BOND
M  V30 END CTAB
M  END
>  <Dataset>  (539) 
ChEMBL_Kinases

>  <Ligand_Instance>  (539) 
nan

>  <PDB_ID>  (539) 
nan

>  <Standardized_SMILES>  (539) 
O=C1Nc2ccc(I)cc2/C1=C1/S/C(=N/c2ccccc2)N(c2ccccc2)C1=O

>  <Name>  (539) 
nan

>  <Pocket>  (539) 
nan

>  <ATP_Site>  (539) 
nan

>  <Peripheral>  (539) 
nan

>  <Num_H_Atoms_ProtBoundConf>  (539) 
nan

>  <Num_Resolved_Atoms>  (539) 
nan

>  <Num_Not_Resolved_Atoms>  (539) 
nan

$$$$
CHEMBL4202685
     RDKit          3D

  0  0  0  0  0  0  0  0  0  0999 V3000
M  V30 BEGIN CTAB
M  V30 COUNTS 83 88 0 0 0
M  V30 BEGIN ATOM
M  V30 1 C 2.116245 -1.241953 -3.875604 0
M  V30 2 C 3.030748 -0.339784 -4.696081 0
M  V30 3 N 2.918478 1.038134 -4.246950 0
M  V30 4 C 3.760493 1.849187 -5.115845 0
M  V30 5 C 3.644117 3.314965 -4.754975 0
M  V30 6 N 3.390989 3.413687 -3.316394 0
M  V30 7 C 2.559738 4.466600 -2.797827 0
M  V30 8 O 2.072758 5.274187 -3.622418 0
M  V30 9 C 2.382673 4.464829 -1.332473 0
M  V30 10 C 1.797385 3.372244 -0.758641 0
M  V30 11 C 1.645788 3.348493 0.615291 0
M  V30 12 C 2.043349 4.356276 1.479408 0
M  V30 13 N 1.887468 4.270811 2.894961 0
M  V30 14 C 1.357331 3.009088 3.271353 0
M  V30 15 N 2.383275 2.111837 3.304807 0
M  V30 16 C 2.222059 0.807201 3.610579 0
M  V30 17 C 0.959044 0.381797 3.898412 0
M  V30 18 C -0.093640 1.255016 3.870991 0
M  V30 19 N 0.098447 2.559962 3.563237 0
M  V30 20 N -1.419078 0.793446 4.016637 0
M  V30 21 C -2.525463 1.717650 4.019013 0
M  V30 22 C -1.588527 -0.642037 4.163334 0
M  V30 23 O -2.794584 -0.964992 4.309408 0
M  V30 24 N -0.437335 -1.488990 4.132221 0
M  V30 25 C -0.684929 -2.826091 3.759358 0
M  V30 26 C -1.803296 -3.117160 2.943295 0
M  V30 27 C -2.180844 -4.392251 2.491049 0
M  V30 28 N -3.377929 -4.454716 1.680798 0
M  V30 29 C -3.132137 -4.187702 0.284716 0
M  V30 30 O -1.948177 -3.940163 -0.060874 0
M  V30 31 C -4.294685 -4.232530 -0.591356 0
M  V30 32 C -5.582375 -4.516173 -0.185374 0
M  V30 33 C -6.616344 -4.533215 -1.095714 0
M  V30 34 C -6.445881 -4.273946 -2.446720 0
M  V30 35 C -5.146066 -3.996665 -2.801328 0
M  V30 36 C -4.914739 -3.710815 -4.247375 0
M  V30 37 F -5.491602 -2.495318 -4.625637 0
M  V30 38 F -5.506334 -4.678810 -5.053908 0
M  V30 39 F -3.573344 -3.658751 -4.569686 0
M  V30 40 C -4.092168 -3.969786 -1.931122 0
M  V30 41 C -1.413714 -5.460937 2.857853 0
M  V30 42 C -0.313570 -5.223406 3.654044 0
M  V30 43 C 0.045023 -3.948126 4.095150 0
M  V30 44 C 1.219312 -3.850036 4.951145 0
M  V30 45 C 0.878358 -1.061917 4.350185 0
M  V30 46 C 2.630561 5.436639 0.807934 0
M  V30 47 N 2.784031 5.471839 -0.529458 0
M  V30 48 C 4.040314 2.386202 -2.526193 0
M  V30 49 C 3.508487 1.032684 -2.889858 0
M  V30 50 H 2.255617 -2.274064 -4.260460 0
M  V30 51 H 2.389483 -1.171126 -2.804457 0
M  V30 52 H 1.065591 -0.901360 -4.038420 0
M  V30 53 H 4.062885 -0.745418 -4.536064 0
M  V30 54 H 2.768520 -0.473252 -5.758248 0
M  V30 55 H 3.417312 1.701014 -6.156387 0
M  V30 56 H 4.803211 1.486102 -5.047910 0
M  V30 57 H 2.885700 3.844529 -5.355440 0
M  V30 58 H 4.648775 3.772219 -4.954340 0
M  V30 59 H 1.469133 2.573615 -1.380798 0
M  V30 60 H 1.180161 2.455904 0.996597 0
M  V30 61 H 2.196127 5.155547 3.402608 0
M  V30 62 H 3.085894 0.120287 3.623902 0
M  V30 63 H -3.439088 1.145459 4.307384 0
M  V30 64 H -2.655033 2.192398 3.021991 0
M  V30 65 H -2.388304 2.461490 4.818890 0
M  V30 66 H -2.450849 -2.321137 2.596163 0
M  V30 67 H -4.263770 -4.696143 2.153719 0
M  V30 68 H -5.774784 -4.719776 0.833879 0
M  V30 69 H -7.604610 -4.764055 -0.712699 0
M  V30 70 H -7.251901 -4.287093 -3.159277 0
M  V30 71 H -3.118266 -3.737328 -2.344830 0
M  V30 72 H -1.709191 -6.430553 2.505465 0
M  V30 73 H 0.280051 -6.080006 3.936123 0
M  V30 74 H 2.206332 -3.831845 4.461792 0
M  V30 75 H 1.117896 -3.204271 5.853474 0
M  V30 76 H 1.303246 -4.866634 5.489243 0
M  V30 77 H 1.683231 -1.651602 3.908237 0
M  V30 78 H 1.194987 -0.948628 5.414932 0
M  V30 79 H 2.964660 6.265598 1.427245 0
M  V30 80 H 4.000869 2.580993 -1.429439 0
M  V30 81 H 5.133551 2.422848 -2.805449 0
M  V30 82 H 2.706516 0.738597 -2.195594 0
M  V30 83 H 4.312791 0.242521 -2.855795 0
M  V30 END ATOM
M  V30 BEGIN BOND
M  V30 1 1 1 2
M  V30 2 1 2 3
M  V30 3 1 3 4
M  V30 4 1 4 5
M  V30 5 1 5 6
M  V30 6 1 6 7
M  V30 7 2 7 8
M  V30 8 1 7 9
M  V30 9 2 9 10
M  V30 10 1 10 11
M  V30 11 2 11 12
M  V30 12 1 12 13
M  V30 13 1 13 14
M  V30 14 2 14 15
M  V30 15 1 15 16
M  V30 16 2 16 17
M  V30 17 1 17 18
M  V30 18 2 18 19
M  V30 19 1 18 20
M  V30 20 1 20 21
M  V30 21 1 20 22
M  V30 22 2 22 23
M  V30 23 1 22 24
M  V30 24 1 24 25
M  V30 25 2 25 26
M  V30 26 1 26 27
M  V30 27 1 27 28
M  V30 28 1 28 29
M  V30 29 2 29 30
M  V30 30 1 29 31
M  V30 31 2 31 32
M  V30 32 1 32 33
M  V30 33 2 33 34
M  V30 34 1 34 35
M  V30 35 1 35 36
M  V30 36 1 36 37
M  V30 37 1 36 38
M  V30 38 1 36 39
M  V30 39 2 35 40
M  V30 40 2 27 41
M  V30 41 1 41 42
M  V30 42 2 42 43
M  V30 43 1 43 44
M  V30 44 1 24 45
M  V30 45 1 12 46
M  V30 46 2 46 47
M  V30 47 1 6 48
M  V30 48 1 48 49
M  V30 49 1 49 3
M  V30 50 1 47 9
M  V30 51 1 19 14
M  V30 52 1 43 25
M  V30 53 1 45 17
M  V30 54 1 40 31
M  V30 55 1 1 50
M  V30 56 1 1 51
M  V30 57 1 1 52
M  V30 58 1 2 53
M  V30 59 1 2 54
M  V30 60 1 4 55
M  V30 61 1 4 56
M  V30 62 1 5 57
M  V30 63 1 5 58
M  V30 64 1 10 59
M  V30 65 1 11 60
M  V30 66 1 13 61
M  V30 67 1 16 62
M  V30 68 1 21 63
M  V30 69 1 21 64
M  V30 70 1 21 65
M  V30 71 1 26 66
M  V30 72 1 28 67
M  V30 73 1 32 68
M  V30 74 1 33 69
M  V30 75 1 34 70
M  V30 76 1 40 71
M  V30 77 1 41 72
M  V30 78 1 42 73
M  V30 79 1 44 74
M  V30 80 1 44 75
M  V30 81 1 44 76
M  V30 82 1 45 77
M  V30 83 1 45 78
M  V30 84 1 46 79
M  V30 85 1 48 80
M  V30 86 1 48 81
M  V30 87 1 49 82
M  V30 88 1 49 83
M  V30 END BOND
M  V30 END CTAB
M  END
>  <Dataset>  (540) 
ChEMBL_Kinases

>  <Ligand_Instance>  (540) 
nan

>  <PDB_ID>  (540) 
nan

>  <Standardized_SMILES>  (540) 
CCN1CCN(C(=O)c2ccc(Nc3ncc4c(n3)N(C)C(=O)N(c3cc(NC(=O)c5cccc(C(F)(F)F)c5)ccc3C)C4)cn2)CC1

>  <Name>  (540) 
nan

>  <Pocket>  (540) 
nan

>  <ATP_Site>  (540) 
nan

>  <Peripheral>  (540) 
nan

>  <Num_H_Atoms_ProtBoundConf>  (540) 
nan

>  <Num_Resolved_Atoms>  (540) 
nan

>  <Num_Not_Resolved_Atoms>  (540) 
nan

$$$$
CHEMBL4202678
     RDKit          3D

  0  0  0  0  0  0  0  0  0  0999 V3000
M  V30 BEGIN CTAB
M  V30 COUNTS 69 73 0 0 0
M  V30 BEGIN ATOM
M  V30 1 C 2.572074 -1.883168 5.330820 0
M  V30 2 O 1.551619 -1.354370 4.502946 0
M  V30 3 C 1.761780 -0.532141 3.420742 0
M  V30 4 C 2.946424 -0.051688 2.912958 0
M  V30 5 C 2.955997 0.780871 1.793434 0
M  V30 6 C 4.253018 1.253121 1.305863 0
M  V30 7 O 5.238975 1.877193 1.751726 0
M  V30 8 N 4.471421 0.913360 -0.068485 0
M  V30 9 C 5.740447 1.341526 -0.655036 0
M  V30 10 C 5.835937 1.087176 -2.122181 0
M  V30 11 C 4.620421 1.429178 -2.916927 0
M  V30 12 C 3.349715 1.193722 -2.155919 0
M  V30 13 C 3.650267 0.193107 -1.053395 0
M  V30 14 C 1.776088 1.134476 1.179477 0
M  V30 15 C 0.587526 0.655605 1.684712 0
M  V30 16 C 0.563317 -0.179842 2.806116 0
M  V30 17 N -0.740214 -0.619185 3.237249 0
M  V30 18 C -1.931799 -0.235959 2.551265 0
M  V30 19 N -2.714575 0.847116 2.817678 0
M  V30 20 C -3.807484 1.068083 2.065228 0
M  V30 21 C -4.199046 0.258732 1.021196 0
M  V30 22 C -3.391617 -0.831260 0.768705 0
M  V30 23 N -2.315985 -1.022659 1.532869 0
M  V30 24 N -3.607580 -1.790395 -0.272383 0
M  V30 25 C -3.155651 -3.124683 -0.348766 0
M  V30 26 C -2.170093 -3.428618 -1.454542 0
M  V30 27 C -1.194930 -4.429298 -0.871669 0
M  V30 28 C -2.001150 -5.032864 0.258441 0
M  V30 29 C -2.561444 -3.731751 0.880358 0
M  V30 30 C -4.404510 -1.285110 -1.405631 0 CFG=2
M  V30 31 C -3.525254 -0.309350 -2.142388 0
M  V30 32 C -5.594623 -0.530641 -0.867311 0
M  V30 33 O -6.811963 -0.608090 -1.208630 0
M  V30 34 N -5.329646 0.417708 0.184864 0
M  V30 35 C -6.169046 1.570602 0.459517 0
M  V30 36 H 3.564660 -1.841676 4.862486 0
M  V30 37 H 2.296603 -2.943494 5.563459 0
M  V30 38 H 2.616809 -1.315195 6.263383 0
M  V30 39 H 3.823156 -0.376678 3.454943 0
M  V30 40 H 6.577726 0.810429 -0.162561 0
M  V30 41 H 5.894641 2.436584 -0.482538 0
M  V30 42 H 6.213605 0.063207 -2.363751 0
M  V30 43 H 6.656934 1.762018 -2.507778 0
M  V30 44 H 4.654813 2.442233 -3.346931 0
M  V30 45 H 4.605854 0.740222 -3.811934 0
M  V30 46 H 3.085173 2.157562 -1.665001 0
M  V30 47 H 2.529929 0.841466 -2.810601 0
M  V30 48 H 2.749385 -0.250767 -0.607609 0
M  V30 49 H 4.312911 -0.597252 -1.510674 0
M  V30 50 H 1.770542 1.786862 0.302315 0
M  V30 51 H -0.350474 0.935914 1.198474 0
M  V30 52 H -0.816239 -1.237115 4.076161 0
M  V30 53 H -4.437341 1.921416 2.262526 0
M  V30 54 H -4.059027 -3.769272 -0.607246 0
M  V30 55 H -1.582238 -2.538636 -1.751316 0
M  V30 56 H -2.630066 -3.895876 -2.344526 0
M  V30 57 H -0.854440 -5.172296 -1.596758 0
M  V30 58 H -0.351542 -3.876855 -0.386464 0
M  V30 59 H -1.388020 -5.557858 0.994769 0
M  V30 60 H -2.860443 -5.622531 -0.111305 0
M  V30 61 H -1.650775 -3.236637 1.262995 0
M  V30 62 H -3.282629 -4.062127 1.626759 0
M  V30 63 H -4.797986 -2.104416 -2.010652 0
M  V30 64 H -3.567095 -0.431611 -3.242666 0
M  V30 65 H -3.860560 0.731165 -1.905695 0
M  V30 66 H -2.457866 -0.320477 -1.771740 0
M  V30 67 H -6.775323 1.762822 -0.447955 0
M  V30 68 H -6.782654 1.462550 1.373744 0
M  V30 69 H -5.487603 2.450035 0.585110 0
M  V30 END ATOM
M  V30 BEGIN BOND
M  V30 1 1 1 2
M  V30 2 1 2 3
M  V30 3 2 3 4
M  V30 4 1 4 5
M  V30 5 1 5 6
M  V30 6 2 6 7
M  V30 7 1 6 8
M  V30 8 1 8 9
M  V30 9 1 9 10
M  V30 10 1 10 11
M  V30 11 1 11 12
M  V30 12 1 12 13
M  V30 13 2 5 14
M  V30 14 1 14 15
M  V30 15 2 15 16
M  V30 16 1 16 17
M  V30 17 1 17 18
M  V30 18 2 18 19
M  V30 19 1 19 20
M  V30 20 2 20 21
M  V30 21 1 21 22
M  V30 22 2 22 23
M  V30 23 1 22 24
M  V30 24 1 24 25
M  V30 25 1 25 26
M  V30 26 1 26 27
M  V30 27 1 27 28
M  V30 28 1 28 29
M  V30 29 1 24 30
M  V30 30 1 30 31
M  V30 31 1 30 32
M  V30 32 2 32 33
M  V30 33 1 32 34
M  V30 34 1 34 35
M  V30 35 1 16 3
M  V30 36 1 23 18
M  V30 37 1 29 25
M  V30 38 1 13 8
M  V30 39 1 34 21
M  V30 40 1 1 36
M  V30 41 1 1 37
M  V30 42 1 1 38
M  V30 43 1 4 39
M  V30 44 1 9 40
M  V30 45 1 9 41
M  V30 46 1 10 42
M  V30 47 1 10 43
M  V30 48 1 11 44
M  V30 49 1 11 45
M  V30 50 1 12 46
M  V30 51 1 12 47
M  V30 52 1 13 48
M  V30 53 1 13 49
M  V30 54 1 14 50
M  V30 55 1 15 51
M  V30 56 1 17 52
M  V30 57 1 20 53
M  V30 58 1 25 54
M  V30 59 1 26 55
M  V30 60 1 26 56
M  V30 61 1 27 57
M  V30 62 1 27 58
M  V30 63 1 28 59
M  V30 64 1 28 60
M  V30 65 1 29 61
M  V30 66 1 29 62
M  V30 67 1 30 63 CFG=3
M  V30 68 1 31 64
M  V30 69 1 31 65
M  V30 70 1 31 66
M  V30 71 1 35 67
M  V30 72 1 35 68
M  V30 73 1 35 69
M  V30 END BOND
M  V30 END CTAB
M  END
>  <Dataset>  (541) 
ChEMBL_Kinases

>  <Ligand_Instance>  (541) 
nan

>  <PDB_ID>  (541) 
nan

>  <Standardized_SMILES>  (541) 
COc1cc(C(=O)N2CCCCC2)ccc1Nc1ncc2c(n1)N(C1CCCC1)[C@H](C)C(=O)N2C

>  <Name>  (541) 
nan

>  <Pocket>  (541) 
nan

>  <ATP_Site>  (541) 
nan

>  <Peripheral>  (541) 
nan

>  <Num_H_Atoms_ProtBoundConf>  (541) 
nan

>  <Num_Resolved_Atoms>  (541) 
nan

>  <Num_Not_Resolved_Atoms>  (541) 
nan

$$$$
CHEMBL4202671
     RDKit          3D

  0  0  0  0  0  0  0  0  0  0999 V3000
M  V30 BEGIN CTAB
M  V30 COUNTS 28 30 0 0 0
M  V30 BEGIN ATOM
M  V30 1 N 0.966577 -6.063617 4.940190 0
M  V30 2 C 0.689284 -5.181498 4.243049 0
M  V30 3 C 0.367559 -4.087538 3.370502 0
M  V30 4 C 0.260002 -2.808911 3.916289 0
M  V30 5 C -0.045905 -1.730692 3.121544 0
M  V30 6 C -0.241309 -1.954366 1.776866 0
M  V30 7 N -0.555150 -0.808707 0.997961 0
M  V30 8 C 0.321178 -0.138549 0.347304 0
M  V30 9 C 1.764172 -0.269774 0.177622 0
M  V30 10 O 2.395272 -1.205567 0.744868 0
M  V30 11 N 2.252719 0.763446 -0.666783 0
M  V30 12 C 1.111388 1.541803 -1.025177 0
M  V30 13 C 1.070649 2.673761 -1.844298 0
M  V30 14 C -0.178923 3.230596 -2.021006 0
M  V30 15 C -1.373698 2.798652 -1.485735 0
M  V30 16 C -1.266624 1.671582 -0.682390 0
M  V30 17 C -0.041785 1.043804 -0.449327 0
M  V30 18 C -0.152124 -3.186034 1.167013 0
M  V30 19 C 0.157195 -4.235562 2.007969 0
M  V30 20 H 0.420171 -2.662834 4.984273 0
M  V30 21 H -0.123624 -0.757012 3.561584 0
M  V30 22 H 3.249963 0.895388 -0.946632 0
M  V30 23 H 1.930140 3.115361 -2.324916 0
M  V30 24 H -0.251806 4.123532 -2.659662 0
M  V30 25 H -2.293966 3.312014 -1.691296 0
M  V30 26 H -2.177509 1.280051 -0.228859 0
M  V30 27 H -0.306747 -3.353300 0.111835 0
M  V30 28 H 0.258504 -5.259014 1.659824 0
M  V30 END ATOM
M  V30 BEGIN BOND
M  V30 1 3 1 2
M  V30 2 1 2 3
M  V30 3 2 3 4
M  V30 4 1 4 5
M  V30 5 2 5 6
M  V30 6 1 6 7
M  V30 7 2 7 8 CFG=2
M  V30 8 1 8 9
M  V30 9 2 9 10
M  V30 10 1 9 11
M  V30 11 1 11 12
M  V30 12 2 12 13
M  V30 13 1 13 14
M  V30 14 2 14 15
M  V30 15 1 15 16
M  V30 16 2 16 17
M  V30 17 1 6 18
M  V30 18 2 18 19
M  V30 19 1 19 3
M  V30 20 1 17 8
M  V30 21 1 17 12
M  V30 22 1 4 20
M  V30 23 1 5 21
M  V30 24 1 11 22
M  V30 25 1 13 23
M  V30 26 1 14 24
M  V30 27 1 15 25
M  V30 28 1 16 26
M  V30 29 1 18 27
M  V30 30 1 19 28
M  V30 END BOND
M  V30 END CTAB
M  END
>  <Dataset>  (542) 
ChEMBL_Kinases

>  <Ligand_Instance>  (542) 
nan

>  <PDB_ID>  (542) 
nan

>  <Standardized_SMILES>  (542) 
N#Cc1ccc(N=C2C(=O)Nc3ccccc32)cc1

>  <Name>  (542) 
nan

>  <Pocket>  (542) 
nan

>  <ATP_Site>  (542) 
nan

>  <Peripheral>  (542) 
nan

>  <Num_H_Atoms_ProtBoundConf>  (542) 
nan

>  <Num_Resolved_Atoms>  (542) 
nan

>  <Num_Not_Resolved_Atoms>  (542) 
nan

$$$$
CHEMBL4784643
     RDKit          3D

  0  0  0  0  0  0  0  0  0  0999 V3000
M  V30 BEGIN CTAB
M  V30 COUNTS 32 33 0 0 0
M  V30 BEGIN ATOM
M  V30 1 C 2.160934 -7.882261 1.178992 0
M  V30 2 C 2.225790 -6.429395 1.613652 0
M  V30 3 N 2.759439 -5.650830 2.273474 0
M  V30 4 N 2.558360 -4.402964 2.433562 0
M  V30 5 C 1.614613 -3.833941 1.782929 0
M  V30 6 N 0.978007 -2.550988 1.603715 0
M  V30 7 C 1.516992 -1.619087 0.725554 0
M  V30 8 O 2.593454 -2.048677 0.155118 0
M  V30 9 C 1.065941 -0.282131 0.367405 0
M  V30 10 C 1.805504 0.514371 -0.571234 0
M  V30 11 N 2.399320 1.174618 -1.320256 0
M  V30 12 C -0.020770 0.229165 0.864152 0
M  V30 13 C -0.601425 1.547283 0.610288 0
M  V30 14 C 0.251286 2.658106 0.730826 0
M  V30 15 C -0.225729 3.914461 0.489468 0
M  V30 16 C -1.547492 4.118708 0.122376 0
M  V30 17 O -2.054084 5.416252 -0.137206 0
M  V30 18 C -2.387738 3.023274 0.002013 0
M  V30 19 N -3.772457 3.194937 -0.398836 0 CHG=1 VAL=4
M  V30 20 O -4.236747 2.207977 -1.007526 0
M  V30 21 O -4.666011 4.216789 -0.243599 0 CHG=-1 VAL=1
M  V30 22 C -1.927453 1.730165 0.244960 0
M  V30 23 S 0.953306 -5.261106 0.842236 0
M  V30 24 H 1.135193 -8.288269 1.322297 0
M  V30 25 H 2.891348 -8.412403 1.815144 0
M  V30 26 H 2.486806 -8.007990 0.144051 0
M  V30 27 H 0.114319 -2.247517 2.093938 0
M  V30 28 H -0.595469 -0.396284 1.576509 0
M  V30 29 H 1.307290 2.557144 1.021516 0
M  V30 30 H 0.334934 4.833800 0.553155 0
M  V30 31 H -2.851742 5.796099 0.358245 0
M  V30 32 H -2.567834 0.836397 0.160454 0
M  V30 END ATOM
M  V30 BEGIN BOND
M  V30 1 1 1 2
M  V30 2 2 2 3
M  V30 3 1 3 4
M  V30 4 2 4 5
M  V30 5 1 5 6
M  V30 6 1 6 7
M  V30 7 2 7 8
M  V30 8 1 7 9
M  V30 9 1 9 10
M  V30 10 3 10 11
M  V30 11 2 9 12
M  V30 12 1 12 13
M  V30 13 2 13 14
M  V30 14 1 14 15
M  V30 15 2 15 16
M  V30 16 1 16 17
M  V30 17 1 16 18
M  V30 18 1 18 19
M  V30 19 2 19 20
M  V30 20 1 19 21
M  V30 21 2 18 22
M  V30 22 1 5 23
M  V30 23 1 23 2
M  V30 24 1 22 13
M  V30 25 1 1 24
M  V30 26 1 1 25
M  V30 27 1 1 26
M  V30 28 1 6 27
M  V30 29 1 12 28
M  V30 30 1 14 29
M  V30 31 1 15 30
M  V30 32 1 17 31
M  V30 33 1 22 32
M  V30 END BOND
M  V30 END CTAB
M  END
>  <Dataset>  (543) 
ChEMBL_Kinases

>  <Ligand_Instance>  (543) 
nan

>  <PDB_ID>  (543) 
nan

>  <Standardized_SMILES>  (543) 
Cc1nnc(NC(=O)/C(C#N)=C/c2ccc(O)c([N+](=O)[O-])c2)s1

>  <Name>  (543) 
nan

>  <Pocket>  (543) 
nan

>  <ATP_Site>  (543) 
nan

>  <Peripheral>  (543) 
nan

>  <Num_H_Atoms_ProtBoundConf>  (543) 
nan

>  <Num_Resolved_Atoms>  (543) 
nan

>  <Num_Not_Resolved_Atoms>  (543) 
nan

$$$$
CHEMBL4784626
     RDKit          3D

  0  0  0  0  0  0  0  0  0  0999 V3000
M  V30 BEGIN CTAB
M  V30 COUNTS 55 58 0 0 0
M  V30 BEGIN ATOM
M  V30 1 O 1.956047 0.906286 1.007365 0
M  V30 2 C 1.931903 0.725378 2.233635 0
M  V30 3 C 3.272728 0.636956 2.823795 0
M  V30 4 C 4.343506 0.788748 1.797662 0
M  V30 5 C 4.905828 1.991411 1.442982 0
M  V30 6 C 5.894107 2.121124 0.492905 0
M  V30 7 C 6.345215 0.970609 -0.140286 0
M  V30 8 C 5.775354 -0.242195 0.220179 0
M  V30 9 C 6.314602 -1.443838 -0.509063 0
M  V30 10 F 5.646999 -2.582528 -0.072835 0
M  V30 11 F 7.657126 -1.590748 -0.348510 0
M  V30 12 F 5.950270 -1.268084 -1.835204 0
M  V30 13 C 4.784482 -0.376634 1.172073 0
M  V30 14 N 0.715323 0.626948 2.910458 0
M  V30 15 C -0.600757 0.701843 2.416142 0
M  V30 16 C -1.652887 0.567166 3.289140 0
M  V30 17 C -2.964149 0.634455 2.873373 0
M  V30 18 C -3.304311 0.841955 1.551807 0
M  V30 19 C -4.713106 0.942795 1.143334 0
M  V30 20 C -5.407120 -0.357254 0.848295 0
M  V30 21 N -4.794771 -1.109688 -0.189852 0
M  V30 22 C -3.627766 -1.917606 -0.127567 0
M  V30 23 N -2.928217 -2.131786 0.998125 0
M  V30 24 N -1.858712 -2.901761 1.089325 0
M  V30 25 C -1.332509 -3.577425 0.040089 0
M  V30 26 O -0.319517 -4.310614 0.111397 0
M  V30 27 C -2.023075 -3.382557 -1.134449 0
M  V30 28 C -1.549011 -4.037579 -2.260164 0
M  V30 29 C -2.136948 -3.936906 -3.510354 0
M  V30 30 C -3.257820 -3.124410 -3.586218 0
M  V30 31 C -3.725041 -2.475867 -2.463830 0
M  V30 32 C -3.139586 -2.580718 -1.235729 0
M  V30 33 C -2.258606 0.984427 0.627312 0
M  V30 34 C -0.974353 0.906292 1.112296 0
M  V30 35 H 3.458513 1.398558 3.603728 0
M  V30 36 H 3.388745 -0.354031 3.303258 0
M  V30 37 H 4.544520 2.878744 1.944465 0
M  V30 38 H 6.314383 3.089112 0.239783 0
M  V30 39 H 7.121316 1.070641 -0.885996 0
M  V30 40 H 4.404145 -1.375861 1.380434 0
M  V30 41 H 0.876323 0.476489 3.938438 0
M  V30 42 H -1.422768 0.400187 4.352505 0
M  V30 43 H -3.708477 0.513515 3.655468 0
M  V30 44 H -4.745246 1.524665 0.175285 0
M  V30 45 H -5.299115 1.549847 1.895163 0
M  V30 46 H -6.506859 -0.239849 0.767010 0
M  V30 47 H -5.280092 -0.985296 1.794793 0
M  V30 48 H -5.350930 -0.980809 -1.058193 0
M  V30 49 H -1.385823 -2.998184 2.031047 0
M  V30 50 H -0.663669 -4.674774 -2.183254 0
M  V30 51 H -1.730694 -4.467863 -4.360723 0
M  V30 52 H -3.700943 -3.062057 -4.580528 0
M  V30 53 H -4.595090 -1.873518 -2.630071 0
M  V30 54 H -2.482230 1.147744 -0.417995 0
M  V30 55 H -0.216151 1.023609 0.355003 0
M  V30 END ATOM
M  V30 BEGIN BOND
M  V30 1 2 1 2
M  V30 2 1 2 3
M  V30 3 1 3 4
M  V30 4 2 4 5
M  V30 5 1 5 6
M  V30 6 2 6 7
M  V30 7 1 7 8
M  V30 8 1 8 9
M  V30 9 1 9 10
M  V30 10 1 9 11
M  V30 11 1 9 12
M  V30 12 2 8 13
M  V30 13 1 2 14
M  V30 14 1 14 15
M  V30 15 2 15 16
M  V30 16 1 16 17
M  V30 17 2 17 18
M  V30 18 1 18 19
M  V30 19 1 19 20
M  V30 20 1 20 21
M  V30 21 1 21 22
M  V30 22 2 22 23
M  V30 23 1 23 24
M  V30 24 1 24 25
M  V30 25 2 25 26
M  V30 26 1 25 27
M  V30 27 2 27 28
M  V30 28 1 28 29
M  V30 29 2 29 30
M  V30 30 1 30 31
M  V30 31 2 31 32
M  V30 32 1 18 33
M  V30 33 2 33 34
M  V30 34 1 13 4
M  V30 35 1 34 15
M  V30 36 1 32 22
M  V30 37 1 32 27
M  V30 38 1 3 35
M  V30 39 1 3 36
M  V30 40 1 5 37
M  V30 41 1 6 38
M  V30 42 1 7 39
M  V30 43 1 13 40
M  V30 44 1 14 41
M  V30 45 1 16 42
M  V30 46 1 17 43
M  V30 47 1 19 44
M  V30 48 1 19 45
M  V30 49 1 20 46
M  V30 50 1 20 47
M  V30 51 1 21 48
M  V30 52 1 24 49
M  V30 53 1 28 50
M  V30 54 1 29 51
M  V30 55 1 30 52
M  V30 56 1 31 53
M  V30 57 1 33 54
M  V30 58 1 34 55
M  V30 END BOND
M  V30 END CTAB
M  END
>  <Dataset>  (544) 
ChEMBL_Kinases

>  <Ligand_Instance>  (544) 
nan

>  <PDB_ID>  (544) 
nan

>  <Standardized_SMILES>  (544) 
O=C(Cc1cccc(C(F)(F)F)c1)Nc1ccc(CCNc2n[nH]c(=O)c3ccccc23)cc1

>  <Name>  (544) 
nan

>  <Pocket>  (544) 
nan

>  <ATP_Site>  (544) 
nan

>  <Peripheral>  (544) 
nan

>  <Num_H_Atoms_ProtBoundConf>  (544) 
nan

>  <Num_Resolved_Atoms>  (544) 
nan

>  <Num_Not_Resolved_Atoms>  (544) 
nan

$$$$
CHEMBL4204387
     RDKit          3D

  0  0  0  0  0  0  0  0  0  0999 V3000
M  V30 BEGIN CTAB
M  V30 COUNTS 31 34 0 0 0
M  V30 BEGIN ATOM
M  V30 1 C -2.874199 -2.391375 2.488334 0
M  V30 2 N -1.752180 -3.178610 2.006449 0
M  V30 3 C -1.502325 -4.489062 2.144096 0
M  V30 4 N -0.336008 -4.813736 1.536672 0
M  V30 5 C 0.187394 -3.683821 0.988814 0
M  V30 6 C 1.334254 -3.423526 0.266461 0
M  V30 7 C 1.557123 -2.107420 -0.146999 0
M  V30 8 C 0.657946 -1.076609 0.152873 0
M  V30 9 C 1.048020 0.235725 -0.357006 0
M  V30 10 C 1.510271 0.296925 -1.672315 0
M  V30 11 C 1.902916 1.497775 -2.243164 0
M  V30 12 N 1.841121 2.631124 -1.524410 0
M  V30 13 C 1.401712 2.610917 -0.256027 0
M  V30 14 N 1.237210 3.583954 0.685324 0
M  V30 15 C 0.751940 3.008077 1.822901 0
M  V30 16 C 0.605051 1.660268 1.609019 0
M  V30 17 C 1.009904 1.435093 0.324289 0
M  V30 18 C -0.470825 -1.386528 0.875421 0
M  V30 19 C -0.713943 -2.677098 1.295139 0
M  V30 20 H -3.649773 -2.327099 1.677969 0
M  V30 21 H -2.565998 -1.332287 2.658636 0
M  V30 22 H -3.266922 -2.797065 3.432395 0
M  V30 23 H -2.199725 -5.113067 2.683848 0
M  V30 24 H 2.039757 -4.211229 0.026641 0
M  V30 25 H 2.471912 -1.965889 -0.708922 0
M  V30 26 H 1.598581 -0.562617 -2.337969 0
M  V30 27 H 2.264389 1.547624 -3.270778 0
M  V30 28 H 1.438217 4.603519 0.585667 0
M  V30 29 H 0.513002 3.522992 2.762864 0
M  V30 30 H 0.241911 0.952391 2.328675 0
M  V30 31 H -1.126096 -0.573659 1.080565 0
M  V30 END ATOM
M  V30 BEGIN BOND
M  V30 1 1 1 2
M  V30 2 1 2 3
M  V30 3 2 3 4
M  V30 4 1 4 5
M  V30 5 2 5 6
M  V30 6 1 6 7
M  V30 7 2 7 8
M  V30 8 1 8 9
M  V30 9 2 9 10
M  V30 10 1 10 11
M  V30 11 2 11 12
M  V30 12 1 12 13
M  V30 13 1 13 14
M  V30 14 1 14 15
M  V30 15 2 15 16
M  V30 16 1 16 17
M  V30 17 1 8 18
M  V30 18 2 18 19
M  V30 19 1 19 2
M  V30 20 1 19 5
M  V30 21 1 17 9
M  V30 22 2 17 13
M  V30 23 1 1 20
M  V30 24 1 1 21
M  V30 25 1 1 22
M  V30 26 1 3 23
M  V30 27 1 6 24
M  V30 28 1 7 25
M  V30 29 1 10 26
M  V30 30 1 11 27
M  V30 31 1 14 28
M  V30 32 1 15 29
M  V30 33 1 16 30
M  V30 34 1 18 31
M  V30 END BOND
M  V30 END CTAB
M  END
>  <Dataset>  (545) 
ChEMBL_Kinases

>  <Ligand_Instance>  (545) 
nan

>  <PDB_ID>  (545) 
nan

>  <Standardized_SMILES>  (545) 
Cn1cnc2ccc(-c3ccnc4[nH]ccc34)cc21

>  <Name>  (545) 
nan

>  <Pocket>  (545) 
nan

>  <ATP_Site>  (545) 
nan

>  <Peripheral>  (545) 
nan

>  <Num_H_Atoms_ProtBoundConf>  (545) 
nan

>  <Num_Resolved_Atoms>  (545) 
nan

>  <Num_Not_Resolved_Atoms>  (545) 
nan

$$$$
CHEMBL4204350
     RDKit          3D

  0  0  0  0  0  0  0  0  0  0999 V3000
M  V30 BEGIN CTAB
M  V30 COUNTS 39 42 0 0 0
M  V30 BEGIN ATOM
M  V30 1 O -0.653552 -2.383012 0.369677 0
M  V30 2 C 0.544123 -2.133796 0.085656 0
M  V30 3 N 1.511752 -2.989837 -0.517995 0
M  V30 4 C 2.725901 -2.264122 -0.638513 0
M  V30 5 C 3.927909 -2.721486 -1.173906 0
M  V30 6 C 5.037225 -1.889911 -1.224370 0
M  V30 7 C 4.887126 -0.617055 -0.727293 0
M  V30 8 Cl 6.312400 0.399667 -0.810430 0
M  V30 9 C 3.709263 -0.114472 -0.183404 0
M  V30 10 C 2.629732 -0.970341 -0.150791 0
M  V30 11 C 1.262961 -0.863829 0.311666 0
M  V30 12 N 0.777035 0.209636 0.842575 0
M  V30 13 N -0.577438 0.249849 1.277776 0
M  V30 14 C -1.468489 0.753013 0.300243 0
M  V30 15 C -1.171488 0.725790 -1.045990 0
M  V30 16 C -2.020957 1.225759 -2.005471 0
M  V30 17 C -3.232470 1.789013 -1.666278 0
M  V30 18 C -3.577987 1.841378 -0.332265 0
M  V30 19 C -2.689194 1.325955 0.586515 0
M  V30 20 C -0.784342 -0.210910 2.582129 0
M  V30 21 C 0.232468 -0.230791 3.514126 0
M  V30 22 C 0.065057 -0.692392 4.799252 0
M  V30 23 C -1.154649 -1.168805 5.229205 0
M  V30 24 C -2.201421 -1.170019 4.335863 0
M  V30 25 C -1.983071 -0.697512 3.059937 0
M  V30 26 H 1.302116 -3.956509 -0.794926 0
M  V30 27 H 4.033736 -3.732547 -1.564586 0
M  V30 28 H 5.957709 -2.255232 -1.639696 0
M  V30 29 H 3.625532 0.891866 0.198731 0
M  V30 30 H -0.224966 0.290712 -1.367371 0
M  V30 31 H -1.718728 1.170489 -3.061673 0
M  V30 32 H -3.891568 2.178379 -2.429348 0
M  V30 33 H -4.524849 2.281523 -0.066075 0
M  V30 34 H -3.036462 1.420085 1.604449 0
M  V30 35 H 1.215195 0.138402 3.212925 0
M  V30 36 H 0.930642 -0.666340 5.459767 0
M  V30 37 H -1.184060 -1.508183 6.254889 0
M  V30 38 H -3.153853 -1.545346 4.681753 0
M  V30 39 H -2.851372 -0.749873 2.439358 0
M  V30 END ATOM
M  V30 BEGIN BOND
M  V30 1 2 1 2
M  V30 2 1 2 3
M  V30 3 1 3 4
M  V30 4 2 4 5
M  V30 5 1 5 6
M  V30 6 2 6 7
M  V30 7 1 7 8
M  V30 8 1 7 9
M  V30 9 2 9 10
M  V30 10 1 10 11
M  V30 11 2 11 12 CFG=2
M  V30 12 1 12 13
M  V30 13 1 13 14
M  V30 14 2 14 15
M  V30 15 1 15 16
M  V30 16 2 16 17
M  V30 17 1 17 18
M  V30 18 2 18 19
M  V30 19 1 13 20
M  V30 20 2 20 21
M  V30 21 1 21 22
M  V30 22 2 22 23
M  V30 23 1 23 24
M  V30 24 2 24 25
M  V30 25 1 11 2
M  V30 26 1 19 14
M  V30 27 1 25 20
M  V30 28 1 10 4
M  V30 29 1 3 26
M  V30 30 1 5 27
M  V30 31 1 6 28
M  V30 32 1 9 29
M  V30 33 1 15 30
M  V30 34 1 16 31
M  V30 35 1 17 32
M  V30 36 1 18 33
M  V30 37 1 19 34
M  V30 38 1 21 35
M  V30 39 1 22 36
M  V30 40 1 23 37
M  V30 41 1 24 38
M  V30 42 1 25 39
M  V30 END BOND
M  V30 END CTAB
M  END
>  <Dataset>  (546) 
ChEMBL_Kinases

>  <Ligand_Instance>  (546) 
nan

>  <PDB_ID>  (546) 
nan

>  <Standardized_SMILES>  (546) 
O=C1Nc2ccc(Cl)cc2C1=NN(c1ccccc1)c1ccccc1

>  <Name>  (546) 
nan

>  <Pocket>  (546) 
nan

>  <ATP_Site>  (546) 
nan

>  <Peripheral>  (546) 
nan

>  <Num_H_Atoms_ProtBoundConf>  (546) 
nan

>  <Num_Resolved_Atoms>  (546) 
nan

>  <Num_Not_Resolved_Atoms>  (546) 
nan

$$$$
CHEMBL4204333
     RDKit          3D

  0  0  0  0  0  0  0  0  0  0999 V3000
M  V30 BEGIN CTAB
M  V30 COUNTS 50 54 0 0 0
M  V30 BEGIN ATOM
M  V30 1 C 6.213400 2.069043 2.706985 0
M  V30 2 C 6.188218 1.772415 1.253788 0
M  V30 3 N 7.277818 1.765606 0.430929 0
M  V30 4 N 6.902490 1.460041 -0.812928 0
M  V30 5 C 5.554053 1.252732 -0.864692 0
M  V30 6 C 5.134446 1.451441 0.424811 0
M  V30 7 C 3.760198 1.336063 0.847445 0
M  V30 8 C 2.618662 1.040265 0.207405 0
M  V30 9 C 1.427311 1.002737 0.884139 0
M  V30 10 C 1.488136 1.287000 2.248976 0
M  V30 11 S 3.296833 1.612374 2.552440 0
M  V30 12 C 0.328678 1.302306 3.164860 0
M  V30 13 O 0.566204 1.578261 4.360638 0
M  V30 14 N -0.941509 1.003658 2.604722 0
M  V30 15 C -0.896146 0.282623 1.359495 0 CFG=1
M  V30 16 C -0.703930 -1.189791 1.617955 0
M  V30 17 C -1.101585 -2.065587 0.453847 0
M  V30 18 C -2.445593 -1.746552 -0.120127 0 CFG=1
M  V30 19 O -2.320889 -1.031542 -1.333751 0
M  V30 20 C -3.290192 -2.909786 -0.413288 0
M  V30 21 C -4.170001 -3.451488 0.514831 0
M  V30 22 C -4.953623 -4.549147 0.208966 0
M  V30 23 C -4.894548 -5.158638 -1.042355 0
M  V30 24 F -5.636672 -6.230754 -1.392030 0
M  V30 25 C -4.020595 -4.635303 -1.991475 0
M  V30 26 C -3.263079 -3.536555 -1.626475 0
M  V30 27 C -3.103648 -0.749691 0.833250 0
M  V30 28 C -2.243876 0.513372 0.698144 0
M  V30 29 N 0.113531 0.718837 0.435540 0
M  V30 30 H 5.685988 3.012397 2.955791 0
M  V30 31 H 5.722707 1.185544 3.211549 0
M  V30 32 H 7.252914 2.042219 3.062656 0
M  V30 33 H 7.610211 1.408937 -1.578951 0
M  V30 34 H 4.996450 0.993679 -1.745838 0
M  V30 35 H 2.714219 0.841454 -0.851604 0
M  V30 36 H -1.766219 1.335385 3.148669 0
M  V30 37 H -1.149727 -1.532636 2.572553 0
M  V30 38 H 0.407173 -1.345471 1.746442 0
M  V30 39 H -1.166599 -3.101681 0.863044 0
M  V30 40 H -0.316163 -1.977373 -0.330077 0
M  V30 41 H -3.241148 -0.714285 -1.540363 0
M  V30 42 H -4.260168 -3.027957 1.491839 0
M  V30 43 H -5.653611 -5.001235 0.908533 0
M  V30 44 H -3.947978 -5.085865 -2.979866 0
M  V30 45 H -2.593811 -3.168600 -2.413717 0
M  V30 46 H -4.115160 -0.487140 0.490495 0
M  V30 47 H -3.155697 -1.112861 1.863502 0
M  V30 48 H -2.141043 0.655581 -0.400939 0
M  V30 49 H -2.763812 1.407003 1.085014 0
M  V30 50 H -0.101092 0.837527 -0.601510 0
M  V30 END ATOM
M  V30 BEGIN BOND
M  V30 1 1 1 2
M  V30 2 2 2 3
M  V30 3 1 3 4
M  V30 4 1 4 5
M  V30 5 2 5 6
M  V30 6 1 6 7
M  V30 7 2 7 8
M  V30 8 1 8 9
M  V30 9 2 9 10
M  V30 10 1 10 11
M  V30 11 1 10 12
M  V30 12 2 12 13
M  V30 13 1 12 14
M  V30 14 1 15 14 CFG=1
M  V30 15 1 15 16
M  V30 16 1 16 17
M  V30 17 1 17 18
M  V30 18 1 18 19 CFG=3
M  V30 19 1 18 20
M  V30 20 2 20 21
M  V30 21 1 21 22
M  V30 22 2 22 23
M  V30 23 1 23 24
M  V30 24 1 23 25
M  V30 25 2 25 26
M  V30 26 1 18 27
M  V30 27 1 27 28
M  V30 28 1 15 29
M  V30 29 1 6 2
M  V30 30 1 11 7
M  V30 31 1 28 15
M  V30 32 1 29 9
M  V30 33 1 26 20
M  V30 34 1 1 30
M  V30 35 1 1 31
M  V30 36 1 1 32
M  V30 37 1 4 33
M  V30 38 1 5 34
M  V30 39 1 8 35
M  V30 40 1 14 36
M  V30 41 1 16 37
M  V30 42 1 16 38
M  V30 43 1 17 39
M  V30 44 1 17 40
M  V30 45 1 19 41
M  V30 46 1 21 42
M  V30 47 1 22 43
M  V30 48 1 25 44
M  V30 49 1 26 45
M  V30 50 1 27 46
M  V30 51 1 27 47
M  V30 52 1 28 48
M  V30 53 1 28 49
M  V30 54 1 29 50
M  V30 END BOND
M  V30 END CTAB
M  END
>  <Dataset>  (547) 
ChEMBL_Kinases

>  <Ligand_Instance>  (547) 
nan

>  <PDB_ID>  (547) 
nan

>  <Standardized_SMILES>  (547) 
Cc1n[nH]cc1-c1cc2c(s1)C(=O)N[C@]1(CC[C@@](O)(c3ccc(F)cc3)CC1)N2

>  <Name>  (547) 
nan

>  <Pocket>  (547) 
nan

>  <ATP_Site>  (547) 
nan

>  <Peripheral>  (547) 
nan

>  <Num_H_Atoms_ProtBoundConf>  (547) 
nan

>  <Num_Resolved_Atoms>  (547) 
nan

>  <Num_Not_Resolved_Atoms>  (547) 
nan

$$$$
CHEMBL478421
     RDKit          3D

  0  0  0  0  0  0  0  0  0  0999 V3000
M  V30 BEGIN CTAB
M  V30 COUNTS 53 56 0 0 0
M  V30 BEGIN ATOM
M  V30 1 C -0.905562 -1.022119 5.031666 0
M  V30 2 C 0.219790 -0.423316 4.308072 0
M  V30 3 C 1.258023 0.266970 4.899483 0
M  V30 4 C 2.308007 0.821844 4.189422 0
M  V30 5 C 2.333257 0.687967 2.827691 0
M  V30 6 N 3.386827 1.236897 2.043614 0
M  V30 7 C 3.472569 2.525681 1.451552 0
M  V30 8 O 2.469395 3.259709 1.664522 0
M  V30 9 C 4.656439 2.890855 0.677355 0
M  V30 10 C 5.761436 2.112356 0.430098 0
M  V30 11 C 6.808426 2.608138 -0.327989 0
M  V30 12 C 6.757654 3.892400 -0.846840 0
M  V30 13 C 5.667390 4.686220 -0.613795 0
M  V30 14 C 4.611587 4.188321 0.149800 0
M  V30 15 C 1.293970 -0.003258 2.233516 0
M  V30 16 C 0.223836 -0.572909 2.919485 0
M  V30 17 C -0.788651 -1.268922 2.133884 0
M  V30 18 C -1.210843 -0.614696 0.992478 0
M  V30 19 C -2.157127 -1.147006 0.156432 0
M  V30 20 C -2.743271 -2.375754 0.413261 0
M  V30 21 C -3.756074 -3.043618 -0.396942 0
M  V30 22 O -4.238895 -4.165507 -0.091062 0
M  V30 23 N -4.287409 -2.495756 -1.595701 0
M  V30 24 C -5.299249 -3.182709 -2.388416 0
M  V30 25 C -4.798201 -4.529536 -2.869287 0
M  V30 26 C -5.795828 -5.352114 -3.725984 0
M  V30 27 C -4.601482 -4.737039 -4.325984 0
M  V30 28 C -2.316462 -3.021533 1.553704 0
M  V30 29 C -1.364095 -2.494936 2.402999 0
M  V30 30 H -1.089576 -0.350758 5.919575 0
M  V30 31 H -1.850696 -1.020037 4.479864 0
M  V30 32 H -0.685340 -2.020218 5.484253 0
M  V30 33 H 1.250190 0.379883 5.973902 0
M  V30 34 H 3.119755 1.362877 4.663942 0
M  V30 35 H 4.131196 0.509479 1.963173 0
M  V30 36 H 5.737148 1.120901 0.863856 0
M  V30 37 H 7.653211 1.945193 -0.488239 0
M  V30 38 H 7.588270 4.271118 -1.442059 0
M  V30 39 H 5.583054 5.693029 -0.997262 0
M  V30 40 H 3.753903 4.856851 0.314414 0
M  V30 41 H 1.340805 -0.093648 1.150202 0
M  V30 42 H -0.816654 0.353586 0.697442 0
M  V30 43 H -2.495833 -0.644976 -0.739596 0
M  V30 44 H -3.910666 -1.550815 -1.894048 0
M  V30 45 H -6.234762 -3.327939 -1.801123 0
M  V30 46 H -5.499944 -2.570213 -3.283384 0
M  V30 47 H -4.133683 -5.113263 -2.223605 0
M  V30 48 H -5.824879 -6.435789 -3.512728 0
M  V30 49 H -6.792328 -4.849388 -3.878911 0
M  V30 50 H -3.809635 -5.425995 -4.668170 0
M  V30 51 H -4.710007 -3.863712 -5.014148 0
M  V30 52 H -2.675344 -3.989474 1.896752 0
M  V30 53 H -1.007576 -2.977304 3.306466 0
M  V30 END ATOM
M  V30 BEGIN BOND
M  V30 1 1 1 2
M  V30 2 2 2 3
M  V30 3 1 3 4
M  V30 4 2 4 5
M  V30 5 1 5 6
M  V30 6 1 6 7
M  V30 7 2 7 8
M  V30 8 1 7 9
M  V30 9 2 9 10
M  V30 10 1 10 11
M  V30 11 2 11 12
M  V30 12 1 12 13
M  V30 13 2 13 14
M  V30 14 1 5 15
M  V30 15 2 15 16
M  V30 16 1 16 17
M  V30 17 2 17 18
M  V30 18 1 18 19
M  V30 19 2 19 20
M  V30 20 1 20 21
M  V30 21 2 21 22
M  V30 22 1 21 23
M  V30 23 1 23 24
M  V30 24 1 24 25
M  V30 25 1 25 26
M  V30 26 1 26 27
M  V30 27 1 20 28
M  V30 28 2 28 29
M  V30 29 1 16 2
M  V30 30 1 29 17
M  V30 31 1 14 9
M  V30 32 1 27 25
M  V30 33 1 1 30
M  V30 34 1 1 31
M  V30 35 1 1 32
M  V30 36 1 3 33
M  V30 37 1 4 34
M  V30 38 1 6 35
M  V30 39 1 10 36
M  V30 40 1 11 37
M  V30 41 1 12 38
M  V30 42 1 13 39
M  V30 43 1 14 40
M  V30 44 1 15 41
M  V30 45 1 18 42
M  V30 46 1 19 43
M  V30 47 1 23 44
M  V30 48 1 24 45
M  V30 49 1 24 46
M  V30 50 1 25 47
M  V30 51 1 26 48
M  V30 52 1 26 49
M  V30 53 1 27 50
M  V30 54 1 27 51
M  V30 55 1 28 52
M  V30 56 1 29 53
M  V30 END BOND
M  V30 END CTAB
M  END
>  <Dataset>  (548) 
ChEMBL_Kinases

>  <Ligand_Instance>  (548) 
nan

>  <PDB_ID>  (548) 
nan

>  <Standardized_SMILES>  (548) 
Cc1ccc(NC(=O)c2ccccc2)cc1-c1ccc(C(=O)NCC2CC2)cc1

>  <Name>  (548) 
nan

>  <Pocket>  (548) 
nan

>  <ATP_Site>  (548) 
nan

>  <Peripheral>  (548) 
nan

>  <Num_H_Atoms_ProtBoundConf>  (548) 
nan

>  <Num_Resolved_Atoms>  (548) 
nan

>  <Num_Not_Resolved_Atoms>  (548) 
nan

$$$$
CHEMBL4784212
     RDKit          3D

  0  0  0  0  0  0  0  0  0  0999 V3000
M  V30 BEGIN CTAB
M  V30 COUNTS 30 32 0 0 0
M  V30 BEGIN ATOM
M  V30 1 C -1.099729 -1.986756 3.537899 0
M  V30 2 C -0.740812 -3.133032 2.625800 0
M  V30 3 C -1.099925 -2.873330 1.197017 0
M  V30 4 N -0.403229 -1.699160 0.707657 0
M  V30 5 C 0.803501 -1.856757 0.143012 0
M  V30 6 O 1.347855 -2.993748 0.026250 0
M  V30 7 C 1.476990 -0.747765 -0.327028 0
M  V30 8 C 2.717819 -0.919205 -0.906397 0
M  V30 9 C 3.382143 0.211391 -1.374787 0
M  V30 10 Cl 4.960305 -0.022977 -2.109569 0
M  V30 11 C 2.868236 1.488552 -1.290935 0
M  V30 12 C 1.619314 1.635385 -0.704452 0
M  V30 13 C 0.960712 0.523735 -0.241288 0
M  V30 14 N -0.233743 0.637099 0.323125 0
M  V30 15 C -1.011618 1.699316 0.562630 0
M  V30 16 S -0.836878 3.288128 0.272214 0
M  V30 17 N -2.144031 1.302383 1.162909 0
M  V30 18 N -2.066697 -0.027427 1.297607 0
M  V30 19 C -0.885187 -0.445239 0.779028 0
M  V30 20 H -0.508638 -1.088255 3.367400 0
M  V30 21 H -0.837737 -2.317919 4.584769 0
M  V30 22 H -2.188137 -1.778731 3.478107 0
M  V30 23 H 0.376350 -3.213332 2.672389 0
M  V30 24 H -1.226875 -4.050545 2.994081 0
M  V30 25 H -2.196623 -2.780033 1.041188 0
M  V30 26 H -0.744057 -3.757313 0.610393 0
M  V30 27 H 3.185320 -1.883797 -1.008208 0
M  V30 28 H 3.457571 2.325422 -1.684953 0
M  V30 29 H 1.276391 2.649156 -0.669402 0
M  V30 30 H -3.005716 1.797611 1.516448 0
M  V30 END ATOM
M  V30 BEGIN BOND
M  V30 1 1 1 2
M  V30 2 1 2 3
M  V30 3 1 3 4
M  V30 4 1 4 5
M  V30 5 2 5 6
M  V30 6 1 5 7
M  V30 7 2 7 8
M  V30 8 1 8 9
M  V30 9 1 9 10
M  V30 10 2 9 11
M  V30 11 1 11 12
M  V30 12 2 12 13
M  V30 13 1 13 14
M  V30 14 1 14 15
M  V30 15 2 15 16
M  V30 16 1 15 17
M  V30 17 1 17 18
M  V30 18 2 18 19
M  V30 19 1 19 4
M  V30 20 1 13 7
M  V30 21 1 19 14
M  V30 22 1 1 20
M  V30 23 1 1 21
M  V30 24 1 1 22
M  V30 25 1 2 23
M  V30 26 1 2 24
M  V30 27 1 3 25
M  V30 28 1 3 26
M  V30 29 1 8 27
M  V30 30 1 11 28
M  V30 31 1 12 29
M  V30 32 1 17 30
M  V30 END BOND
M  V30 END CTAB
M  END
>  <Dataset>  (549) 
ChEMBL_Kinases

>  <Ligand_Instance>  (549) 
nan

>  <PDB_ID>  (549) 
nan

>  <Standardized_SMILES>  (549) 
CCCn1c(=O)c2cc(Cl)ccc2n2c(=S)[nH]nc12

>  <Name>  (549) 
nan

>  <Pocket>  (549) 
nan

>  <ATP_Site>  (549) 
nan

>  <Peripheral>  (549) 
nan

>  <Num_H_Atoms_ProtBoundConf>  (549) 
nan

>  <Num_Resolved_Atoms>  (549) 
nan

>  <Num_Not_Resolved_Atoms>  (549) 
nan

$$$$
CHEMBL4204286
     RDKit          3D

  0  0  0  0  0  0  0  0  0  0999 V3000
M  V30 BEGIN CTAB
M  V30 COUNTS 37 39 0 0 0
M  V30 BEGIN ATOM
M  V30 1 O -0.228923 -0.171035 3.419511 0
M  V30 2 C 0.579191 -0.964742 2.868983 0
M  V30 3 N 1.028853 -2.247471 3.285013 0
M  V30 4 C 1.936650 -2.742481 2.324462 0
M  V30 5 O 2.403786 -3.884210 2.593212 0
M  V30 6 N 2.108902 -1.796264 1.246582 0
M  V30 7 C 2.984098 -2.085690 0.196294 0
M  V30 8 C 4.082557 -2.922455 0.431454 0
M  V30 9 C 4.998576 -3.319226 -0.503407 0
M  V30 10 C 4.862453 -2.877853 -1.801091 0
M  V30 11 C 3.805469 -2.050878 -2.111729 0
M  V30 12 C 2.926595 -1.697401 -1.114842 0
M  V30 13 C 1.264825 -0.723351 1.616219 0
M  V30 14 C 1.139818 0.379022 0.907101 0
M  V30 15 N 0.305665 1.415638 1.338430 0
M  V30 16 C -1.086632 1.347331 1.016532 0
M  V30 17 C -2.003017 2.327035 1.398201 0
M  V30 18 C -3.340634 2.227249 1.069158 0
M  V30 19 C -3.822838 1.167360 0.357435 0
M  V30 20 C -5.218124 0.971293 -0.039078 0
M  V30 21 O -5.634311 -0.035962 -0.706910 0
M  V30 22 O -6.275951 1.825074 0.240947 0
M  V30 23 C -2.948602 0.190135 -0.031344 0
M  V30 24 C -1.617230 0.292886 0.298149 0
M  V30 25 H 0.645442 -2.623975 4.193595 0
M  V30 26 H 4.314684 -3.344085 1.418155 0
M  V30 27 H 5.840520 -3.963710 -0.311559 0
M  V30 28 H 5.562141 -3.169034 -2.557682 0
M  V30 29 H 3.711845 -1.714504 -3.128510 0
M  V30 30 H 2.129035 -1.073495 -1.468562 0
M  V30 31 H 1.675830 0.535428 -0.007410 0
M  V30 32 H 0.610106 2.238464 1.876801 0
M  V30 33 H -1.652711 3.178163 1.962249 0
M  V30 34 H -4.052667 2.990483 1.366874 0
M  V30 35 H -7.234293 1.520126 0.407865 0
M  V30 36 H -3.266349 -0.677750 -0.598499 0
M  V30 37 H -0.937112 -0.476537 -0.009627 0
M  V30 END ATOM
M  V30 BEGIN BOND
M  V30 1 2 1 2
M  V30 2 1 2 3
M  V30 3 1 3 4
M  V30 4 2 4 5
M  V30 5 1 4 6
M  V30 6 1 6 7
M  V30 7 2 7 8
M  V30 8 1 8 9
M  V30 9 2 9 10
M  V30 10 1 10 11
M  V30 11 2 11 12
M  V30 12 1 6 13
M  V30 13 2 13 14
M  V30 14 1 14 15
M  V30 15 1 15 16
M  V30 16 2 16 17
M  V30 17 1 17 18
M  V30 18 2 18 19
M  V30 19 1 19 20
M  V30 20 2 20 21
M  V30 21 1 20 22
M  V30 22 1 19 23
M  V30 23 2 23 24
M  V30 24 1 13 2
M  V30 25 1 24 16
M  V30 26 1 12 7
M  V30 27 1 3 25
M  V30 28 1 8 26
M  V30 29 1 9 27
M  V30 30 1 10 28
M  V30 31 1 11 29
M  V30 32 1 12 30
M  V30 33 1 14 31
M  V30 34 1 15 32
M  V30 35 1 17 33
M  V30 36 1 18 34
M  V30 37 1 22 35
M  V30 38 1 23 36
M  V30 39 1 24 37
M  V30 END BOND
M  V30 END CTAB
M  END
>  <Dataset>  (550) 
ChEMBL_Kinases

>  <Ligand_Instance>  (550) 
nan

>  <PDB_ID>  (550) 
nan

>  <Standardized_SMILES>  (550) 
O=C1NC(=O)N(c2ccccc2)/C1=C/Nc1ccc(C(=O)O)cc1

>  <Name>  (550) 
nan

>  <Pocket>  (550) 
nan

>  <ATP_Site>  (550) 
nan

>  <Peripheral>  (550) 
nan

>  <Num_H_Atoms_ProtBoundConf>  (550) 
nan

>  <Num_Resolved_Atoms>  (550) 
nan

>  <Num_Not_Resolved_Atoms>  (550) 
nan

$$$$
CHEMBL4204256
     RDKit          3D

  0  0  0  0  0  0  0  0  0  0999 V3000
M  V30 BEGIN CTAB
M  V30 COUNTS 51 53 0 0 0
M  V30 BEGIN ATOM
M  V30 1 O 2.538751 1.490226 0.167033 0
M  V30 2 C 1.734213 0.738066 0.817359 0
M  V30 3 N 2.357676 -0.089611 1.807321 0
M  V30 4 C 3.776489 0.167852 1.798769 0
M  V30 5 C 4.126212 1.174549 2.661062 0
M  V30 6 C 5.460695 1.555360 2.780069 0
M  V30 7 F 5.895119 2.540966 3.608438 0
M  V30 8 C 6.390411 0.871624 1.993253 0
M  V30 9 C 6.028707 -0.141663 1.126986 0
M  V30 10 C 4.698033 -0.507534 1.021015 0
M  V30 11 F 4.238199 -1.470913 0.217396 0
M  V30 12 C 0.354873 0.894292 0.399550 0 CFG=2
M  V30 13 N -0.514680 0.087434 1.219064 0
M  V30 14 C -0.710348 0.306344 2.616430 0
M  V30 15 S 0.049969 1.543287 3.408673 0
M  V30 16 N -1.593978 -0.550145 3.369808 0
M  V30 17 C -2.109366 -1.498010 2.459005 0
M  V30 18 C -3.292389 -1.076796 1.846925 0
M  V30 19 C -3.940927 -1.875480 0.925204 0
M  V30 20 C -5.212525 -1.419713 0.269003 0
M  V30 21 F -5.262493 -0.039322 0.173215 0
M  V30 22 F -6.285240 -1.861164 1.001586 0
M  V30 23 F -5.316513 -1.920577 -1.002329 0
M  V30 24 C -3.385217 -3.110846 0.622038 0
M  V30 25 C -2.206025 -3.528653 1.233296 0
M  V30 26 C -1.646054 -4.866317 0.874968 0
M  V30 27 F -1.725410 -5.036965 -0.509964 0
M  V30 28 F -2.312817 -5.867068 1.554930 0
M  V30 29 F -0.339746 -4.893496 1.295097 0
M  V30 30 C -1.584847 -2.724207 2.138598 0
M  V30 31 C 0.067374 0.648622 -1.028831 0
M  V30 32 C -1.318090 0.656644 -1.243556 0
M  V30 33 C -1.840097 0.445191 -2.519894 0
M  V30 34 C -1.002069 0.224754 -3.591611 0
M  V30 35 C 0.356998 0.220453 -3.360986 0
M  V30 36 C 0.894704 0.427053 -2.108678 0
M  V30 37 H 1.654863 -0.691056 2.306062 0
M  V30 38 H 3.442058 1.733938 3.291606 0
M  V30 39 H 7.457255 1.094565 2.013712 0
M  V30 40 H 6.763484 -0.667536 0.518429 0
M  V30 41 H 0.027642 1.960220 0.588051 0
M  V30 42 H -1.033040 -0.701338 0.776441 0
M  V30 43 H -1.729635 -0.381579 4.389154 0
M  V30 44 H -3.775789 -0.111525 2.048392 0
M  V30 45 H -3.921478 -3.700139 -0.099624 0
M  V30 46 H -0.683193 -2.991896 2.635477 0
M  V30 47 H -2.109820 0.816391 -0.501448 0
M  V30 48 H -2.900239 0.441902 -2.736691 0
M  V30 49 H -1.344436 0.054441 -4.605056 0
M  V30 50 H 1.100050 0.059175 -4.120778 0
M  V30 51 H 1.930390 0.443492 -1.819307 0
M  V30 END ATOM
M  V30 BEGIN BOND
M  V30 1 2 1 2
M  V30 2 1 2 3
M  V30 3 1 3 4
M  V30 4 2 4 5
M  V30 5 1 5 6
M  V30 6 1 6 7
M  V30 7 2 6 8
M  V30 8 1 8 9
M  V30 9 2 9 10
M  V30 10 1 10 11
M  V30 11 1 2 12
M  V30 12 1 12 13
M  V30 13 1 13 14
M  V30 14 2 14 15
M  V30 15 1 14 16
M  V30 16 1 16 17
M  V30 17 2 17 18
M  V30 18 1 18 19
M  V30 19 1 19 20
M  V30 20 1 20 21
M  V30 21 1 20 22
M  V30 22 1 20 23
M  V30 23 2 19 24
M  V30 24 1 24 25
M  V30 25 1 25 26
M  V30 26 1 26 27
M  V30 27 1 26 28
M  V30 28 1 26 29
M  V30 29 2 25 30
M  V30 30 1 12 31
M  V30 31 2 31 32
M  V30 32 1 32 33
M  V30 33 2 33 34
M  V30 34 1 34 35
M  V30 35 2 35 36
M  V30 36 1 10 4
M  V30 37 1 30 17
M  V30 38 1 36 31
M  V30 39 1 3 37
M  V30 40 1 5 38
M  V30 41 1 8 39
M  V30 42 1 9 40
M  V30 43 1 12 41 CFG=1
M  V30 44 1 13 42
M  V30 45 1 16 43
M  V30 46 1 18 44
M  V30 47 1 24 45
M  V30 48 1 30 46
M  V30 49 1 32 47
M  V30 50 1 33 48
M  V30 51 1 34 49
M  V30 52 1 35 50
M  V30 53 1 36 51
M  V30 END BOND
M  V30 END CTAB
M  END
>  <Dataset>  (551) 
ChEMBL_Kinases

>  <Ligand_Instance>  (551) 
nan

>  <PDB_ID>  (551) 
nan

>  <Standardized_SMILES>  (551) 
O=C(Nc1cc(F)ccc1F)[C@H](NC(=S)Nc1cc(C(F)(F)F)cc(C(F)(F)F)c1)c1ccccc1

>  <Name>  (551) 
nan

>  <Pocket>  (551) 
nan

>  <ATP_Site>  (551) 
nan

>  <Peripheral>  (551) 
nan

>  <Num_H_Atoms_ProtBoundConf>  (551) 
nan

>  <Num_Resolved_Atoms>  (551) 
nan

>  <Num_Not_Resolved_Atoms>  (551) 
nan

$$$$
CHEMBL4204233
     RDKit          3D

  0  0  0  0  0  0  0  0  0  0999 V3000
M  V30 BEGIN CTAB
M  V30 COUNTS 49 52 0 0 0
M  V30 BEGIN ATOM
M  V30 1 C 3.693575 -2.866178 -2.897302 0
M  V30 2 O 4.119410 -1.572032 -2.472768 0
M  V30 3 C 3.563589 -0.971755 -1.353303 0
M  V30 4 C 2.585497 -1.498916 -0.540867 0
M  V30 5 N 2.110057 -0.834205 0.527270 0
M  V30 6 C 2.553757 0.381885 0.872865 0
M  V30 7 C 3.539012 0.941662 0.075500 0
M  V30 8 C 4.045535 0.282308 -1.026783 0
M  V30 9 C 3.816457 2.171644 0.634868 0
M  V30 10 C 4.778529 3.173026 0.188674 0
M  V30 11 N 5.595357 2.971612 -0.959068 0
M  V30 12 O 4.956831 4.272466 0.774154 0
M  V30 13 N 3.030558 2.334710 1.716501 0
M  V30 14 N 2.258081 1.250878 1.870204 0
M  V30 15 C 1.270206 0.929070 2.844738 0
M  V30 16 C 1.406047 1.019601 4.204678 0
M  V30 17 C 0.353117 0.669691 5.020232 0
M  V30 18 C -0.869687 0.219331 4.547110 0
M  V30 19 C -1.021714 0.122186 3.159809 0
M  V30 20 C -2.256143 -0.336191 2.561669 0
M  V30 21 C -3.275412 -0.734550 2.053872 0
M  V30 22 C -4.517251 -1.222996 1.417599 0 CFG=2
M  V30 23 O -5.542397 -0.312178 1.582552 0
M  V30 24 C -4.797449 -2.561428 2.026360 0
M  V30 25 C -5.482948 -3.280337 0.885371 0
M  V30 26 N -4.673213 -2.913670 -0.274833 0
M  V30 27 C -4.242833 -3.564408 -1.512141 0
M  V30 28 C -4.267371 -1.575200 -0.008815 0
M  V30 29 O -3.758836 -0.682081 -0.735380 0
M  V30 30 C 0.051450 0.480222 2.373806 0
M  V30 31 H 4.462901 -3.357511 -3.522314 0
M  V30 32 H 2.754080 -2.817385 -3.476526 0
M  V30 33 H 3.552122 -3.484050 -1.973046 0
M  V30 34 H 2.216687 -2.477695 -0.804712 0
M  V30 35 H 4.816630 0.775183 -1.610769 0
M  V30 36 H 6.512396 2.700997 -1.381862 0
M  V30 37 H 5.048528 3.190358 -1.823613 0
M  V30 38 H 2.360189 1.370996 4.573204 0
M  V30 39 H 0.519033 0.762354 6.102939 0
M  V30 40 H -1.685558 -0.051292 5.195617 0
M  V30 41 H -5.109961 0.589467 1.559108 0
M  V30 42 H -5.431157 -2.433240 2.916557 0
M  V30 43 H -3.828698 -3.054478 2.290001 0
M  V30 44 H -5.551275 -4.365336 1.044438 0
M  V30 45 H -6.508511 -2.852450 0.818170 0
M  V30 46 H -4.816131 -4.530810 -1.606078 0
M  V30 47 H -4.444660 -2.911836 -2.404242 0
M  V30 48 H -3.183321 -3.843236 -1.498613 0
M  V30 49 H -0.112207 0.388346 1.290773 0
M  V30 END ATOM
M  V30 BEGIN BOND
M  V30 1 1 1 2
M  V30 2 1 2 3
M  V30 3 2 3 4
M  V30 4 1 4 5
M  V30 5 2 5 6
M  V30 6 1 6 7
M  V30 7 2 7 8
M  V30 8 1 7 9
M  V30 9 1 9 10
M  V30 10 1 10 11
M  V30 11 2 10 12
M  V30 12 2 9 13
M  V30 13 1 13 14
M  V30 14 1 14 15
M  V30 15 2 15 16
M  V30 16 1 16 17
M  V30 17 2 17 18
M  V30 18 1 18 19
M  V30 19 1 19 20
M  V30 20 3 20 21
M  V30 21 1 22 21 CFG=1
M  V30 22 1 22 23
M  V30 23 1 22 24
M  V30 24 1 24 25
M  V30 25 1 25 26
M  V30 26 1 26 27
M  V30 27 1 26 28
M  V30 28 2 28 29
M  V30 29 2 19 30
M  V30 30 1 8 3
M  V30 31 1 30 15
M  V30 32 1 14 6
M  V30 33 1 28 22
M  V30 34 1 1 31
M  V30 35 1 1 32
M  V30 36 1 1 33
M  V30 37 1 4 34
M  V30 38 1 8 35
M  V30 39 1 11 36
M  V30 40 1 11 37
M  V30 41 1 16 38
M  V30 42 1 17 39
M  V30 43 1 18 40
M  V30 44 1 23 41
M  V30 45 1 24 42
M  V30 46 1 24 43
M  V30 47 1 25 44
M  V30 48 1 25 45
M  V30 49 1 27 46
M  V30 50 1 27 47
M  V30 51 1 27 48
M  V30 52 1 30 49
M  V30 END BOND
M  V30 END CTAB
M  END
>  <Dataset>  (552) 
ChEMBL_Kinases

>  <Ligand_Instance>  (552) 
nan

>  <PDB_ID>  (552) 
nan

>  <Standardized_SMILES>  (552) 
COc1cnc2c(c1)c(C(N)=O)nn2-c1cccc(C#C[C@]2(O)CCN(C)C2=O)c1

>  <Name>  (552) 
nan

>  <Pocket>  (552) 
nan

>  <ATP_Site>  (552) 
nan

>  <Peripheral>  (552) 
nan

>  <Num_H_Atoms_ProtBoundConf>  (552) 
nan

>  <Num_Resolved_Atoms>  (552) 
nan

>  <Num_Not_Resolved_Atoms>  (552) 
nan

$$$$
CHEMBL4204060
     RDKit          3D

  0  0  0  0  0  0  0  0  0  0999 V3000
M  V30 BEGIN CTAB
M  V30 COUNTS 42 45 0 0 0
M  V30 BEGIN ATOM
M  V30 1 C 2.267989 -5.263644 0.942113 0
M  V30 2 N 1.815275 -3.872251 0.853930 0
M  V30 3 C 2.528667 -2.685910 0.539793 0
M  V30 4 O 3.751914 -2.774317 0.285769 0
M  V30 5 C 1.571056 -1.577138 0.599259 0
M  V30 6 N 1.925439 -0.382304 0.362020 0
M  V30 7 N 1.098421 0.747069 0.390343 0
M  V30 8 C 0.489817 1.067384 -0.850310 0
M  V30 9 C 0.312316 0.112927 -1.828821 0
M  V30 10 C -0.260325 0.401534 -3.046232 0
M  V30 11 C -0.690816 1.675254 -3.353026 0
M  V30 12 C -0.530663 2.659932 -2.399822 0
M  V30 13 C 0.048159 2.327913 -1.193010 0
M  V30 14 C 1.009462 1.380219 1.657011 0
M  V30 15 C 1.996156 1.228957 2.608271 0
M  V30 16 C 1.920440 1.821665 3.848378 0
M  V30 17 C 0.844328 2.605016 4.208399 0
M  V30 18 C -0.164482 2.780535 3.283804 0
M  V30 19 C -0.049355 2.169445 2.054359 0
M  V30 20 C 0.313814 -2.202623 0.956398 0
M  V30 21 C -0.918567 -1.617893 1.145856 0
M  V30 22 C -2.043167 -2.343952 1.487653 0
M  V30 23 C -1.925006 -3.726980 1.647423 0
M  V30 24 C -0.686758 -4.304007 1.455656 0
M  V30 25 C 0.434129 -3.571005 1.113735 0
M  V30 26 H 1.529098 -5.953399 0.499523 0
M  V30 27 H 3.217837 -5.296473 0.350216 0
M  V30 28 H 2.479199 -5.457593 2.011843 0
M  V30 29 H 0.639134 -0.905660 -1.625708 0
M  V30 30 H -0.359487 -0.423472 -3.760802 0
M  V30 31 H -1.138321 1.879950 -4.315894 0
M  V30 32 H -0.869195 3.652262 -2.646491 0
M  V30 33 H 0.140719 3.149321 -0.527523 0
M  V30 34 H 2.866621 0.622400 2.378387 0
M  V30 35 H 2.746182 1.653309 4.549975 0
M  V30 36 H 0.880576 3.024952 5.204275 0
M  V30 37 H -1.003373 3.393808 3.570414 0
M  V30 38 H -0.878929 2.351648 1.411867 0
M  V30 39 H -1.049219 -0.565054 1.033078 0
M  V30 40 H -3.016448 -1.883110 1.637406 0
M  V30 41 H -2.797769 -4.307344 1.914946 0
M  V30 42 H -0.579975 -5.383915 1.577251 0
M  V30 END ATOM
M  V30 BEGIN BOND
M  V30 1 1 1 2
M  V30 2 1 2 3
M  V30 3 2 3 4
M  V30 4 1 3 5
M  V30 5 2 5 6 CFG=2
M  V30 6 1 6 7
M  V30 7 1 7 8
M  V30 8 2 8 9
M  V30 9 1 9 10
M  V30 10 2 10 11
M  V30 11 1 11 12
M  V30 12 2 12 13
M  V30 13 1 7 14
M  V30 14 2 14 15
M  V30 15 1 15 16
M  V30 16 2 16 17
M  V30 17 1 17 18
M  V30 18 2 18 19
M  V30 19 1 5 20
M  V30 20 2 20 21
M  V30 21 1 21 22
M  V30 22 2 22 23
M  V30 23 1 23 24
M  V30 24 2 24 25
M  V30 25 1 25 2
M  V30 26 1 13 8
M  V30 27 1 19 14
M  V30 28 1 25 20
M  V30 29 1 1 26
M  V30 30 1 1 27
M  V30 31 1 1 28
M  V30 32 1 9 29
M  V30 33 1 10 30
M  V30 34 1 11 31
M  V30 35 1 12 32
M  V30 36 1 13 33
M  V30 37 1 15 34
M  V30 38 1 16 35
M  V30 39 1 17 36
M  V30 40 1 18 37
M  V30 41 1 19 38
M  V30 42 1 21 39
M  V30 43 1 22 40
M  V30 44 1 23 41
M  V30 45 1 24 42
M  V30 END BOND
M  V30 END CTAB
M  END
>  <Dataset>  (553) 
ChEMBL_Kinases

>  <Ligand_Instance>  (553) 
nan

>  <PDB_ID>  (553) 
nan

>  <Standardized_SMILES>  (553) 
CN1C(=O)C(=NN(c2ccccc2)c2ccccc2)c2ccccc21

>  <Name>  (553) 
nan

>  <Pocket>  (553) 
nan

>  <ATP_Site>  (553) 
nan

>  <Peripheral>  (553) 
nan

>  <Num_H_Atoms_ProtBoundConf>  (553) 
nan

>  <Num_Resolved_Atoms>  (553) 
nan

>  <Num_Not_Resolved_Atoms>  (553) 
nan

$$$$
CHEMBL4784222
     RDKit          3D

  0  0  0  0  0  0  0  0  0  0999 V3000
M  V30 BEGIN CTAB
M  V30 COUNTS 24 25 0 0 0
M  V30 BEGIN ATOM
M  V30 1 C 1.114840 -2.796871 5.426988 0
M  V30 2 C 0.649888 -2.003636 4.275682 0
M  V30 3 O -0.604343 -1.986115 4.265836 0
M  V30 4 N 1.610743 -1.415994 3.406407 0
M  V30 5 C 1.223885 -0.603708 2.226237 0
M  V30 6 N 1.036088 -0.957793 1.168008 0
M  V30 7 C 0.692335 -0.307986 0.072810 0
M  V30 8 C 0.471597 -0.782711 -1.208991 0
M  V30 9 C 0.118192 0.075671 -2.211428 0
M  V30 10 C -0.049253 1.435790 -2.068010 0
M  V30 11 C -0.429583 2.421210 -3.106717 0
M  V30 12 C 0.170397 1.914407 -0.788531 0
M  V30 13 C 0.530585 1.029253 0.226486 0
M  V30 14 S 0.886482 1.271047 1.953545 0
M  V30 15 H 0.917552 -3.880294 5.314525 0
M  V30 16 H 2.204687 -2.668710 5.599377 0
M  V30 17 H 0.606540 -2.492400 6.381405 0
M  V30 18 H 2.617778 -1.568542 3.616411 0
M  V30 19 H 0.556402 -1.830679 -1.514542 0
M  V30 20 H -0.061548 -0.284841 -3.238314 0
M  V30 21 H 0.187721 3.349405 -3.031943 0
M  V30 22 H -0.203545 2.011143 -4.130324 0
M  V30 23 H -1.492011 2.733493 -3.026433 0
M  V30 24 H 0.096711 2.930608 -0.454473 0
M  V30 END ATOM
M  V30 BEGIN BOND
M  V30 1 1 1 2
M  V30 2 2 2 3
M  V30 3 1 2 4
M  V30 4 1 4 5
M  V30 5 2 5 6
M  V30 6 1 6 7
M  V30 7 2 7 8
M  V30 8 1 8 9
M  V30 9 2 9 10
M  V30 10 1 10 11
M  V30 11 1 10 12
M  V30 12 2 12 13
M  V30 13 1 13 14
M  V30 14 1 14 5
M  V30 15 1 13 7
M  V30 16 1 1 15
M  V30 17 1 1 16
M  V30 18 1 1 17
M  V30 19 1 4 18
M  V30 20 1 8 19
M  V30 21 1 9 20
M  V30 22 1 11 21
M  V30 23 1 11 22
M  V30 24 1 11 23
M  V30 25 1 12 24
M  V30 END BOND
M  V30 END CTAB
M  END
>  <Dataset>  (554) 
ChEMBL_Kinases

>  <Ligand_Instance>  (554) 
nan

>  <PDB_ID>  (554) 
nan

>  <Standardized_SMILES>  (554) 
CC(=O)Nc1nc2ccc(C)cc2s1

>  <Name>  (554) 
nan

>  <Pocket>  (554) 
nan

>  <ATP_Site>  (554) 
nan

>  <Peripheral>  (554) 
nan

>  <Num_H_Atoms_ProtBoundConf>  (554) 
nan

>  <Num_Resolved_Atoms>  (554) 
nan

>  <Num_Not_Resolved_Atoms>  (554) 
nan

$$$$
CHEMBL4784231
     RDKit          3D

  0  0  0  0  0  0  0  0  0  0999 V3000
M  V30 BEGIN CTAB
M  V30 COUNTS 39 42 0 0 0
M  V30 BEGIN ATOM
M  V30 1 C 0.189541 -3.752066 -2.281379 0
M  V30 2 O 0.547880 -2.467169 -1.812285 0
M  V30 3 C 1.880087 -2.101984 -1.632927 0
M  V30 4 C 2.960463 -2.924716 -1.884288 0
M  V30 5 C 4.255306 -2.488034 -1.680972 0
M  V30 6 C 4.454501 -1.189625 -1.213036 0
M  V30 7 C 3.370254 -0.344075 -0.953728 0
M  V30 8 F 3.606205 0.923193 -0.495463 0
M  V30 9 C 2.091069 -0.818914 -1.169992 0
M  V30 10 C 0.984726 0.115250 -0.880087 0
M  V30 11 C 0.394774 0.185065 0.372780 0
M  V30 12 C -0.639787 1.082660 0.582266 0
M  V30 13 C -1.116545 1.919611 -0.406608 0
M  V30 14 C -0.483708 1.796331 -1.626470 0
M  V30 15 N 0.523498 0.936524 -1.866451 0
M  V30 16 C -2.136574 2.675322 0.131397 0
M  V30 17 N -2.238260 2.274385 1.406236 0
M  V30 18 N -1.362241 1.334621 1.689683 0
M  V30 19 C -1.288913 0.758618 2.988654 0
M  V30 20 C -0.123861 0.617903 3.714035 0
M  V30 21 C -0.079546 0.055434 4.972802 0
M  V30 22 C -1.297218 -0.381344 5.504912 0
M  V30 23 C -2.458266 -0.238208 4.775602 0
M  V30 24 N -3.684867 -0.683764 5.323952 0
M  V30 25 N -2.462638 0.323622 3.532451 0
M  V30 26 H -0.890251 -3.719916 -2.536776 0
M  V30 27 H 0.827648 -4.090117 -3.122051 0
M  V30 28 H 0.288661 -4.441460 -1.399878 0
M  V30 29 H 2.744244 -3.929469 -2.248721 0
M  V30 30 H 5.091038 -3.152349 -1.885307 0
M  V30 31 H 5.467402 -0.841798 -1.051777 0
M  V30 32 H 0.735788 -0.446510 1.164520 0
M  V30 33 H -0.823895 2.436266 -2.441661 0
M  V30 34 H -2.693695 3.419227 -0.423850 0
M  V30 35 H 0.808591 0.971349 3.264608 0
M  V30 36 H 0.878626 -0.023790 5.488721 0
M  V30 37 H -1.260115 -0.822288 6.492562 0
M  V30 38 H -4.015934 -0.246831 6.217071 0
M  V30 39 H -4.457024 -1.361758 5.137567 0
M  V30 END ATOM
M  V30 BEGIN BOND
M  V30 1 1 1 2
M  V30 2 1 2 3
M  V30 3 2 3 4
M  V30 4 1 4 5
M  V30 5 2 5 6
M  V30 6 1 6 7
M  V30 7 1 7 8
M  V30 8 2 7 9
M  V30 9 1 9 10
M  V30 10 2 10 11
M  V30 11 1 11 12
M  V30 12 2 12 13
M  V30 13 1 13 14
M  V30 14 2 14 15
M  V30 15 1 13 16
M  V30 16 2 16 17
M  V30 17 1 17 18
M  V30 18 1 18 19
M  V30 19 2 19 20
M  V30 20 1 20 21
M  V30 21 2 21 22
M  V30 22 1 22 23
M  V30 23 1 23 24
M  V30 24 2 23 25
M  V30 25 1 9 3
M  V30 26 1 15 10
M  V30 27 1 25 19
M  V30 28 1 18 12
M  V30 29 1 1 26
M  V30 30 1 1 27
M  V30 31 1 1 28
M  V30 32 1 4 29
M  V30 33 1 5 30
M  V30 34 1 6 31
M  V30 35 1 11 32
M  V30 36 1 14 33
M  V30 37 1 16 34
M  V30 38 1 20 35
M  V30 39 1 21 36
M  V30 40 1 22 37
M  V30 41 1 24 38
M  V30 42 1 24 39
M  V30 END BOND
M  V30 END CTAB
M  END
>  <Dataset>  (555) 
ChEMBL_Kinases

>  <Ligand_Instance>  (555) 
nan

>  <PDB_ID>  (555) 
nan

>  <Standardized_SMILES>  (555) 
COc1cccc(F)c1-c1cc2c(cn1)cnn2-c1cccc(N)n1

>  <Name>  (555) 
nan

>  <Pocket>  (555) 
nan

>  <ATP_Site>  (555) 
nan

>  <Peripheral>  (555) 
nan

>  <Num_H_Atoms_ProtBoundConf>  (555) 
nan

>  <Num_Resolved_Atoms>  (555) 
nan

>  <Num_Not_Resolved_Atoms>  (555) 
nan

$$$$
CHEMBL4784528
     RDKit          3D

  0  0  0  0  0  0  0  0  0  0999 V3000
M  V30 BEGIN CTAB
M  V30 COUNTS 74 77 0 0 0
M  V30 BEGIN ATOM
M  V30 1 C 4.360149 4.546415 2.409250 0
M  V30 2 N 3.765047 3.218197 2.551428 0
M  V30 3 C 4.537433 2.206785 1.938982 0
M  V30 4 O 5.635985 2.426980 1.334129 0
M  V30 5 C 4.293092 0.765875 1.849001 0 CFG=2
M  V30 6 C 4.354289 0.344926 0.366448 0
M  V30 7 C 3.283494 1.084417 -0.390372 0
M  V30 8 C 3.317354 0.707137 -1.829224 0
M  V30 9 C 4.602347 1.037424 -2.509898 0
M  V30 10 C 4.609514 0.252765 -3.829105 0
M  V30 11 C 3.466768 0.727572 -4.674502 0
M  V30 12 C 2.140524 0.766330 -3.991228 0
M  V30 13 C 2.165915 1.307046 -2.597169 0
M  V30 14 N 3.089809 0.303878 2.457372 0
M  V30 15 C 2.394423 -0.579056 3.287888 0
M  V30 16 O 3.165617 -1.460423 3.800084 0
M  V30 17 C 0.970093 -0.479370 3.516366 0
M  V30 18 C 0.179092 0.587292 3.160463 0
M  V30 19 C -1.177354 0.599530 3.395237 0
M  V30 20 C -1.752556 -0.520410 4.017405 0
M  V30 21 C -3.226755 -0.374168 4.211515 0
M  V30 22 N -3.845437 -0.806058 2.977608 0
M  V30 23 C -4.043092 -2.129980 2.511786 0
M  V30 24 O -3.655829 -3.089820 3.216256 0
M  V30 25 C -4.694207 -2.319304 1.218006 0
M  V30 26 C -5.137733 -1.328484 0.366664 0
M  V30 27 N -5.664899 -1.928938 -0.714277 0
M  V30 28 N -5.570831 -3.256916 -0.576506 0
M  V30 29 C -6.041874 -4.167175 -1.563003 0
M  V30 30 C -6.969753 -5.178448 -1.437072 0
M  V30 31 C -7.294814 -5.960532 -2.527179 0
M  V30 32 C -6.699836 -5.744460 -3.757412 0
M  V30 33 C -5.753069 -4.732159 -3.937860 0
M  V30 34 C -5.456672 -3.973187 -2.820351 0
M  V30 35 C -4.978868 -3.518195 0.601629 0
M  V30 36 N -4.691228 -4.827844 1.129071 0
M  V30 37 C -0.945104 -1.593200 4.373514 0
M  V30 38 C 0.410194 -1.573929 4.124853 0
M  V30 39 H 3.729629 5.310261 2.874668 0
M  V30 40 H 4.506622 4.747665 1.321235 0
M  V30 41 H 5.359476 4.503076 2.887029 0
M  V30 42 H 2.896355 2.859327 3.007274 0
M  V30 43 H 5.128701 0.164209 2.307715 0
M  V30 44 H 5.362219 0.546184 -0.025341 0
M  V30 45 H 4.227031 -0.757521 0.304640 0
M  V30 46 H 2.276039 0.819924 0.010263 0
M  V30 47 H 3.424723 2.174270 -0.212922 0
M  V30 48 H 3.234776 -0.424897 -1.854548 0
M  V30 49 H 5.518800 0.805601 -1.971531 0
M  V30 50 H 4.562294 2.113285 -2.826284 0
M  V30 51 H 4.481601 -0.830683 -3.641902 0
M  V30 52 H 5.541126 0.485874 -4.386834 0
M  V30 53 H 3.392978 -0.010497 -5.523396 0
M  V30 54 H 3.706097 1.693424 -5.185391 0
M  V30 55 H 1.491300 1.468248 -4.591637 0
M  V30 56 H 1.641406 -0.223667 -4.026648 0
M  V30 57 H 2.262822 2.403595 -2.554890 0
M  V30 58 H 1.207663 1.036278 -2.104162 0
M  V30 59 H 2.445805 1.021115 2.014100 0
M  V30 60 H 0.628990 1.447107 2.685587 0
M  V30 61 H -1.753653 1.471570 3.095243 0
M  V30 62 H -3.542562 -1.019335 5.061498 0
M  V30 63 H -3.436708 0.653969 4.481422 0
M  V30 64 H -4.174676 -0.016372 2.376205 0
M  V30 65 H -5.060565 -0.258671 0.560097 0
M  V30 66 H -7.375872 -5.265038 -0.440093 0
M  V30 67 H -8.033040 -6.745532 -2.377359 0
M  V30 68 H -6.949118 -6.352524 -4.621335 0
M  V30 69 H -5.284119 -4.559308 -4.893642 0
M  V30 70 H -4.708910 -3.190191 -3.011413 0
M  V30 71 H -5.443566 -5.401079 1.617576 0
M  V30 72 H -3.678173 -4.997320 0.911431 0
M  V30 73 H -1.472656 -2.397573 4.841149 0
M  V30 74 H 0.982150 -2.430494 4.423865 0
M  V30 END ATOM
M  V30 BEGIN BOND
M  V30 1 1 1 2
M  V30 2 1 2 3
M  V30 3 2 3 4
M  V30 4 1 3 5
M  V30 5 1 5 6
M  V30 6 1 6 7
M  V30 7 1 7 8
M  V30 8 1 8 9
M  V30 9 1 9 10
M  V30 10 1 10 11
M  V30 11 1 11 12
M  V30 12 1 12 13
M  V30 13 1 5 14
M  V30 14 1 14 15
M  V30 15 2 15 16
M  V30 16 1 15 17
M  V30 17 2 17 18
M  V30 18 1 18 19
M  V30 19 2 19 20
M  V30 20 1 20 21
M  V30 21 1 21 22
M  V30 22 1 22 23
M  V30 23 2 23 24
M  V30 24 1 23 25
M  V30 25 1 25 26
M  V30 26 2 26 27
M  V30 27 1 27 28
M  V30 28 1 28 29
M  V30 29 2 29 30
M  V30 30 1 30 31
M  V30 31 2 31 32
M  V30 32 1 32 33
M  V30 33 2 33 34
M  V30 34 1 28 35
M  V30 35 1 35 36
M  V30 36 1 20 37
M  V30 37 2 37 38
M  V30 38 1 13 8
M  V30 39 1 38 17
M  V30 40 2 35 25
M  V30 41 1 34 29
M  V30 42 1 1 39
M  V30 43 1 1 40
M  V30 44 1 1 41
M  V30 45 1 2 42
M  V30 46 1 5 43 CFG=1
M  V30 47 1 6 44
M  V30 48 1 6 45
M  V30 49 1 7 46
M  V30 50 1 7 47
M  V30 51 1 8 48
M  V30 52 1 9 49
M  V30 53 1 9 50
M  V30 54 1 10 51
M  V30 55 1 10 52
M  V30 56 1 11 53
M  V30 57 1 11 54
M  V30 58 1 12 55
M  V30 59 1 12 56
M  V30 60 1 13 57
M  V30 61 1 13 58
M  V30 62 1 14 59
M  V30 63 1 18 60
M  V30 64 1 19 61
M  V30 65 1 21 62
M  V30 66 1 21 63
M  V30 67 1 22 64
M  V30 68 1 26 65
M  V30 69 1 30 66
M  V30 70 1 31 67
M  V30 71 1 32 68
M  V30 72 1 33 69
M  V30 73 1 34 70
M  V30 74 1 36 71
M  V30 75 1 36 72
M  V30 76 1 37 73
M  V30 77 1 38 74
M  V30 END BOND
M  V30 END CTAB
M  END
>  <Dataset>  (556) 
ChEMBL_Kinases

>  <Ligand_Instance>  (556) 
nan

>  <PDB_ID>  (556) 
nan

>  <Standardized_SMILES>  (556) 
CNC(=O)[C@H](CCC1CCCCC1)NC(=O)c1ccc(CNC(=O)c2cnn(-c3ccccc3)c2N)cc1

>  <Name>  (556) 
nan

>  <Pocket>  (556) 
nan

>  <ATP_Site>  (556) 
nan

>  <Peripheral>  (556) 
nan

>  <Num_H_Atoms_ProtBoundConf>  (556) 
nan

>  <Num_Resolved_Atoms>  (556) 
nan

>  <Num_Not_Resolved_Atoms>  (556) 
nan

$$$$
CHEMBL4784254
     RDKit          3D

  0  0  0  0  0  0  0  0  0  0999 V3000
M  V30 BEGIN CTAB
M  V30 COUNTS 50 54 0 0 0
M  V30 BEGIN ATOM
M  V30 1 O -2.914178 -0.805606 0.974164 0
M  V30 2 C -2.280515 -1.609807 0.241421 0
M  V30 3 N -0.910690 -1.775239 0.011371 0
M  V30 4 C 0.106326 -0.864952 0.729819 0
M  V30 5 N 0.415757 0.179425 0.148326 0
M  V30 6 C 1.266317 1.055691 0.629548 0
M  V30 7 C 1.666266 2.303657 -0.003436 0
M  V30 8 C 0.633327 3.134771 -0.457570 0
M  V30 9 C 0.900585 4.324235 -1.090733 0
M  V30 10 N 2.154045 4.747801 -1.304936 0
M  V30 11 C 3.180821 3.965212 -0.876954 0
M  V30 12 C 2.941497 2.767285 -0.239447 0
M  V30 13 C 1.847319 0.816047 1.835008 0
M  V30 14 N 2.732730 1.290022 2.869192 0
M  V30 15 C 3.127171 0.541036 4.016845 0
M  V30 16 C 4.590478 0.892313 4.319234 0
M  V30 17 O 4.683341 2.214034 4.761776 0
M  V30 18 C 3.573632 2.957369 4.359433 0
M  V30 19 C 3.316909 2.597301 2.887643 0
M  V30 20 S 1.017226 -0.849118 2.207387 0
M  V30 21 C -3.205865 -2.501877 -0.467621 0
M  V30 22 C -4.179233 -3.198606 0.449325 0
M  V30 23 O -4.384685 -4.547937 0.165994 0
M  V30 24 C -4.055311 -5.215422 -0.982871 0
M  V30 25 C -4.582678 -6.402403 -1.443206 0
M  V30 26 C -4.169946 -6.972549 -2.611540 0
M  V30 27 C -3.190672 -6.342744 -3.361857 0
M  V30 28 C -2.633712 -5.143541 -2.931298 0
M  V30 29 C -3.091774 -4.611216 -1.737038 0
M  V30 30 O -2.543589 -3.430772 -1.313249 0
M  V30 31 H -0.557469 -2.496677 -0.631920 0
M  V30 32 H -0.420704 2.862153 -0.321871 0
M  V30 33 H 0.166315 5.019250 -1.469258 0
M  V30 34 H 4.227501 4.226084 -1.006037 0
M  V30 35 H 3.731654 2.142002 0.089970 0
M  V30 36 H 3.125700 -0.552937 3.824790 0
M  V30 37 H 2.555506 0.712619 4.933350 0
M  V30 38 H 5.028432 0.248653 5.082656 0
M  V30 39 H 5.116285 0.849857 3.345621 0
M  V30 40 H 2.671456 2.738834 4.947406 0
M  V30 41 H 3.826504 4.017228 4.485188 0
M  V30 42 H 4.274116 2.593433 2.362001 0
M  V30 43 H 2.582380 3.354867 2.542806 0
M  V30 44 H -3.815153 -1.870980 -1.157239 0
M  V30 45 H -3.808846 -3.134177 1.502337 0
M  V30 46 H -5.177410 -2.690691 0.461062 0
M  V30 47 H -5.351883 -6.856758 -0.813616 0
M  V30 48 H -4.589902 -7.911396 -2.971468 0
M  V30 49 H -2.827728 -6.756549 -4.299744 0
M  V30 50 H -1.866132 -4.650663 -3.521501 0
M  V30 END ATOM
M  V30 BEGIN BOND
M  V30 1 2 1 2
M  V30 2 1 2 3
M  V30 3 1 3 4
M  V30 4 2 4 5
M  V30 5 1 5 6
M  V30 6 1 6 7
M  V30 7 2 7 8
M  V30 8 1 8 9
M  V30 9 2 9 10
M  V30 10 1 10 11
M  V30 11 2 11 12
M  V30 12 2 6 13
M  V30 13 1 13 14
M  V30 14 1 14 15
M  V30 15 1 15 16
M  V30 16 1 16 17
M  V30 17 1 17 18
M  V30 18 1 18 19
M  V30 19 1 13 20
M  V30 20 1 2 21
M  V30 21 1 21 22
M  V30 22 1 22 23
M  V30 23 1 23 24
M  V30 24 2 24 25
M  V30 25 1 25 26
M  V30 26 2 26 27
M  V30 27 1 27 28
M  V30 28 2 28 29
M  V30 29 1 29 30
M  V30 30 1 20 4
M  V30 31 1 30 21
M  V30 32 1 12 7
M  V30 33 1 19 14
M  V30 34 1 29 24
M  V30 35 1 3 31
M  V30 36 1 8 32
M  V30 37 1 9 33
M  V30 38 1 11 34
M  V30 39 1 12 35
M  V30 40 1 15 36
M  V30 41 1 15 37
M  V30 42 1 16 38
M  V30 43 1 16 39
M  V30 44 1 18 40
M  V30 45 1 18 41
M  V30 46 1 19 42
M  V30 47 1 19 43
M  V30 48 1 21 44
M  V30 49 1 22 45
M  V30 50 1 22 46
M  V30 51 1 25 47
M  V30 52 1 26 48
M  V30 53 1 27 49
M  V30 54 1 28 50
M  V30 END BOND
M  V30 END CTAB
M  END
>  <Dataset>  (557) 
ChEMBL_Kinases

>  <Ligand_Instance>  (557) 
nan

>  <PDB_ID>  (557) 
nan

>  <Standardized_SMILES>  (557) 
O=C(Nc1nc(-c2ccncc2)c(N2CCOCC2)s1)C1COc2ccccc2O1

>  <Name>  (557) 
nan

>  <Pocket>  (557) 
nan

>  <ATP_Site>  (557) 
nan

>  <Peripheral>  (557) 
nan

>  <Num_H_Atoms_ProtBoundConf>  (557) 
nan

>  <Num_Resolved_Atoms>  (557) 
nan

>  <Num_Not_Resolved_Atoms>  (557) 
nan

$$$$
CHEMBL4203890
     RDKit          3D

  0  0  0  0  0  0  0  0  0  0999 V3000
M  V30 BEGIN CTAB
M  V30 COUNTS 38 41 0 0 0
M  V30 BEGIN ATOM
M  V30 1 C 1.165730 -2.471037 4.564488 0
M  V30 2 C 1.268627 -2.083394 3.144019 0
M  V30 3 O 0.635869 -2.871880 2.382077 0
M  V30 4 O 1.931149 -1.026119 2.562416 0
M  V30 5 C 1.914221 -0.821033 1.195371 0
M  V30 6 N 2.885255 -1.399974 0.439303 0
M  V30 7 C 2.724451 -1.102159 -0.864948 0
M  V30 8 C 3.366966 -1.389118 -2.045770 0
M  V30 9 C 2.946552 -0.918969 -3.272286 0
M  V30 10 C 1.811480 -0.110405 -3.321605 0
M  V30 11 C 1.116360 0.215539 -2.153760 0
M  V30 12 C 1.602671 -0.295600 -0.966510 0
M  V30 13 C 1.092564 -0.115077 0.305639 0
M  V30 14 C -0.051942 0.620571 0.819338 0
M  V30 15 C 0.192892 1.952258 1.178834 0
M  V30 16 C -0.859135 2.706159 1.675556 0
M  V30 17 C -2.124325 2.166415 1.816969 0
M  V30 18 C -2.380226 0.839719 1.461766 0
M  V30 19 C -3.640339 0.306441 1.603951 0
M  V30 20 C -3.787745 -1.011943 1.224636 0
M  V30 21 C -2.764074 -1.808628 0.721411 0
M  V30 22 C -1.527281 -1.219117 0.602696 0
M  V30 23 C -1.324381 0.106698 0.970689 0
M  V30 24 H 0.162954 -2.307198 5.002093 0
M  V30 25 H 1.959790 -1.919000 5.125320 0
M  V30 26 H 1.467872 -3.546020 4.633967 0
M  V30 27 H 3.684215 -2.000465 0.695969 0
M  V30 28 H 4.247767 -2.017299 -2.002323 0
M  V30 29 H 3.451754 -1.144441 -4.201850 0
M  V30 30 H 1.400681 0.308688 -4.234757 0
M  V30 31 H 0.234904 0.843932 -2.195617 0
M  V30 32 H 1.182378 2.392334 1.073889 0
M  V30 33 H -0.643194 3.741391 1.948711 0
M  V30 34 H -2.929000 2.773094 2.206367 0
M  V30 35 H -4.470028 0.877844 1.988406 0
M  V30 36 H -4.794181 -1.444595 1.336054 0
M  V30 37 H -2.965046 -2.833690 0.447753 0
M  V30 38 H -0.711485 -1.815059 0.213919 0
M  V30 END ATOM
M  V30 BEGIN BOND
M  V30 1 1 1 2
M  V30 2 2 2 3
M  V30 3 1 2 4
M  V30 4 1 4 5
M  V30 5 1 5 6
M  V30 6 1 6 7
M  V30 7 2 7 8
M  V30 8 1 8 9
M  V30 9 2 9 10
M  V30 10 1 10 11
M  V30 11 2 11 12
M  V30 12 1 12 13
M  V30 13 1 13 14
M  V30 14 2 14 15
M  V30 15 1 15 16
M  V30 16 2 16 17
M  V30 17 1 17 18
M  V30 18 2 18 19
M  V30 19 1 19 20
M  V30 20 2 20 21
M  V30 21 1 21 22
M  V30 22 2 22 23
M  V30 23 2 13 5
M  V30 24 1 23 14
M  V30 25 1 12 7
M  V30 26 1 23 18
M  V30 27 1 1 24
M  V30 28 1 1 25
M  V30 29 1 1 26
M  V30 30 1 6 27
M  V30 31 1 8 28
M  V30 32 1 9 29
M  V30 33 1 10 30
M  V30 34 1 11 31
M  V30 35 1 15 32
M  V30 36 1 16 33
M  V30 37 1 17 34
M  V30 38 1 19 35
M  V30 39 1 20 36
M  V30 40 1 21 37
M  V30 41 1 22 38
M  V30 END BOND
M  V30 END CTAB
M  END
>  <Dataset>  (558) 
ChEMBL_Kinases

>  <Ligand_Instance>  (558) 
nan

>  <PDB_ID>  (558) 
nan

>  <Standardized_SMILES>  (558) 
CC(=O)Oc1[nH]c2ccccc2c1-c1cccc2ccccc12

>  <Name>  (558) 
nan

>  <Pocket>  (558) 
nan

>  <ATP_Site>  (558) 
nan

>  <Peripheral>  (558) 
nan

>  <Num_H_Atoms_ProtBoundConf>  (558) 
nan

>  <Num_Resolved_Atoms>  (558) 
nan

>  <Num_Not_Resolved_Atoms>  (558) 
nan

$$$$
CHEMBL4784340
     RDKit          3D

  0  0  0  0  0  0  0  0  0  0999 V3000
M  V30 BEGIN CTAB
M  V30 COUNTS 68 72 0 0 0
M  V30 BEGIN ATOM
M  V30 1 C 6.644951 -3.935868 0.417282 0
M  V30 2 O 5.855829 -3.031661 -0.323429 0
M  V30 3 C 4.683020 -2.544188 0.269295 0
M  V30 4 C 4.385607 -2.985543 1.537030 0
M  V30 5 C 3.244219 -2.554486 2.200396 0
M  V30 6 C 2.449723 -1.681335 1.529328 0
M  V30 7 C 2.681267 -1.195439 0.260868 0
M  V30 8 C 1.860783 -0.261534 -0.498136 0
M  V30 9 N 2.071741 1.032008 -0.879883 0
M  V30 10 C 1.008772 1.477795 -1.571377 0
M  V30 11 C 0.816392 2.799882 -2.161438 0
M  V30 12 C -0.344302 3.093730 -2.844766 0
M  V30 13 C -0.631657 4.309472 -3.440191 0
M  V30 14 C 0.351273 5.277623 -3.315508 0
M  V30 15 C 1.520532 5.001503 -2.634657 0
M  V30 16 C 1.780575 3.775670 -2.048823 0
M  V30 17 N 0.149039 0.450417 -1.610042 0
M  V30 18 C 0.624361 -0.655965 -0.959911 0
M  V30 19 C -0.224400 -1.838360 -0.945563 0
M  V30 20 C -0.591359 -2.311624 -2.206003 0
M  V30 21 C -1.389538 -3.405896 -2.456366 0
M  V30 22 N -1.839122 -4.054812 -1.365646 0
M  V30 23 C -1.510786 -3.635101 -0.124127 0
M  V30 24 N -2.057532 -4.420260 0.918535 0
M  V30 25 C -3.087887 -4.717289 1.879723 0
M  V30 26 C -3.271814 -3.751704 2.984702 0
M  V30 27 C -3.646452 -2.348846 2.634213 0
M  V30 28 N -3.793828 -1.558408 3.869955 0
M  V30 29 S -4.231204 0.039681 3.440150 0
M  V30 30 O -5.534025 0.043898 2.644713 0
M  V30 31 O -4.543118 0.833469 4.703987 0
M  V30 32 C -3.068245 0.872755 2.477009 0
M  V30 33 C -3.005500 1.017395 1.109682 0
M  V30 34 C -1.984919 1.733499 0.550136 0
M  V30 35 C -0.996323 2.330131 1.283021 0
M  V30 36 C -1.038474 2.199400 2.641517 0
M  V30 37 F -0.054209 2.792590 3.379454 0
M  V30 38 C -2.065643 1.476143 3.245678 0
M  V30 39 C -0.715613 -2.544197 0.129162 0
M  V30 40 C 3.841449 -1.653154 -0.375170 0
M  V30 41 H 7.474643 -4.272385 -0.236781 0
M  V30 42 H 7.021676 -3.396380 1.302282 0
M  V30 43 H 6.021100 -4.809231 0.749272 0
M  V30 44 H 5.001658 -3.692912 2.117779 0
M  V30 45 H 3.004254 -2.889033 3.182805 0
M  V30 46 H 1.552821 -1.315279 2.007996 0
M  V30 47 H -1.145706 2.357491 -2.966351 0
M  V30 48 H -1.558969 4.492440 -3.966040 0
M  V30 49 H 0.149599 6.247199 -3.778148 0
M  V30 50 H 2.257703 5.789497 -2.564510 0
M  V30 51 H 2.686782 3.540043 -1.512763 0
M  V30 52 H -0.777994 0.558050 -2.112970 0
M  V30 53 H -0.243033 -1.807528 -3.119423 0
M  V30 54 H -1.638484 -3.722801 -3.453673 0
M  V30 55 H -1.229132 -5.103036 0.945713 0
M  V30 56 H -2.818524 -5.703065 2.361533 0
M  V30 57 H -4.050064 -4.944501 1.342663 0
M  V30 58 H -4.126817 -4.149658 3.613824 0
M  V30 59 H -2.414439 -3.767910 3.722266 0
M  V30 60 H -4.614060 -2.278957 2.110830 0
M  V30 61 H -2.893591 -1.821218 2.023015 0
M  V30 62 H -4.482616 -2.003526 4.499365 0
M  V30 63 H -3.819073 0.518866 0.596482 0
M  V30 64 H -2.056073 1.774649 -0.526807 0
M  V30 65 H -0.207602 2.888451 0.780197 0
M  V30 66 H -1.989726 1.442812 4.343351 0
M  V30 67 H -0.449965 -2.199544 1.090231 0
M  V30 68 H 4.184825 -1.384792 -1.362171 0
M  V30 END ATOM
M  V30 BEGIN BOND
M  V30 1 1 1 2
M  V30 2 1 2 3
M  V30 3 2 3 4
M  V30 4 1 4 5
M  V30 5 2 5 6
M  V30 6 1 6 7
M  V30 7 1 7 8
M  V30 8 1 8 9
M  V30 9 2 9 10
M  V30 10 1 10 11
M  V30 11 2 11 12
M  V30 12 1 12 13
M  V30 13 2 13 14
M  V30 14 1 14 15
M  V30 15 2 15 16
M  V30 16 1 10 17
M  V30 17 1 17 18
M  V30 18 1 18 19
M  V30 19 2 19 20
M  V30 20 1 20 21
M  V30 21 2 21 22
M  V30 22 1 22 23
M  V30 23 1 23 24
M  V30 24 1 24 25
M  V30 25 1 25 26
M  V30 26 1 26 27
M  V30 27 1 27 28
M  V30 28 1 28 29
M  V30 29 2 29 30
M  V30 30 2 29 31
M  V30 31 1 29 32
M  V30 32 2 32 33
M  V30 33 1 33 34
M  V30 34 2 34 35
M  V30 35 1 35 36
M  V30 36 1 36 37
M  V30 37 2 36 38
M  V30 38 2 23 39
M  V30 39 2 7 40
M  V30 40 1 40 3
M  V30 41 2 18 8
M  V30 42 1 39 19
M  V30 43 1 16 11
M  V30 44 1 38 32
M  V30 45 1 1 41
M  V30 46 1 1 42
M  V30 47 1 1 43
M  V30 48 1 4 44
M  V30 49 1 5 45
M  V30 50 1 6 46
M  V30 51 1 12 47
M  V30 52 1 13 48
M  V30 53 1 14 49
M  V30 54 1 15 50
M  V30 55 1 16 51
M  V30 56 1 17 52
M  V30 57 1 20 53
M  V30 58 1 21 54
M  V30 59 1 24 55
M  V30 60 1 25 56
M  V30 61 1 25 57
M  V30 62 1 26 58
M  V30 63 1 26 59
M  V30 64 1 27 60
M  V30 65 1 27 61
M  V30 66 1 28 62
M  V30 67 1 33 63
M  V30 68 1 34 64
M  V30 69 1 35 65
M  V30 70 1 38 66
M  V30 71 1 39 67
M  V30 72 1 40 68
M  V30 END BOND
M  V30 END CTAB
M  END
>  <Dataset>  (559) 
ChEMBL_Kinases

>  <Ligand_Instance>  (559) 
nan

>  <PDB_ID>  (559) 
nan

>  <Standardized_SMILES>  (559) 
COc1cccc(-c2nc(-c3ccccc3)[nH]c2-c2ccnc(NCCCNS(=O)(=O)c3cccc(F)c3)c2)c1

>  <Name>  (559) 
nan

>  <Pocket>  (559) 
nan

>  <ATP_Site>  (559) 
nan

>  <Peripheral>  (559) 
nan

>  <Num_H_Atoms_ProtBoundConf>  (559) 
nan

>  <Num_Resolved_Atoms>  (559) 
nan

>  <Num_Not_Resolved_Atoms>  (559) 
nan

$$$$
CHEMBL4203779
     RDKit          3D

  0  0  0  0  0  0  0  0  0  0999 V3000
M  V30 BEGIN CTAB
M  V30 COUNTS 41 43 0 0 0
M  V30 BEGIN ATOM
M  V30 1 C 0.924429 -5.371224 0.095535 0
M  V30 2 N 1.175385 -4.405040 -0.972844 0
M  V30 3 C 0.121603 -3.783123 -1.785401 0
M  V30 4 C 0.926318 -3.280767 -2.982832 0
M  V30 5 C 2.210429 -2.806584 -2.294923 0 CFG=1
M  V30 6 O 3.207143 -2.588567 -3.210718 0
M  V30 7 C 1.972461 -1.555880 -1.560364 0
M  V30 8 C 1.794437 -0.517786 -0.961461 0
M  V30 9 C 1.588699 0.731812 -0.251744 0
M  V30 10 C 2.289656 1.883934 -0.614027 0
M  V30 11 C 2.018006 3.017654 0.126893 0
M  V30 12 N 1.128046 3.000547 1.136243 0
M  V30 13 C 0.466282 1.874765 1.463796 0
M  V30 14 N -0.468211 1.899907 2.540056 0
M  V30 15 N -1.188006 0.878362 2.973455 0
M  V30 16 C -1.966335 1.245612 4.001487 0
M  V30 17 C -2.892689 0.387050 4.732616 0
M  V30 18 N -3.659247 0.913703 5.807834 0
M  V30 19 O -3.019710 -0.824175 4.417242 0
M  V30 20 C -1.734491 2.578601 4.243444 0
M  V30 21 C -0.784544 2.954707 3.302026 0
M  V30 22 N -0.211654 4.248607 3.139823 0
M  V30 23 C 0.679835 0.697822 0.772770 0
M  V30 24 C 2.460962 -3.939931 -1.367478 0
M  V30 25 O 3.585149 -4.396821 -1.003927 0
M  V30 26 H -0.119638 -5.343193 0.435583 0
M  V30 27 H 1.133394 -6.412678 -0.237393 0
M  V30 28 H 1.608527 -5.106452 0.928992 0
M  V30 29 H -0.385272 -2.979785 -1.250077 0
M  V30 30 H -0.591560 -4.550658 -2.139361 0
M  V30 31 H 1.175654 -4.116348 -3.637468 0
M  V30 32 H 0.405914 -2.441265 -3.468181 0
M  V30 33 H 3.869459 -3.324032 -3.173763 0
M  V30 34 H 2.963849 1.751422 -1.434003 0
M  V30 35 H 2.592328 3.893568 -0.195799 0
M  V30 36 H -3.555964 0.425490 6.739429 0
M  V30 37 H -4.343205 1.662839 6.046816 0
M  V30 38 H -2.167129 3.233047 4.986020 0
M  V30 39 H -0.621875 5.213653 3.038850 0
M  V30 40 H 0.833095 4.339823 3.104400 0
M  V30 41 H 0.131304 -0.184665 1.063536 0
M  V30 END ATOM
M  V30 BEGIN BOND
M  V30 1 1 1 2
M  V30 2 1 2 3
M  V30 3 1 3 4
M  V30 4 1 4 5
M  V30 5 1 5 6
M  V30 6 1 5 7 CFG=1
M  V30 7 3 7 8
M  V30 8 1 8 9
M  V30 9 2 9 10
M  V30 10 1 10 11
M  V30 11 2 11 12
M  V30 12 1 12 13
M  V30 13 1 13 14
M  V30 14 1 14 15
M  V30 15 2 15 16
M  V30 16 1 16 17
M  V30 17 1 17 18
M  V30 18 2 17 19
M  V30 19 1 16 20
M  V30 20 2 20 21
M  V30 21 1 21 22
M  V30 22 2 13 23
M  V30 23 1 5 24
M  V30 24 2 24 25
M  V30 25 1 24 2
M  V30 26 1 23 9
M  V30 27 1 21 14
M  V30 28 1 1 26
M  V30 29 1 1 27
M  V30 30 1 1 28
M  V30 31 1 3 29
M  V30 32 1 3 30
M  V30 33 1 4 31
M  V30 34 1 4 32
M  V30 35 1 6 33
M  V30 36 1 10 34
M  V30 37 1 11 35
M  V30 38 1 18 36
M  V30 39 1 18 37
M  V30 40 1 20 38
M  V30 41 1 22 39
M  V30 42 1 22 40
M  V30 43 1 23 41
M  V30 END BOND
M  V30 END CTAB
M  END
>  <Dataset>  (560) 
ChEMBL_Kinases

>  <Ligand_Instance>  (560) 
nan

>  <PDB_ID>  (560) 
nan

>  <Standardized_SMILES>  (560) 
CN1CC[C@@](O)(C#Cc2ccnc(-n3nc(C(N)=O)cc3N)c2)C1=O

>  <Name>  (560) 
nan

>  <Pocket>  (560) 
nan

>  <ATP_Site>  (560) 
nan

>  <Peripheral>  (560) 
nan

>  <Num_H_Atoms_ProtBoundConf>  (560) 
nan

>  <Num_Resolved_Atoms>  (560) 
nan

>  <Num_Not_Resolved_Atoms>  (560) 
nan

$$$$
CHEMBL4784363
     RDKit          3D

  0  0  0  0  0  0  0  0  0  0999 V3000
M  V30 BEGIN CTAB
M  V30 COUNTS 59 62 0 0 0
M  V30 BEGIN ATOM
M  V30 1 C 1.636401 2.888299 7.324012 0
M  V30 2 C 2.380039 2.032436 6.364797 0
M  V30 3 O 2.903485 1.026447 6.931684 0
M  V30 4 N 2.519084 2.268815 4.965337 0
M  V30 5 C 3.261256 1.373381 4.134988 0 CFG=2
M  V30 6 C 4.453041 2.082590 3.529215 0
M  V30 7 C 5.279850 1.117913 2.733322 0
M  V30 8 C 4.401817 0.576514 1.607703 0
M  V30 9 C 3.269512 -0.180950 2.284753 0 CFG=2
M  V30 10 C 2.540770 -1.019803 1.298715 0
M  V30 11 O 2.508843 -2.263411 1.489101 0
M  V30 12 N 1.922178 -0.380354 0.200138 0
M  V30 13 C 1.248079 -1.307937 -0.682604 0
M  V30 14 C -0.083211 -1.657637 -0.503675 0
M  V30 15 C -0.605618 -2.552724 -1.416315 0
M  V30 16 C -1.999518 -2.965802 -1.289871 0
M  V30 17 C -2.381001 -4.071523 -0.535073 0
M  V30 18 N -3.705909 -4.173422 -0.625827 0
M  V30 19 N -4.110021 -3.183006 -1.394616 0
M  V30 20 C -3.107585 -2.403995 -1.835199 0
M  V30 21 C -3.635037 -1.315479 -2.690494 0
M  V30 22 C -4.897032 -1.982245 -3.219252 0
M  V30 23 C -4.590312 -3.029326 -4.254603 0
M  V30 24 C -5.898304 -1.023953 -3.770431 0
M  V30 25 C -5.376125 -2.661790 -1.930118 0
M  V30 26 C 0.176052 -3.054638 -2.438571 0
M  V30 27 C -0.444879 -3.993572 -3.361270 0
M  V30 28 N -0.932684 -4.749796 -4.119040 0
M  V30 29 C 1.502854 -2.688928 -2.594602 0
M  V30 30 N 2.016621 -1.804843 -1.692130 0
M  V30 31 C 2.408892 0.805766 3.002517 0
M  V30 32 H 1.476514 3.909917 6.948155 0
M  V30 33 H 0.659328 2.476664 7.619405 0
M  V30 34 H 2.218813 3.002358 8.277447 0
M  V30 35 H 2.056237 3.115974 4.594478 0
M  V30 36 H 3.670349 0.536266 4.734185 0
M  V30 37 H 4.081095 2.868819 2.846105 0
M  V30 38 H 5.067035 2.533958 4.331338 0
M  V30 39 H 6.182066 1.603690 2.337090 0
M  V30 40 H 5.536605 0.246399 3.373060 0
M  V30 41 H 4.952739 -0.140619 0.967940 0
M  V30 42 H 4.044509 1.390286 0.952185 0
M  V30 43 H 3.766036 -0.797801 3.064384 0
M  V30 44 H 1.998517 0.675496 0.116112 0
M  V30 45 H -0.643701 -1.229013 0.318470 0
M  V30 46 H -1.793998 -4.781703 0.053133 0
M  V30 47 H -3.970863 -0.427949 -2.113581 0
M  V30 48 H -2.945919 -0.987399 -3.476471 0
M  V30 49 H -5.541790 -3.625124 -4.377421 0
M  V30 50 H -4.456713 -2.510096 -5.235415 0
M  V30 51 H -3.772260 -3.710553 -3.996634 0
M  V30 52 H -5.403842 -0.260615 -4.391704 0
M  V30 53 H -6.582821 -1.639729 -4.424224 0
M  V30 54 H -6.536855 -0.527955 -2.996556 0
M  V30 55 H -5.764614 -1.920010 -1.220014 0
M  V30 56 H -6.094391 -3.459387 -2.153792 0
M  V30 57 H 2.114629 -3.088499 -3.403408 0
M  V30 58 H 2.193501 1.657320 2.316619 0
M  V30 59 H 1.497126 0.367344 3.436071 0
M  V30 END ATOM
M  V30 BEGIN BOND
M  V30 1 1 1 2
M  V30 2 2 2 3
M  V30 3 1 2 4
M  V30 4 1 4 5
M  V30 5 1 5 6
M  V30 6 1 6 7
M  V30 7 1 7 8
M  V30 8 1 8 9
M  V30 9 1 9 10
M  V30 10 2 10 11
M  V30 11 1 10 12
M  V30 12 1 12 13
M  V30 13 2 13 14
M  V30 14 1 14 15
M  V30 15 1 15 16
M  V30 16 1 16 17
M  V30 17 2 17 18
M  V30 18 1 18 19
M  V30 19 1 19 20
M  V30 20 1 20 21
M  V30 21 1 21 22
M  V30 22 1 22 23
M  V30 23 1 22 24
M  V30 24 1 22 25
M  V30 25 2 15 26
M  V30 26 1 26 27
M  V30 27 3 27 28
M  V30 28 1 26 29
M  V30 29 2 29 30
M  V30 30 1 9 31
M  V30 31 1 31 5
M  V30 32 1 30 13
M  V30 33 2 20 16
M  V30 34 1 25 19
M  V30 35 1 1 32
M  V30 36 1 1 33
M  V30 37 1 1 34
M  V30 38 1 4 35
M  V30 39 1 5 36 CFG=1
M  V30 40 1 6 37
M  V30 41 1 6 38
M  V30 42 1 7 39
M  V30 43 1 7 40
M  V30 44 1 8 41
M  V30 45 1 8 42
M  V30 46 1 9 43 CFG=1
M  V30 47 1 12 44
M  V30 48 1 14 45
M  V30 49 1 17 46
M  V30 50 1 21 47
M  V30 51 1 21 48
M  V30 52 1 23 49
M  V30 53 1 23 50
M  V30 54 1 23 51
M  V30 55 1 24 52
M  V30 56 1 24 53
M  V30 57 1 24 54
M  V30 58 1 25 55
M  V30 59 1 25 56
M  V30 60 1 29 57
M  V30 61 1 31 58
M  V30 62 1 31 59
M  V30 END BOND
M  V30 END CTAB
M  END
>  <Dataset>  (561) 
ChEMBL_Kinases

>  <Ligand_Instance>  (561) 
nan

>  <PDB_ID>  (561) 
nan

>  <Standardized_SMILES>  (561) 
CC(=O)N[C@@H]1CCC[C@H](C(=O)Nc2cc(-c3cnn4c3CC(C)(C)C4)c(C#N)cn2)C1

>  <Name>  (561) 
nan

>  <Pocket>  (561) 
nan

>  <ATP_Site>  (561) 
nan

>  <Peripheral>  (561) 
nan

>  <Num_H_Atoms_ProtBoundConf>  (561) 
nan

>  <Num_Resolved_Atoms>  (561) 
nan

>  <Num_Not_Resolved_Atoms>  (561) 
nan

$$$$
CHEMBL4784365
     RDKit          3D

  0  0  0  0  0  0  0  0  0  0999 V3000
M  V30 BEGIN CTAB
M  V30 COUNTS 58 65 0 0 0
M  V30 BEGIN ATOM
M  V30 1 C -1.272483 -0.089759 3.453910 0
M  V30 2 O -0.583784 -0.834091 2.521610 0
M  V30 3 C 0.795087 -0.933561 2.331133 0
M  V30 4 C 1.306941 -2.032614 2.808159 0
M  V30 5 C 0.956877 -2.576214 4.123061 0
M  V30 6 O 2.200025 -2.564777 1.884879 0
M  V30 7 C 2.284202 -1.985928 0.633857 0 CFG=2
M  V30 8 C 2.574459 -0.525685 0.701010 0
M  V30 9 C 1.545125 0.235960 1.596232 0 CFG=2
M  V30 10 O 2.202786 0.894056 2.520298 0
M  V30 11 C 1.698186 1.280971 3.707390 0
M  V30 12 N 0.559023 0.747724 0.729492 0
M  V30 13 C -0.091907 1.886137 0.617759 0
M  V30 14 C 0.094154 3.079202 1.221194 0
M  V30 15 C -0.681084 4.178123 0.957071 0
M  V30 16 C -1.713424 4.136126 0.044907 0
M  V30 17 C -1.926399 2.930720 -0.589949 0
M  V30 18 C -1.124747 1.848975 -0.296281 0
M  V30 19 C -1.092081 0.564382 -0.796077 0
M  V30 20 C -1.850213 -0.114704 -1.724339 0
M  V30 21 C -1.615269 -1.427113 -2.060839 0
M  V30 22 C -0.588846 -2.089373 -1.459455 0
M  V30 23 C -0.120349 -3.340714 -1.677445 0
M  V30 24 C -0.369434 -4.451750 -2.393691 0
M  V30 25 C 0.345911 -5.617889 -2.378999 0
M  V30 26 C 1.462517 -5.694650 -1.538733 0
M  V30 27 C 1.774115 -4.589498 -0.776107 0
M  V30 28 C 0.994704 -3.454326 -0.855603 0
M  V30 29 N 1.135328 -2.285021 -0.195975 0
M  V30 30 C 0.144240 -1.406221 -0.548881 0
M  V30 31 C -0.051430 -0.095795 -0.163703 0
M  V30 32 C -2.605001 -1.780284 -3.045258 0
M  V30 33 O -2.872480 -2.802639 -3.689540 0
M  V30 34 N -3.443696 -0.668688 -3.303523 0
M  V30 35 C -3.010499 0.444561 -2.488721 0
M  V30 36 H -2.358770 -0.330092 3.520873 0
M  V30 37 H -1.240671 0.989580 3.113068 0
M  V30 38 H -0.747726 -0.107015 4.428488 0
M  V30 39 H 1.204593 -1.910434 4.962984 0
M  V30 40 H 1.555157 -3.514515 4.268847 0
M  V30 41 H -0.111116 -2.928759 4.154571 0
M  V30 42 H 3.156957 -2.414002 0.040757 0
M  V30 43 H 2.519762 -0.112296 -0.333794 0
M  V30 44 H 3.580148 -0.397349 1.106849 0
M  V30 45 H 0.825799 1.934208 3.742624 0
M  V30 46 H 1.582382 0.443300 4.448448 0
M  V30 47 H 2.517128 1.906166 4.204278 0
M  V30 48 H 0.882454 3.209434 1.901430 0
M  V30 49 H -0.508973 5.121680 1.457835 0
M  V30 50 H -2.338946 4.988774 -0.180058 0
M  V30 51 H -2.728497 2.861043 -1.313515 0
M  V30 52 H -1.195953 -4.468104 -3.048520 0
M  V30 53 H 0.124484 -6.498346 -2.965508 0
M  V30 54 H 2.099204 -6.562890 -1.446133 0
M  V30 55 H 2.632015 -4.632479 -0.122978 0
M  V30 56 H -4.262461 -0.503860 -3.927417 0
M  V30 57 H -2.690993 1.247653 -3.197837 0
M  V30 58 H -3.811926 0.774810 -1.796869 0
M  V30 END ATOM
M  V30 BEGIN BOND
M  V30 1 1 1 2
M  V30 2 1 2 3
M  V30 3 2 3 4
M  V30 4 1 4 5
M  V30 5 1 4 6
M  V30 6 1 6 7
M  V30 7 1 7 8
M  V30 8 1 8 9
M  V30 9 1 9 10 CFG=1
M  V30 10 1 10 11
M  V30 11 1 9 12
M  V30 12 1 12 13
M  V30 13 2 13 14
M  V30 14 1 14 15
M  V30 15 2 15 16
M  V30 16 1 16 17
M  V30 17 2 17 18
M  V30 18 1 18 19
M  V30 19 2 19 20
M  V30 20 1 20 21
M  V30 21 2 21 22
M  V30 22 1 22 23
M  V30 23 2 23 24
M  V30 24 1 24 25
M  V30 25 2 25 26
M  V30 26 1 26 27
M  V30 27 2 27 28
M  V30 28 1 28 29
M  V30 29 1 29 30
M  V30 30 2 30 31
M  V30 31 1 21 32
M  V30 32 2 32 33
M  V30 33 1 32 34
M  V30 34 1 34 35
M  V30 35 1 9 3
M  V30 36 1 31 12
M  V30 37 1 29 7
M  V30 38 1 18 13
M  V30 39 1 31 19
M  V30 40 1 35 20
M  V30 41 1 30 22
M  V30 42 1 28 23
M  V30 43 1 1 36
M  V30 44 1 1 37
M  V30 45 1 1 38
M  V30 46 1 5 39
M  V30 47 1 5 40
M  V30 48 1 5 41
M  V30 49 1 7 42 CFG=3
M  V30 50 1 8 43
M  V30 51 1 8 44
M  V30 52 1 11 45
M  V30 53 1 11 46
M  V30 54 1 11 47
M  V30 55 1 14 48
M  V30 56 1 15 49
M  V30 57 1 16 50
M  V30 58 1 17 51
M  V30 59 1 24 52
M  V30 60 1 25 53
M  V30 61 1 26 54
M  V30 62 1 27 55
M  V30 63 1 34 56
M  V30 64 1 35 57
M  V30 65 1 35 58
M  V30 END BOND
M  V30 END CTAB
M  END
>  <Dataset>  (562) 
ChEMBL_Kinases

>  <Ligand_Instance>  (562) 
nan

>  <PDB_ID>  (562) 
nan

>  <Standardized_SMILES>  (562) 
COC1=C(C)O[C@@H]2C[C@@]1(OC)n1c3ccccc3c3c4c(c5c6ccccc6n2c5c31)C(=O)NC4

>  <Name>  (562) 
nan

>  <Pocket>  (562) 
nan

>  <ATP_Site>  (562) 
nan

>  <Peripheral>  (562) 
nan

>  <Num_H_Atoms_ProtBoundConf>  (562) 
nan

>  <Num_Resolved_Atoms>  (562) 
nan

>  <Num_Not_Resolved_Atoms>  (562) 
nan

$$$$
CHEMBL4784397
     RDKit          3D

  0  0  0  0  0  0  0  0  0  0999 V3000
M  V30 BEGIN CTAB
M  V30 COUNTS 34 37 0 0 0
M  V30 BEGIN ATOM
M  V30 1 C -1.254464 -4.079204 2.911249 0
M  V30 2 O -2.020915 -3.065768 2.320765 0
M  V30 3 C -1.548176 -2.055055 1.511837 0
M  V30 4 C -0.214660 -1.861785 1.136056 0
M  V30 5 C 0.142479 -0.804446 0.314249 0
M  V30 6 C 1.553356 -0.666725 -0.035431 0
M  V30 7 C 2.324506 -1.751989 -0.428566 0
M  V30 8 N 3.575001 -1.307485 -0.682361 0
M  V30 9 C 3.644710 0.028587 -0.468248 0
M  V30 10 N 4.634130 0.952698 -0.569416 0
M  V30 11 C 4.328910 2.245672 -0.263517 0
M  V30 12 C 3.097120 2.714517 0.144312 0
M  V30 13 C 2.109388 1.747495 0.237562 0
M  V30 14 C 2.387273 0.433114 -0.064827 0
M  V30 15 C -0.794107 0.089525 -0.160295 0
M  V30 16 C -2.113031 -0.094390 0.206183 0
M  V30 17 C -3.119625 0.751942 -0.221731 0
M  V30 18 C -4.450646 0.611422 0.115787 0
M  V30 19 C -4.757888 -0.454914 0.935167 0
M  V30 20 N -3.790437 -1.287643 1.360290 0
M  V30 21 C -2.492006 -1.154264 1.033690 0
M  V30 22 H -0.287371 -4.267612 2.371306 0
M  V30 23 H -1.857593 -5.005160 2.876120 0
M  V30 24 H -1.087304 -3.864838 4.000656 0
M  V30 25 H 0.496469 -2.583845 1.527415 0
M  V30 26 H 2.095436 -2.809994 -0.552076 0
M  V30 27 H 4.434929 -1.841593 -1.003072 0
M  V30 28 H 5.176892 2.908469 -0.372722 0
M  V30 29 H 2.968916 3.759066 0.360081 0
M  V30 30 H 1.119940 2.060068 0.554008 0
M  V30 31 H -0.528408 0.918928 -0.802381 0
M  V30 32 H -2.790444 1.560845 -0.860393 0
M  V30 33 H -5.215831 1.288667 -0.233801 0
M  V30 34 H -5.768153 -0.657791 1.260346 0
M  V30 END ATOM
M  V30 BEGIN BOND
M  V30 1 1 1 2
M  V30 2 1 2 3
M  V30 3 2 3 4
M  V30 4 1 4 5
M  V30 5 1 5 6
M  V30 6 2 6 7
M  V30 7 1 7 8
M  V30 8 1 8 9
M  V30 9 2 9 10
M  V30 10 1 10 11
M  V30 11 2 11 12
M  V30 12 1 12 13
M  V30 13 2 13 14
M  V30 14 2 5 15
M  V30 15 1 15 16
M  V30 16 2 16 17
M  V30 17 1 17 18
M  V30 18 2 18 19
M  V30 19 1 19 20
M  V30 20 2 20 21
M  V30 21 1 21 3
M  V30 22 1 14 6
M  V30 23 1 21 16
M  V30 24 1 14 9
M  V30 25 1 1 22
M  V30 26 1 1 23
M  V30 27 1 1 24
M  V30 28 1 4 25
M  V30 29 1 7 26
M  V30 30 1 8 27
M  V30 31 1 11 28
M  V30 32 1 12 29
M  V30 33 1 13 30
M  V30 34 1 15 31
M  V30 35 1 17 32
M  V30 36 1 18 33
M  V30 37 1 19 34
M  V30 END BOND
M  V30 END CTAB
M  END
>  <Dataset>  (563) 
ChEMBL_Kinases

>  <Ligand_Instance>  (563) 
nan

>  <PDB_ID>  (563) 
nan

>  <Standardized_SMILES>  (563) 
COc1cc(-c2c[nH]c3ncccc23)cc2cccnc12

>  <Name>  (563) 
nan

>  <Pocket>  (563) 
nan

>  <ATP_Site>  (563) 
nan

>  <Peripheral>  (563) 
nan

>  <Num_H_Atoms_ProtBoundConf>  (563) 
nan

>  <Num_Resolved_Atoms>  (563) 
nan

>  <Num_Not_Resolved_Atoms>  (563) 
nan

$$$$
CHEMBL4784439
     RDKit          3D

  0  0  0  0  0  0  0  0  0  0999 V3000
M  V30 BEGIN CTAB
M  V30 COUNTS 63 67 0 0 0
M  V30 BEGIN ATOM
M  V30 1 C -3.702415 -1.476364 5.696883 0
M  V30 2 O -3.097799 -2.511564 6.475400 0
M  V30 3 C -1.874178 -3.006961 6.047578 0
M  V30 4 C -1.242996 -2.526084 4.898916 0
M  V30 5 C -0.008000 -3.044834 4.490278 0
M  V30 6 C 0.602449 -2.499925 3.268600 0
M  V30 7 C 0.340081 -1.172488 2.997443 0
M  V30 8 N 0.884722 -0.647754 1.889531 0
M  V30 9 C 1.663927 -1.301464 1.019569 0
M  V30 10 C 2.274921 -0.859965 -0.143793 0
M  V30 11 N 2.200441 0.475351 -0.723036 0
M  V30 12 C 2.954100 0.749159 -1.929712 0
M  V30 13 C 3.239381 2.231447 -1.940195 0
M  V30 14 C 1.965381 3.041664 -1.908477 0
M  V30 15 C 1.041094 2.666842 -0.795074 0
M  V30 16 C -0.410308 2.778572 -1.185491 0
M  V30 17 N -0.781490 1.970038 -2.309228 0
M  V30 18 C -0.869705 0.651786 -2.769618 0
M  V30 19 O -0.518407 -0.246860 -1.975224 0
M  V30 20 N -1.304796 0.173438 -4.022877 0
M  V30 21 C -1.315432 -1.241330 -4.303340 0
M  V30 22 C -2.674025 -1.553039 -4.913290 0
M  V30 23 C -2.957102 -0.257278 -5.639230 0
M  V30 24 C -1.810961 0.669433 -5.289130 0
M  V30 25 C 1.365648 1.437496 -0.044303 0
M  V30 26 S 3.154627 -2.142967 -0.843588 0
M  V30 27 N 2.717996 -3.403517 0.468143 0
M  V30 28 C 1.940080 -2.626362 1.268559 0
M  V30 29 C 1.401787 -3.213374 2.398225 0
M  V30 30 C 0.569513 -4.043226 5.251472 0
M  V30 31 C -0.038828 -4.536391 6.395880 0
M  V30 32 C -1.258569 -4.008737 6.780093 0
M  V30 33 N -1.896401 -4.503680 7.951446 0
M  V30 34 H -4.718779 -1.245545 6.083613 0
M  V30 35 H -3.092796 -0.537241 5.823712 0
M  V30 36 H -3.754443 -1.694872 4.630829 0
M  V30 37 H -1.722647 -1.739601 4.322234 0
M  V30 38 H -0.268970 -0.498975 3.592848 0
M  V30 39 H 3.924613 0.232426 -1.845521 0
M  V30 40 H 2.401719 0.494918 -2.835918 0
M  V30 41 H 3.730951 2.481470 -2.923421 0
M  V30 42 H 3.857267 2.485816 -1.068628 0
M  V30 43 H 2.261007 4.106864 -1.873419 0
M  V30 44 H 1.441701 2.877932 -2.884461 0
M  V30 45 H 1.152219 3.520623 -0.019184 0
M  V30 46 H -1.067985 2.462440 -0.307775 0
M  V30 47 H -0.647022 3.846806 -1.345718 0
M  V30 48 H -1.127387 2.572122 -3.130027 0
M  V30 49 H -1.229118 -1.878158 -3.407579 0
M  V30 50 H -0.525291 -1.474723 -5.071314 0
M  V30 51 H -2.620484 -2.434340 -5.577776 0
M  V30 52 H -3.417449 -1.777643 -4.121250 0
M  V30 53 H -3.926280 0.103044 -5.267948 0
M  V30 54 H -3.062457 -0.458571 -6.710761 0
M  V30 55 H -2.234346 1.692967 -5.189546 0
M  V30 56 H -1.006469 0.672929 -6.044468 0
M  V30 57 H 1.827054 1.681644 0.968507 0
M  V30 58 H 0.394322 0.937664 0.234882 0
M  V30 59 H 1.516890 -4.225743 2.734404 0
M  V30 60 H 1.530793 -4.423311 4.903662 0
M  V30 61 H 0.456078 -5.333215 6.974716 0
M  V30 62 H -1.661114 -5.430842 8.331834 0
M  V30 63 H -2.621780 -3.970514 8.481355 0
M  V30 END ATOM
M  V30 BEGIN BOND
M  V30 1 1 1 2
M  V30 2 1 2 3
M  V30 3 2 3 4
M  V30 4 1 4 5
M  V30 5 1 5 6
M  V30 6 1 6 7
M  V30 7 2 7 8
M  V30 8 1 8 9
M  V30 9 2 9 10
M  V30 10 1 10 11
M  V30 11 1 11 12
M  V30 12 1 12 13
M  V30 13 1 13 14
M  V30 14 1 14 15
M  V30 15 1 15 16
M  V30 16 1 16 17
M  V30 17 1 17 18
M  V30 18 2 18 19
M  V30 19 1 18 20
M  V30 20 1 20 21
M  V30 21 1 21 22
M  V30 22 1 22 23
M  V30 23 1 23 24
M  V30 24 1 15 25
M  V30 25 1 10 26
M  V30 26 1 26 27
M  V30 27 2 27 28
M  V30 28 1 28 29
M  V30 29 2 5 30
M  V30 30 1 30 31
M  V30 31 2 31 32
M  V30 32 1 32 33
M  V30 33 1 32 3
M  V30 34 2 29 6
M  V30 35 1 28 9
M  V30 36 1 25 11
M  V30 37 1 24 20
M  V30 38 1 1 34
M  V30 39 1 1 35
M  V30 40 1 1 36
M  V30 41 1 4 37
M  V30 42 1 7 38
M  V30 43 1 12 39
M  V30 44 1 12 40
M  V30 45 1 13 41
M  V30 46 1 13 42
M  V30 47 1 14 43
M  V30 48 1 14 44
M  V30 49 1 15 45
M  V30 50 1 16 46
M  V30 51 1 16 47
M  V30 52 1 17 48
M  V30 53 1 21 49
M  V30 54 1 21 50
M  V30 55 1 22 51
M  V30 56 1 22 52
M  V30 57 1 23 53
M  V30 58 1 23 54
M  V30 59 1 24 55
M  V30 60 1 24 56
M  V30 61 1 25 57
M  V30 62 1 25 58
M  V30 63 1 29 59
M  V30 64 1 30 60
M  V30 65 1 31 61
M  V30 66 1 33 62
M  V30 67 1 33 63
M  V30 END BOND
M  V30 END CTAB
M  END
>  <Dataset>  (564) 
ChEMBL_Kinases

>  <Ligand_Instance>  (564) 
nan

>  <PDB_ID>  (564) 
nan

>  <Standardized_SMILES>  (564) 
COc1cc(-c2cnc3c(N4CCCC(CNC(=O)N5CCCC5)C4)snc3c2)ccc1N

>  <Name>  (564) 
nan

>  <Pocket>  (564) 
nan

>  <ATP_Site>  (564) 
nan

>  <Peripheral>  (564) 
nan

>  <Num_H_Atoms_ProtBoundConf>  (564) 
nan

>  <Num_Resolved_Atoms>  (564) 
nan

>  <Num_Not_Resolved_Atoms>  (564) 
nan

$$$$
CHEMBL4784448
     RDKit          3D

  0  0  0  0  0  0  0  0  0  0999 V3000
M  V30 BEGIN CTAB
M  V30 COUNTS 54 57 0 0 0
M  V30 BEGIN ATOM
M  V30 1 C 6.652371 -0.971168 5.822904 0
M  V30 2 C 6.282236 -1.442739 4.644810 0
M  V30 3 C 5.708468 -0.607134 3.603751 0
M  V30 4 O 5.347291 -1.027247 2.474093 0
M  V30 5 N 5.487800 0.792553 3.744052 0
M  V30 6 C 4.908230 1.315998 2.531783 0
M  V30 7 C 5.802294 1.758644 1.578880 0
M  V30 8 C 5.243464 2.264839 0.406645 0
M  V30 9 C 3.878493 2.320989 0.208600 0
M  V30 10 C 3.016076 1.861071 1.202147 0
M  V30 11 C 1.557794 1.860332 1.127741 0
M  V30 12 O 0.776000 1.444475 2.025977 0
M  V30 13 N 0.831920 2.351162 -0.018418 0
M  V30 14 C -0.568213 2.219320 0.206327 0
M  V30 15 C -1.245835 3.261607 0.799812 0
M  V30 16 C -2.600875 3.108895 1.006041 0
M  V30 17 C -3.194216 1.931157 0.609395 0
M  V30 18 C -2.548176 0.874889 0.016141 0
M  V30 19 N -3.109328 -0.351856 -0.408644 0
M  V30 20 C -4.447829 -0.803892 -0.337520 0
M  V30 21 O -5.310947 -0.044959 0.168816 0
M  V30 22 C -4.875195 -2.111537 -0.824754 0
M  V30 23 C -6.168646 -2.512353 -0.739980 0
M  V30 24 C -6.622453 -3.741287 -1.187360 0
M  V30 25 C -5.714848 -4.618013 -1.754510 0
M  V30 26 C -4.393637 -4.205530 -1.839762 0
M  V30 27 C -3.402520 -5.082893 -2.424015 0
M  V30 28 C -3.633054 -6.360174 -2.937482 0
M  V30 29 C -2.416864 -6.831835 -3.389173 0
M  V30 30 N -1.486102 -5.863951 -3.152358 0
M  V30 31 N -2.094204 -4.826441 -2.575094 0
M  V30 32 N -4.007054 -2.999387 -1.388834 0
M  V30 33 C -1.201093 1.079158 -0.165877 0
M  V30 34 C 3.530055 1.350881 2.381064 0
M  V30 35 H 6.554093 0.068844 6.094134 0
M  V30 36 H 7.072504 -1.645474 6.553969 0
M  V30 37 H 6.391931 -2.473882 4.407072 0
M  V30 38 H 5.752410 1.267069 4.655319 0
M  V30 39 H 6.873050 1.718485 1.725472 0
M  V30 40 H 5.875634 2.635728 -0.397868 0
M  V30 41 H 3.410649 2.706146 -0.685526 0
M  V30 42 H 1.375572 2.726382 -0.837382 0
M  V30 43 H -0.762302 4.171570 1.101220 0
M  V30 44 H -3.183440 3.894212 1.467729 0
M  V30 45 H -4.253714 1.856624 0.790320 0
M  V30 46 H -2.488086 -1.064485 -0.845954 0
M  V30 47 H -6.875032 -1.825098 -0.296404 0
M  V30 48 H -7.665030 -3.988935 -1.085969 0
M  V30 49 H -6.059954 -5.582556 -2.107863 0
M  V30 50 H -4.608030 -6.865925 -2.962816 0
M  V30 51 H -2.254059 -7.805425 -3.848724 0
M  V30 52 H -1.581317 -3.971868 -2.303790 0
M  V30 53 H -0.592178 0.289613 -0.634721 0
M  V30 54 H 2.926857 0.971949 3.205281 0
M  V30 END ATOM
M  V30 BEGIN BOND
M  V30 1 2 1 2
M  V30 2 1 2 3
M  V30 3 2 3 4
M  V30 4 1 3 5
M  V30 5 1 5 6
M  V30 6 2 6 7
M  V30 7 1 7 8
M  V30 8 2 8 9
M  V30 9 1 9 10
M  V30 10 1 10 11
M  V30 11 2 11 12
M  V30 12 1 11 13
M  V30 13 1 13 14
M  V30 14 2 14 15
M  V30 15 1 15 16
M  V30 16 2 16 17
M  V30 17 1 17 18
M  V30 18 1 18 19
M  V30 19 1 19 20
M  V30 20 2 20 21
M  V30 21 1 20 22
M  V30 22 2 22 23
M  V30 23 1 23 24
M  V30 24 2 24 25
M  V30 25 1 25 26
M  V30 26 1 26 27
M  V30 27 2 27 28
M  V30 28 1 28 29
M  V30 29 2 29 30
M  V30 30 1 30 31
M  V30 31 2 26 32
M  V30 32 2 18 33
M  V30 33 2 10 34
M  V30 34 1 34 6
M  V30 35 1 33 14
M  V30 36 1 32 22
M  V30 37 1 31 27
M  V30 38 1 1 35
M  V30 39 1 1 36
M  V30 40 1 2 37
M  V30 41 1 5 38
M  V30 42 1 7 39
M  V30 43 1 8 40
M  V30 44 1 9 41
M  V30 45 1 13 42
M  V30 46 1 15 43
M  V30 47 1 16 44
M  V30 48 1 17 45
M  V30 49 1 19 46
M  V30 50 1 23 47
M  V30 51 1 24 48
M  V30 52 1 25 49
M  V30 53 1 28 50
M  V30 54 1 29 51
M  V30 55 1 31 52
M  V30 56 1 33 53
M  V30 57 1 34 54
M  V30 END BOND
M  V30 END CTAB
M  END
>  <Dataset>  (565) 
ChEMBL_Kinases

>  <Ligand_Instance>  (565) 
nan

>  <PDB_ID>  (565) 
nan

>  <Standardized_SMILES>  (565) 
C=CC(=O)Nc1cccc(C(=O)Nc2cccc(NC(=O)c3cccc(-c4ccn[nH]4)n3)c2)c1

>  <Name>  (565) 
nan

>  <Pocket>  (565) 
nan

>  <ATP_Site>  (565) 
nan

>  <Peripheral>  (565) 
nan

>  <Num_H_Atoms_ProtBoundConf>  (565) 
nan

>  <Num_Resolved_Atoms>  (565) 
nan

>  <Num_Not_Resolved_Atoms>  (565) 
nan

$$$$
CHEMBL4784509
     RDKit          3D

  0  0  0  0  0  0  0  0  0  0999 V3000
M  V30 BEGIN CTAB
M  V30 COUNTS 45 48 0 0 0
M  V30 BEGIN ATOM
M  V30 1 O -0.071389 -3.630628 1.747053 0
M  V30 2 C -0.846934 -2.796121 1.212782 0
M  V30 3 N -0.260257 -1.541092 0.969077 0
M  V30 4 C 1.123538 -1.141182 1.273617 0
M  V30 5 C 1.766852 -0.835055 -0.039668 0
M  V30 6 C 1.485835 0.563668 -0.548057 0
M  V30 7 N 1.934498 1.427296 0.569024 0
M  V30 8 C 3.143335 2.132956 0.344810 0
M  V30 9 N 3.567058 2.313250 -0.920998 0
M  V30 10 C 4.662578 2.992103 -1.241090 0
M  V30 11 N 5.431298 3.552097 -0.298511 0
M  V30 12 C 5.108354 3.437586 1.000599 0
M  V30 13 N 5.649917 3.854486 2.157736 0
M  V30 14 N 4.881458 3.424145 3.159210 0
M  V30 15 C 3.849142 2.732921 2.645262 0
M  V30 16 C 3.964449 2.724370 1.274138 0
M  V30 17 C 0.964419 1.333346 1.632524 0
M  V30 18 C 1.157069 -0.020056 2.275868 0
M  V30 19 C -2.240078 -3.031167 0.848640 0
M  V30 20 C -3.109380 -2.133394 0.262926 0
M  V30 21 C -4.404991 -2.515999 -0.019449 0
M  V30 22 C -4.908006 -3.772313 0.251137 0
M  V30 23 C -6.304209 -4.135828 -0.069919 0
M  V30 24 F -7.050793 -2.988381 -0.207628 0
M  V30 25 F -6.903378 -4.944853 0.857420 0
M  V30 26 F -6.383646 -4.816551 -1.287003 0
M  V30 27 C -4.018838 -4.673308 0.844298 0
M  V30 28 C -2.721045 -4.298885 1.130177 0
M  V30 29 H -0.758759 -0.729476 0.531125 0
M  V30 30 H 1.691732 -1.980164 1.743474 0
M  V30 31 H 1.327257 -1.516600 -0.816478 0
M  V30 32 H 2.855577 -1.016690 0.014953 0
M  V30 33 H 0.428396 0.707142 -0.766497 0
M  V30 34 H 2.082505 0.721340 -1.458769 0
M  V30 35 H 4.875233 3.051634 -2.311298 0
M  V30 36 H 6.544639 4.424512 2.122785 0
M  V30 37 H 3.099045 2.279917 3.268668 0
M  V30 38 H 1.004875 2.110123 2.391350 0
M  V30 39 H -0.065675 1.313102 1.148702 0
M  V30 40 H 2.166347 -0.013045 2.738726 0
M  V30 41 H 0.433897 -0.249540 3.070448 0
M  V30 42 H -2.698392 -1.156971 0.059022 0
M  V30 43 H -5.054267 -1.792125 -0.475228 0
M  V30 44 H -4.427494 -5.651357 1.049498 0
M  V30 45 H -2.142935 -5.088218 1.585688 0
M  V30 END ATOM
M  V30 BEGIN BOND
M  V30 1 2 1 2
M  V30 2 1 2 3
M  V30 3 1 3 4
M  V30 4 1 4 5
M  V30 5 1 5 6
M  V30 6 1 6 7
M  V30 7 1 7 8
M  V30 8 2 8 9
M  V30 9 1 9 10
M  V30 10 2 10 11
M  V30 11 1 11 12
M  V30 12 1 12 13
M  V30 13 1 13 14
M  V30 14 2 14 15
M  V30 15 1 15 16
M  V30 16 1 7 17
M  V30 17 1 17 18
M  V30 18 1 2 19
M  V30 19 2 19 20
M  V30 20 1 20 21
M  V30 21 2 21 22
M  V30 22 1 22 23
M  V30 23 1 23 24
M  V30 24 1 23 25
M  V30 25 1 23 26
M  V30 26 1 22 27
M  V30 27 2 27 28
M  V30 28 1 18 4
M  V30 29 1 28 19
M  V30 30 1 16 8
M  V30 31 2 16 12
M  V30 32 1 3 29
M  V30 33 1 4 30
M  V30 34 1 5 31
M  V30 35 1 5 32
M  V30 36 1 6 33
M  V30 37 1 6 34
M  V30 38 1 10 35
M  V30 39 1 13 36
M  V30 40 1 15 37
M  V30 41 1 17 38
M  V30 42 1 17 39
M  V30 43 1 18 40
M  V30 44 1 18 41
M  V30 45 1 20 42
M  V30 46 1 21 43
M  V30 47 1 27 44
M  V30 48 1 28 45
M  V30 END BOND
M  V30 END CTAB
M  END
>  <Dataset>  (566) 
ChEMBL_Kinases

>  <Ligand_Instance>  (566) 
nan

>  <PDB_ID>  (566) 
nan

>  <Standardized_SMILES>  (566) 
O=C(NC1CCN(c2ncnc3[nH]ncc23)CC1)c1ccc(C(F)(F)F)cc1

>  <Name>  (566) 
nan

>  <Pocket>  (566) 
nan

>  <ATP_Site>  (566) 
nan

>  <Peripheral>  (566) 
nan

>  <Num_H_Atoms_ProtBoundConf>  (566) 
nan

>  <Num_Resolved_Atoms>  (566) 
nan

>  <Num_Not_Resolved_Atoms>  (566) 
nan

$$$$
CHEMBL4203571
     RDKit          3D

  0  0  0  0  0  0  0  0  0  0999 V3000
M  V30 BEGIN CTAB
M  V30 COUNTS 72 76 0 0 0
M  V30 BEGIN ATOM
M  V30 1 C 2.203971 -3.206663 5.351186 0
M  V30 2 O 1.485126 -3.210490 4.154444 0
M  V30 3 C 1.390557 -2.146069 3.278434 0
M  V30 4 C 2.037712 -0.964989 3.560606 0
M  V30 5 C 1.979278 0.127468 2.725730 0
M  V30 6 C 2.695279 1.330480 3.111049 0
M  V30 7 O 3.355435 1.305945 4.185361 0
M  V30 8 N 2.713700 2.546283 2.369528 0
M  V30 9 C 3.523420 3.531684 3.042702 0
M  V30 10 C 3.520541 4.802793 2.241190 0
M  V30 11 C 4.046689 4.683201 0.882672 0
M  V30 12 C 3.331906 4.392757 -0.279583 0
M  V30 13 C 3.951624 4.305242 -1.514326 0
M  V30 14 C 5.322046 4.505992 -1.640323 0
M  V30 15 C 6.082700 4.796379 -0.527304 0
M  V30 16 C 5.412078 4.873198 0.691691 0
M  V30 17 C 1.241575 0.022419 1.565679 0
M  V30 18 C 0.611068 -1.178163 1.323759 0
M  V30 19 C 0.632309 -2.302047 2.119049 0
M  V30 20 N -0.027500 -3.520239 1.807764 0
M  V30 21 C -0.901774 -3.807070 0.725177 0
M  V30 22 N -1.259284 -5.096283 0.580525 0
M  V30 23 C -2.075849 -5.575576 -0.361317 0
M  V30 24 C -2.576521 -4.649130 -1.240732 0
M  V30 25 C -2.250578 -3.309129 -1.146365 0
M  V30 26 N -1.417347 -2.942250 -0.156742 0
M  V30 27 N -2.806600 -2.372001 -2.052047 0
M  V30 28 C -3.160254 -1.087755 -1.667013 0
M  V30 29 C -3.060196 -0.557185 -0.324576 0
M  V30 30 C -4.148383 -1.249425 0.469026 0
M  V30 31 C -5.308065 -1.018879 -0.509472 0
M  V30 32 C -4.683201 -0.959427 -1.892542 0
M  V30 33 C -2.996095 -2.845066 -3.416246 0 CFG=2
M  V30 34 C -3.556993 -1.879126 -4.377227 0
M  V30 35 C -3.913769 -4.038917 -3.242965 0
M  V30 36 O -5.038021 -4.326269 -3.766609 0
M  V30 37 N -3.435525 -5.039641 -2.317423 0
M  V30 38 C -3.763818 -6.460900 -2.379550 0
M  V30 39 H 1.867100 -4.031421 6.016976 0
M  V30 40 H 2.066273 -2.258900 5.948670 0
M  V30 41 H 3.287312 -3.337547 5.148276 0
M  V30 42 H 2.611098 -0.934506 4.495417 0
M  V30 43 H 2.162583 2.527325 1.498028 0
M  V30 44 H 4.530393 3.186110 3.304043 0
M  V30 45 H 3.015377 3.729041 4.015780 0
M  V30 46 H 2.503682 5.264509 2.197040 0
M  V30 47 H 4.135070 5.587472 2.773993 0
M  V30 48 H 2.273012 4.245172 -0.152050 0
M  V30 49 H 3.354027 4.078512 -2.374520 0
M  V30 50 H 5.812728 4.438900 -2.601244 0
M  V30 51 H 7.141655 4.960514 -0.566900 0
M  V30 52 H 6.039111 5.105236 1.559150 0
M  V30 53 H 1.173677 0.860543 0.886641 0
M  V30 54 H 0.061362 -1.201886 0.394920 0
M  V30 55 H 0.188786 -4.281429 2.497809 0
M  V30 56 H -2.334324 -6.614425 -0.439250 0
M  V30 57 H -2.626047 -0.361577 -2.350007 0
M  V30 58 H -3.474251 0.505268 -0.394077 0
M  V30 59 H -2.123720 -0.404445 0.176721 0
M  V30 60 H -4.343534 -0.687906 1.386839 0
M  V30 61 H -4.044534 -2.319908 0.581979 0
M  V30 62 H -5.803542 -0.068700 -0.219096 0
M  V30 63 H -6.028725 -1.829125 -0.383523 0
M  V30 64 H -5.094011 -1.816559 -2.436045 0
M  V30 65 H -4.932001 0.031931 -2.294314 0
M  V30 66 H -2.072924 -3.266322 -3.865877 0
M  V30 67 H -3.585660 -0.821501 -4.086334 0
M  V30 68 H -2.981711 -1.857758 -5.354043 0
M  V30 69 H -4.563491 -2.260414 -4.727057 0
M  V30 70 H -4.273318 -6.779147 -1.448467 0
M  V30 71 H -4.385696 -6.714148 -3.253750 0
M  V30 72 H -2.830730 -7.072193 -2.438303 0
M  V30 END ATOM
M  V30 BEGIN BOND
M  V30 1 1 1 2
M  V30 2 1 2 3
M  V30 3 2 3 4
M  V30 4 1 4 5
M  V30 5 1 5 6
M  V30 6 2 6 7
M  V30 7 1 6 8
M  V30 8 1 8 9
M  V30 9 1 9 10
M  V30 10 1 10 11
M  V30 11 2 11 12
M  V30 12 1 12 13
M  V30 13 2 13 14
M  V30 14 1 14 15
M  V30 15 2 15 16
M  V30 16 2 5 17
M  V30 17 1 17 18
M  V30 18 2 18 19
M  V30 19 1 19 20
M  V30 20 1 20 21
M  V30 21 2 21 22
M  V30 22 1 22 23
M  V30 23 2 23 24
M  V30 24 1 24 25
M  V30 25 2 25 26
M  V30 26 1 25 27
M  V30 27 1 27 28
M  V30 28 1 28 29
M  V30 29 1 29 30
M  V30 30 1 30 31
M  V30 31 1 31 32
M  V30 32 1 27 33
M  V30 33 1 33 34
M  V30 34 1 33 35
M  V30 35 2 35 36
M  V30 36 1 35 37
M  V30 37 1 37 38
M  V30 38 1 19 3
M  V30 39 1 26 21
M  V30 40 1 32 28
M  V30 41 1 16 11
M  V30 42 1 37 24
M  V30 43 1 1 39
M  V30 44 1 1 40
M  V30 45 1 1 41
M  V30 46 1 4 42
M  V30 47 1 8 43
M  V30 48 1 9 44
M  V30 49 1 9 45
M  V30 50 1 10 46
M  V30 51 1 10 47
M  V30 52 1 12 48
M  V30 53 1 13 49
M  V30 54 1 14 50
M  V30 55 1 15 51
M  V30 56 1 16 52
M  V30 57 1 17 53
M  V30 58 1 18 54
M  V30 59 1 20 55
M  V30 60 1 23 56
M  V30 61 1 28 57
M  V30 62 1 29 58
M  V30 63 1 29 59
M  V30 64 1 30 60
M  V30 65 1 30 61
M  V30 66 1 31 62
M  V30 67 1 31 63
M  V30 68 1 32 64
M  V30 69 1 32 65
M  V30 70 1 33 66 CFG=3
M  V30 71 1 34 67
M  V30 72 1 34 68
M  V30 73 1 34 69
M  V30 74 1 38 70
M  V30 75 1 38 71
M  V30 76 1 38 72
M  V30 END BOND
M  V30 END CTAB
M  END
>  <Dataset>  (567) 
ChEMBL_Kinases

>  <Ligand_Instance>  (567) 
nan

>  <PDB_ID>  (567) 
nan

>  <Standardized_SMILES>  (567) 
COc1cc(C(=O)NCCc2ccccc2)ccc1Nc1ncc2c(n1)N(C1CCCC1)[C@H](C)C(=O)N2C

>  <Name>  (567) 
nan

>  <Pocket>  (567) 
nan

>  <ATP_Site>  (567) 
nan

>  <Peripheral>  (567) 
nan

>  <Num_H_Atoms_ProtBoundConf>  (567) 
nan

>  <Num_Resolved_Atoms>  (567) 
nan

>  <Num_Not_Resolved_Atoms>  (567) 
nan

$$$$
CHEMBL4784513
     RDKit          3D

  0  0  0  0  0  0  0  0  0  0999 V3000
M  V30 BEGIN CTAB
M  V30 COUNTS 52 55 0 0 0
M  V30 BEGIN ATOM
M  V30 1 C -0.903023 -3.803446 4.364222 0
M  V30 2 C 0.129979 -3.368765 3.358704 0
M  V30 3 O 0.396518 -4.330969 2.360419 0
M  V30 4 C 1.354127 -4.003860 1.377164 0
M  V30 5 N 2.002032 -2.810141 1.390248 0
M  V30 6 C 2.919550 -2.482184 0.458247 0
M  V30 7 N 3.441745 -1.188064 0.681794 0
M  V30 8 C 2.576968 -0.134791 0.240656 0
M  V30 9 C 1.326222 -0.362937 -0.323652 0
M  V30 10 C 0.492414 0.669500 -0.729889 0
M  V30 11 C 0.901311 1.995321 -0.577256 0
M  V30 12 C -0.152798 2.896479 -1.072334 0
M  V30 13 O -0.176856 3.392871 -2.215791 0
M  V30 14 N -1.127673 3.099001 -0.033577 0
M  V30 15 C -1.203076 2.591548 1.313046 0
M  V30 16 C -2.414177 1.726294 1.455580 0
M  V30 17 N -3.388312 1.820769 0.421448 0
M  V30 18 C -3.549743 0.652635 -0.397994 0
M  V30 19 C -3.472500 3.012702 -0.340919 0
M  V30 20 C -2.294486 3.941744 -0.262314 0
M  V30 21 C 2.137575 2.247553 -0.021397 0
M  V30 22 C 2.927165 1.190308 0.365341 0
M  V30 23 F 4.113456 1.535133 0.890952 0
M  V30 24 N 3.193579 -3.357583 -0.498756 0
M  V30 25 C 2.593381 -4.571307 -0.586288 0
M  V30 26 N 2.727598 -5.585579 -1.468039 0
M  V30 27 C 1.869226 -6.539227 -1.051505 0
M  V30 28 C 1.186735 -6.153906 0.082354 0
M  V30 29 C 1.667201 -4.889999 0.362632 0
M  V30 30 H -0.878099 -3.063347 5.208103 0
M  V30 31 H -1.904873 -3.699786 3.882198 0
M  V30 32 H -0.785134 -4.831009 4.710494 0
M  V30 33 H 1.064698 -3.032431 3.833950 0
M  V30 34 H -0.320086 -2.494950 2.813408 0
M  V30 35 H 4.350094 -0.902508 1.115351 0
M  V30 36 H 1.029931 -1.399396 -0.434487 0
M  V30 37 H -0.460443 0.318411 -1.154793 0
M  V30 38 H -0.263625 2.069508 1.612804 0
M  V30 39 H -1.321616 3.468954 2.005086 0
M  V30 40 H -2.015245 0.657686 1.466247 0
M  V30 41 H -2.869253 1.810403 2.479905 0
M  V30 42 H -4.606431 0.312050 -0.459966 0
M  V30 43 H -2.956258 -0.167007 0.059624 0
M  V30 44 H -3.213494 0.772293 -1.433328 0
M  V30 45 H -4.383793 3.564484 0.028541 0
M  V30 46 H -3.708104 2.730092 -1.399100 0
M  V30 47 H -2.186737 4.559725 -1.181770 0
M  V30 48 H -2.483510 4.656570 0.552342 0
M  V30 49 H 2.332204 3.303266 0.039603 0
M  V30 50 H 3.390630 -5.520628 -2.261587 0
M  V30 51 H 1.831796 -7.445304 -1.639545 0
M  V30 52 H 0.447553 -6.752718 0.597512 0
M  V30 END ATOM
M  V30 BEGIN BOND
M  V30 1 1 1 2
M  V30 2 1 2 3
M  V30 3 1 3 4
M  V30 4 2 4 5
M  V30 5 1 5 6
M  V30 6 1 6 7
M  V30 7 1 7 8
M  V30 8 2 8 9
M  V30 9 1 9 10
M  V30 10 2 10 11
M  V30 11 1 11 12
M  V30 12 2 12 13
M  V30 13 1 12 14
M  V30 14 1 14 15
M  V30 15 1 15 16
M  V30 16 1 16 17
M  V30 17 1 17 18
M  V30 18 1 17 19
M  V30 19 1 19 20
M  V30 20 1 11 21
M  V30 21 2 21 22
M  V30 22 1 22 23
M  V30 23 2 6 24
M  V30 24 1 24 25
M  V30 25 1 25 26
M  V30 26 1 26 27
M  V30 27 2 27 28
M  V30 28 1 28 29
M  V30 29 1 29 4
M  V30 30 1 22 8
M  V30 31 2 29 25
M  V30 32 1 20 14
M  V30 33 1 1 30
M  V30 34 1 1 31
M  V30 35 1 1 32
M  V30 36 1 2 33
M  V30 37 1 2 34
M  V30 38 1 7 35
M  V30 39 1 9 36
M  V30 40 1 10 37
M  V30 41 1 15 38
M  V30 42 1 15 39
M  V30 43 1 16 40
M  V30 44 1 16 41
M  V30 45 1 18 42
M  V30 46 1 18 43
M  V30 47 1 18 44
M  V30 48 1 19 45
M  V30 49 1 19 46
M  V30 50 1 20 47
M  V30 51 1 20 48
M  V30 52 1 21 49
M  V30 53 1 26 50
M  V30 54 1 27 51
M  V30 55 1 28 52
M  V30 END BOND
M  V30 END CTAB
M  END
>  <Dataset>  (568) 
ChEMBL_Kinases

>  <Ligand_Instance>  (568) 
nan

>  <PDB_ID>  (568) 
nan

>  <Standardized_SMILES>  (568) 
CCOc1nc(Nc2ccc(C(=O)N3CCN(C)CC3)cc2F)nc2[nH]ccc12

>  <Name>  (568) 
nan

>  <Pocket>  (568) 
nan

>  <ATP_Site>  (568) 
nan

>  <Peripheral>  (568) 
nan

>  <Num_H_Atoms_ProtBoundConf>  (568) 
nan

>  <Num_Resolved_Atoms>  (568) 
nan

>  <Num_Not_Resolved_Atoms>  (568) 
nan

$$$$
CHEMBL4203924
     RDKit          3D

  0  0  0  0  0  0  0  0  0  0999 V3000
M  V30 BEGIN CTAB
M  V30 COUNTS 48 52 0 0 0
M  V30 BEGIN ATOM
M  V30 1 O 2.205337 -1.760529 0.436874 0
M  V30 2 S 1.285915 -1.822129 -0.787427 0
M  V30 3 O 1.206942 -3.248574 -1.144838 0
M  V30 4 C 2.114195 -0.827297 -1.978715 0
M  V30 5 C 1.819462 -1.093184 -3.295263 0
M  V30 6 C 2.403365 -0.381201 -4.343973 0
M  V30 7 C 3.312490 0.630370 -4.062162 0
M  V30 8 C 3.601583 0.889025 -2.728448 0
M  V30 9 C 3.022825 0.184709 -1.716597 0
M  V30 10 N -0.213916 -1.115006 -0.304378 0
M  V30 11 C -0.219419 0.179361 0.342440 0
M  V30 12 C -1.313822 0.347238 1.344551 0
M  V30 13 C -0.860642 0.906200 2.637057 0
M  V30 14 C -0.917948 2.272152 2.942081 0
M  V30 15 C -0.520388 2.842207 4.122414 0
M  V30 16 C -0.024988 2.036060 5.095498 0
M  V30 17 C 0.067073 0.699865 4.886475 0
M  V30 18 C 0.576790 -0.097015 5.890977 0
M  V30 19 C 0.688252 -1.462365 5.712657 0
M  V30 20 C 0.281711 -2.012725 4.515013 0
M  V30 21 C -0.223546 -1.194618 3.528918 0
M  V30 22 C -0.344736 0.170009 3.683546 0
M  V30 23 O -2.230197 -0.704790 1.442735 0
M  V30 24 C -2.461355 -1.555464 0.373004 0
M  V30 25 C -3.664106 -2.194639 0.164573 0
M  V30 26 C -3.779440 -3.029107 -0.949673 0
M  V30 27 C -2.750829 -3.245925 -1.851998 0
M  V30 28 C -1.535288 -2.615109 -1.662778 0
M  V30 29 C -1.452165 -1.786625 -0.538072 0
M  V30 30 H 1.139952 -1.841623 -3.657003 0
M  V30 31 H 2.196775 -0.561121 -5.393858 0
M  V30 32 H 3.775574 1.193950 -4.872454 0
M  V30 33 H 4.299213 1.663935 -2.485700 0
M  V30 34 H 3.217974 0.351381 -0.659721 0
M  V30 35 H -0.197909 0.937041 -0.466744 0
M  V30 36 H 0.770477 0.286909 0.854277 0
M  V30 37 H -1.959423 1.176494 0.903185 0
M  V30 38 H -1.310697 2.957046 2.185539 0
M  V30 39 H -0.601089 3.910200 4.271307 0
M  V30 40 H 0.285642 2.496870 6.023187 0
M  V30 41 H 0.899728 0.320215 6.835492 0
M  V30 42 H 1.089579 -2.084958 6.505352 0
M  V30 43 H 0.364348 -3.097466 4.358287 0
M  V30 44 H -0.516183 -1.673090 2.630350 0
M  V30 45 H -4.480858 -2.046931 0.846385 0
M  V30 46 H -4.730812 -3.534923 -1.114781 0
M  V30 47 H -2.884732 -3.901198 -2.701945 0
M  V30 48 H -0.686687 -2.730839 -2.320921 0
M  V30 END ATOM
M  V30 BEGIN BOND
M  V30 1 2 1 2
M  V30 2 2 2 3
M  V30 3 1 2 4
M  V30 4 2 4 5
M  V30 5 1 5 6
M  V30 6 2 6 7
M  V30 7 1 7 8
M  V30 8 2 8 9
M  V30 9 1 2 10
M  V30 10 1 10 11
M  V30 11 1 11 12
M  V30 12 1 12 13
M  V30 13 2 13 14
M  V30 14 1 14 15
M  V30 15 2 15 16
M  V30 16 1 16 17
M  V30 17 2 17 18
M  V30 18 1 18 19
M  V30 19 2 19 20
M  V30 20 1 20 21
M  V30 21 2 21 22
M  V30 22 1 12 23
M  V30 23 1 23 24
M  V30 24 2 24 25
M  V30 25 1 25 26
M  V30 26 2 26 27
M  V30 27 1 27 28
M  V30 28 2 28 29
M  V30 29 1 9 4
M  V30 30 1 29 10
M  V30 31 1 22 13
M  V30 32 1 29 24
M  V30 33 1 22 17
M  V30 34 1 5 30
M  V30 35 1 6 31
M  V30 36 1 7 32
M  V30 37 1 8 33
M  V30 38 1 9 34
M  V30 39 1 11 35
M  V30 40 1 11 36
M  V30 41 1 12 37
M  V30 42 1 14 38
M  V30 43 1 15 39
M  V30 44 1 16 40
M  V30 45 1 18 41
M  V30 46 1 19 42
M  V30 47 1 20 43
M  V30 48 1 21 44
M  V30 49 1 25 45
M  V30 50 1 26 46
M  V30 51 1 27 47
M  V30 52 1 28 48
M  V30 END BOND
M  V30 END CTAB
M  END
>  <Dataset>  (569) 
ChEMBL_Kinases

>  <Ligand_Instance>  (569) 
nan

>  <PDB_ID>  (569) 
nan

>  <Standardized_SMILES>  (569) 
O=S(=O)(c1ccccc1)N1CC(c2cccc3ccccc23)Oc2ccccc21

>  <Name>  (569) 
nan

>  <Pocket>  (569) 
nan

>  <ATP_Site>  (569) 
nan

>  <Peripheral>  (569) 
nan

>  <Num_H_Atoms_ProtBoundConf>  (569) 
nan

>  <Num_Resolved_Atoms>  (569) 
nan

>  <Num_Not_Resolved_Atoms>  (569) 
nan

$$$$
CHEMBL4177291
     RDKit          3D

  0  0  0  0  0  0  0  0  0  0999 V3000
M  V30 BEGIN CTAB
M  V30 COUNTS 57 61 0 0 0
M  V30 BEGIN ATOM
M  V30 1 C 5.424339 -1.733210 0.487925 0
M  V30 2 C 4.518271 -0.591999 0.781482 0
M  V30 3 N 4.932868 0.606665 1.222510 0
M  V30 4 N 3.897689 1.425521 1.395679 0
M  V30 5 C 3.912429 2.783474 1.851044 0
M  V30 6 C 3.361167 3.282831 3.007976 0
M  V30 7 C 3.463624 4.617532 3.299135 0
M  V30 8 C 4.100237 5.523701 2.488874 0
M  V30 9 C 4.660323 5.052032 1.326033 0
M  V30 10 C 4.561072 3.702511 1.023946 0
M  V30 11 C 2.771178 0.732898 1.054662 0
M  V30 12 O 1.498231 1.281654 1.114583 0
M  V30 13 C 0.332275 0.609405 0.775543 0
M  V30 14 C -0.238723 -0.065652 1.849574 0
M  V30 15 C -1.418570 -0.809534 1.735144 0
M  V30 16 C -1.997412 -0.840562 0.481834 0
M  V30 17 C -3.230238 -1.595390 0.281058 0
M  V30 18 N -3.953725 -1.764980 -0.814455 0
M  V30 19 C -5.030202 -2.545796 -0.554707 0
M  V30 20 C -6.081451 -3.023369 -1.320442 0
M  V30 21 C -7.028639 -3.817501 -0.709434 0
M  V30 22 N -8.120000 -4.331605 -1.440408 0 CHG=1 VAL=4
M  V30 23 O -8.341511 -4.137695 -2.651895 0
M  V30 24 O -9.058658 -5.122537 -0.824474 0 CHG=-1 VAL=1
M  V30 25 C -6.989226 -4.168124 0.637101 0
M  V30 26 C -5.908645 -3.658899 1.358785 0
M  V30 27 C -4.933401 -2.860339 0.797877 0
M  V30 28 N -3.827052 -2.271100 1.293457 0
M  V30 29 C -1.456278 -0.181588 -0.604863 0
M  V30 30 C -0.291162 0.545155 -0.463701 0
M  V30 31 C 3.144770 -0.537222 0.666315 0
M  V30 32 C 2.265613 -1.611836 0.222484 0
M  V30 33 N 1.916616 -1.839260 -1.011093 0
M  V30 34 N 1.072080 -2.878546 -1.400483 0
M  V30 35 C 1.094817 -3.186330 -2.788480 0
M  V30 36 N 0.321183 -4.200932 -3.405807 0
M  V30 37 S 2.016362 -2.420122 -3.895114 0
M  V30 38 H 4.862819 -2.657005 0.247520 0
M  V30 39 H 6.174646 -1.475297 -0.288135 0
M  V30 40 H 5.963737 -1.964735 1.436093 0
M  V30 41 H 2.868379 2.533534 3.618037 0
M  V30 42 H 3.005222 4.947132 4.230820 0
M  V30 43 H 4.183968 6.566204 2.709779 0
M  V30 44 H 5.170681 5.716871 0.654539 0
M  V30 45 H 5.023755 3.388266 0.090096 0
M  V30 46 H 0.187423 -0.068745 2.865349 0
M  V30 47 H -1.840027 -1.325443 2.591215 0
M  V30 48 H -6.143277 -2.769127 -2.375131 0
M  V30 49 H -7.732737 -4.789283 1.108955 0
M  V30 50 H -5.856922 -3.918175 2.407743 0
M  V30 51 H -3.566109 -2.382685 2.306454 0
M  V30 52 H -1.908347 -0.203149 -1.593009 0
M  V30 53 H 0.220983 1.098718 -1.240809 0
M  V30 54 H 1.870549 -2.277968 0.995999 0
M  V30 55 H 0.423526 -3.469125 -0.835476 0
M  V30 56 H 0.186655 -5.238293 -3.325782 0
M  V30 57 H -0.393158 -4.194699 -4.180831 0
M  V30 END ATOM
M  V30 BEGIN BOND
M  V30 1 1 1 2
M  V30 2 2 2 3
M  V30 3 1 3 4
M  V30 4 1 4 5
M  V30 5 2 5 6
M  V30 6 1 6 7
M  V30 7 2 7 8
M  V30 8 1 8 9
M  V30 9 2 9 10
M  V30 10 1 4 11
M  V30 11 1 11 12
M  V30 12 1 12 13
M  V30 13 2 13 14
M  V30 14 1 14 15
M  V30 15 2 15 16
M  V30 16 1 16 17
M  V30 17 2 17 18
M  V30 18 1 18 19
M  V30 19 2 19 20
M  V30 20 1 20 21
M  V30 21 1 21 22
M  V30 22 2 22 23
M  V30 23 1 22 24
M  V30 24 2 21 25
M  V30 25 1 25 26
M  V30 26 2 26 27
M  V30 27 1 27 28
M  V30 28 1 16 29
M  V30 29 2 29 30
M  V30 30 2 11 31
M  V30 31 1 31 32
M  V30 32 2 32 33
M  V30 33 1 33 34
M  V30 34 1 34 35
M  V30 35 1 35 36
M  V30 36 2 35 37
M  V30 37 1 31 2
M  V30 38 1 10 5
M  V30 39 1 30 13
M  V30 40 1 28 17
M  V30 41 1 27 19
M  V30 42 1 1 38
M  V30 43 1 1 39
M  V30 44 1 1 40
M  V30 45 1 6 41
M  V30 46 1 7 42
M  V30 47 1 8 43
M  V30 48 1 9 44
M  V30 49 1 10 45
M  V30 50 1 14 46
M  V30 51 1 15 47
M  V30 52 1 20 48
M  V30 53 1 25 49
M  V30 54 1 26 50
M  V30 55 1 28 51
M  V30 56 1 29 52
M  V30 57 1 30 53
M  V30 58 1 32 54
M  V30 59 1 34 55
M  V30 60 1 36 56
M  V30 61 1 36 57
M  V30 END BOND
M  V30 END CTAB
M  END
>  <Dataset>  (570) 
ChEMBL_Kinases

>  <Ligand_Instance>  (570) 
nan

>  <PDB_ID>  (570) 
nan

>  <Standardized_SMILES>  (570) 
Cc1nn(-c2ccccc2)c(Oc2ccc(-c3nc4cc([N+](=O)[O-])ccc4[nH]3)cc2)c1/C=N/NC(N)=S

>  <Name>  (570) 
nan

>  <Pocket>  (570) 
nan

>  <ATP_Site>  (570) 
nan

>  <Peripheral>  (570) 
nan

>  <Num_H_Atoms_ProtBoundConf>  (570) 
nan

>  <Num_Resolved_Atoms>  (570) 
nan

>  <Num_Not_Resolved_Atoms>  (570) 
nan

$$$$
CHEMBL4177181
     RDKit          3D

  0  0  0  0  0  0  0  0  0  0999 V3000
M  V30 BEGIN CTAB
M  V30 COUNTS 64 69 0 0 0
M  V30 BEGIN ATOM
M  V30 1 C -0.625352 -2.113007 -0.211977 0
M  V30 2 C -0.226240 -1.557418 1.102335 0 CFG=2
M  V30 3 C -1.120283 -0.427524 1.547599 0
M  V30 4 C -1.009620 0.729958 0.604788 0
M  V30 5 C 0.386146 1.127552 0.274363 0 CFG=1
M  V30 6 C 1.284851 -0.049430 -0.059054 0 CFG=1
M  V30 7 C 2.685998 0.462156 -0.288548 0
M  V30 8 C 2.772705 1.895040 -0.578372 0
M  V30 9 C 1.771628 2.717197 -0.874795 0
M  V30 10 C 2.022070 4.158950 -1.146207 0
M  V30 11 C 0.800565 4.999741 -0.840785 0 CFG=1
M  V30 12 O 1.016676 6.268861 -1.346789 0
M  V30 13 C -0.355359 4.324219 -1.587670 0
M  V30 14 C -0.689479 3.069606 -0.846393 0
M  V30 15 C 0.425096 2.062123 -0.904144 0 CFG=2
M  V30 16 C 0.339376 1.323149 -2.227337 0
M  V30 17 C 1.179388 -0.964338 1.109598 0 CFG=2
M  V30 18 C 2.091923 -2.135505 1.101509 0
M  V30 19 C 1.292323 -3.214745 1.793529 0
M  V30 20 C -0.060196 -2.629455 2.121695 0 CFG=2
M  V30 21 C -1.060115 -3.715930 2.087796 0
M  V30 22 C -1.978963 -3.723450 3.145725 0
M  V30 23 C -2.991772 -4.673904 3.296048 0
M  V30 24 C -3.108917 -5.672537 2.355300 0
M  V30 25 C -4.076318 -6.650390 2.423137 0
M  V30 26 N -4.110511 -7.590598 1.449121 0
M  V30 27 N -3.247614 -7.589649 0.449268 0
M  V30 28 C -2.275048 -6.671244 0.311341 0
M  V30 29 C -2.223344 -5.698745 1.299860 0
M  V30 30 C -1.246134 -4.744350 1.195315 0
M  V30 31 H 0.107111 -2.762124 -0.687188 0
M  V30 32 H -0.929938 -1.257454 -0.892621 0
M  V30 33 H -1.569842 -2.677912 -0.078160 0
M  V30 34 H -2.180601 -0.797314 1.462776 0
M  V30 35 H -0.887084 -0.150753 2.577076 0
M  V30 36 H -1.608608 0.578917 -0.316297 0
M  V30 37 H -1.473459 1.602376 1.143107 0
M  V30 38 H 0.881851 1.643185 1.136361 0
M  V30 39 H 0.958846 -0.514528 -0.992645 0
M  V30 40 H 3.215047 -0.194911 -0.996346 0
M  V30 41 H 3.222380 0.308912 0.691213 0
M  V30 42 H 3.779688 2.299405 -0.538502 0
M  V30 43 H 2.253929 4.336003 -2.216940 0
M  V30 44 H 2.914534 4.454421 -0.568126 0
M  V30 45 H 0.536079 5.029924 0.227190 0
M  V30 46 H 0.138808 6.728556 -1.450196 0
M  V30 47 H -1.230600 4.981366 -1.647283 0
M  V30 48 H 0.043942 4.100915 -2.582770 0
M  V30 49 H -1.592407 2.582435 -1.281319 0
M  V30 50 H -0.920410 3.333897 0.212451 0
M  V30 51 H 1.285244 0.821708 -2.498102 0
M  V30 52 H 0.190540 2.095177 -3.030006 0
M  V30 53 H -0.554508 0.659082 -2.283904 0
M  V30 54 H 1.242447 -0.391686 2.059881 0
M  V30 55 H 2.374397 -2.370681 0.068224 0
M  V30 56 H 2.983625 -1.879571 1.734218 0
M  V30 57 H 1.181392 -4.017859 1.041335 0
M  V30 58 H 1.794454 -3.564804 2.719886 0
M  V30 59 H -0.072981 -2.205904 3.165627 0
M  V30 60 H -1.973358 -2.971264 3.949798 0
M  V30 61 H -3.678740 -4.641497 4.128031 0
M  V30 62 H -4.759383 -6.601546 3.268106 0
M  V30 63 H -1.571924 -6.682438 -0.516332 0
M  V30 64 H -0.553483 -4.775743 0.368916 0
M  V30 END ATOM
M  V30 BEGIN BOND
M  V30 1 1 2 1 CFG=3
M  V30 2 1 2 3
M  V30 3 1 3 4
M  V30 4 1 4 5
M  V30 5 1 5 6
M  V30 6 1 6 7
M  V30 7 1 7 8
M  V30 8 2 8 9
M  V30 9 1 9 10
M  V30 10 1 10 11
M  V30 11 1 11 12
M  V30 12 1 11 13
M  V30 13 1 13 14
M  V30 14 1 14 15
M  V30 15 1 15 16 CFG=3
M  V30 16 1 6 17
M  V30 17 1 17 18
M  V30 18 1 18 19
M  V30 19 1 19 20
M  V30 20 1 20 21
M  V30 21 2 21 22
M  V30 22 1 22 23
M  V30 23 2 23 24
M  V30 24 1 24 25
M  V30 25 2 25 26
M  V30 26 1 26 27
M  V30 27 2 27 28
M  V30 28 1 28 29
M  V30 29 2 29 30
M  V30 30 1 17 2
M  V30 31 1 30 21
M  V30 32 1 20 2
M  V30 33 1 29 24
M  V30 34 1 15 5
M  V30 35 1 15 9
M  V30 36 1 1 31
M  V30 37 1 1 32
M  V30 38 1 1 33
M  V30 39 1 3 34
M  V30 40 1 3 35
M  V30 41 1 4 36
M  V30 42 1 4 37
M  V30 43 1 5 38 CFG=1
M  V30 44 1 6 39 CFG=3
M  V30 45 1 7 40
M  V30 46 1 7 41
M  V30 47 1 8 42
M  V30 48 1 10 43
M  V30 49 1 10 44
M  V30 50 1 11 45 CFG=1
M  V30 51 1 12 46
M  V30 52 1 13 47
M  V30 53 1 13 48
M  V30 54 1 14 49
M  V30 55 1 14 50
M  V30 56 1 16 51
M  V30 57 1 16 52
M  V30 58 1 16 53
M  V30 59 1 17 54 CFG=1
M  V30 60 1 18 55
M  V30 61 1 18 56
M  V30 62 1 19 57
M  V30 63 1 19 58
M  V30 64 1 20 59 CFG=1
M  V30 65 1 22 60
M  V30 66 1 23 61
M  V30 67 1 25 62
M  V30 68 1 28 63
M  V30 69 1 30 64
M  V30 END BOND
M  V30 END CTAB
M  END
>  <Dataset>  (571) 
ChEMBL_Kinases

>  <Ligand_Instance>  (571) 
nan

>  <PDB_ID>  (571) 
nan

>  <Standardized_SMILES>  (571) 
C[C@]12CC[C@H]3[C@@H](CC=C4C[C@@H](O)CC[C@@]43C)[C@@H]1CC[C@@H]2c1ccc2cnncc2c1

>  <Name>  (571) 
nan

>  <Pocket>  (571) 
nan

>  <ATP_Site>  (571) 
nan

>  <Peripheral>  (571) 
nan

>  <Num_H_Atoms_ProtBoundConf>  (571) 
nan

>  <Num_Resolved_Atoms>  (571) 
nan

>  <Num_Not_Resolved_Atoms>  (571) 
nan

$$$$
CHEMBL4177166
     RDKit          3D

  0  0  0  0  0  0  0  0  0  0999 V3000
M  V30 BEGIN CTAB
M  V30 COUNTS 42 45 0 0 0
M  V30 BEGIN ATOM
M  V30 1 C -0.341538 -4.270742 2.913900 0
M  V30 2 O 1.009567 -4.661133 2.807064 0
M  V30 3 C 1.937994 -4.120633 1.957923 0
M  V30 4 C 3.206084 -4.686272 2.048773 0
M  V30 5 C 4.240357 -4.224609 1.237555 0
M  V30 6 C 4.008757 -3.201737 0.338952 0
M  V30 7 C 2.755327 -2.630184 0.237218 0
M  V30 8 N 2.452226 -1.572979 -0.668412 0
M  V30 9 C 1.178540 -0.950041 -0.813968 0
M  V30 10 N 0.877530 0.130579 -0.051321 0
M  V30 11 C -0.303066 0.780794 -0.124489 0
M  V30 12 N -0.530001 1.907272 0.716806 0
M  V30 13 C -0.821479 3.270901 0.315756 0
M  V30 14 C -0.351863 4.242080 1.361934 0
M  V30 15 O 0.804194 3.735837 1.937190 0
M  V30 16 C 0.492101 2.684210 2.806053 0
M  V30 17 C -0.471378 1.710354 2.162428 0
M  V30 18 C -1.248229 0.329526 -1.013061 0
M  V30 19 N -2.504656 0.756724 -1.317304 0
M  V30 20 C -2.980988 -0.079364 -2.285071 0
M  V30 21 N -2.053103 -1.001885 -2.578849 0
M  V30 22 C -0.959218 -0.780124 -1.806895 0
M  V30 23 N 0.240416 -1.394872 -1.693271 0
M  V30 24 C 1.741239 -3.100429 1.049473 0
M  V30 25 H -0.962609 -5.191310 3.070452 0
M  V30 26 H -0.505047 -3.608893 3.793895 0
M  V30 27 H -0.714186 -3.815517 1.979670 0
M  V30 28 H 3.482782 -5.491528 2.722556 0
M  V30 29 H 5.243029 -4.628868 1.268065 0
M  V30 30 H 4.760571 -2.796963 -0.317112 0
M  V30 31 H 3.247429 -1.238354 -1.270891 0
M  V30 32 H -0.276985 3.526201 -0.636376 0
M  V30 33 H -1.906971 3.379452 0.128872 0
M  V30 34 H -1.129953 4.503755 2.111139 0
M  V30 35 H -0.086525 5.208235 0.860440 0
M  V30 36 H 1.428874 2.172638 3.116442 0
M  V30 37 H 0.043252 3.128278 3.719937 0
M  V30 38 H -1.497552 1.967005 2.540340 0
M  V30 39 H -0.218017 0.676692 2.420571 0
M  V30 40 H -3.977771 0.005823 -2.743219 0
M  V30 41 H -2.170604 -1.766490 -3.294427 0
M  V30 42 H 0.726361 -2.695975 1.022975 0
M  V30 END ATOM
M  V30 BEGIN BOND
M  V30 1 1 1 2
M  V30 2 1 2 3
M  V30 3 2 3 4
M  V30 4 1 4 5
M  V30 5 2 5 6
M  V30 6 1 6 7
M  V30 7 1 7 8
M  V30 8 1 8 9
M  V30 9 2 9 10
M  V30 10 1 10 11
M  V30 11 1 11 12
M  V30 12 1 12 13
M  V30 13 1 13 14
M  V30 14 1 14 15
M  V30 15 1 15 16
M  V30 16 1 16 17
M  V30 17 2 11 18
M  V30 18 1 18 19
M  V30 19 2 19 20
M  V30 20 1 20 21
M  V30 21 1 21 22
M  V30 22 2 22 23
M  V30 23 2 7 24
M  V30 24 1 24 3
M  V30 25 1 23 9
M  V30 26 1 17 12
M  V30 27 1 22 18
M  V30 28 1 1 25
M  V30 29 1 1 26
M  V30 30 1 1 27
M  V30 31 1 4 28
M  V30 32 1 5 29
M  V30 33 1 6 30
M  V30 34 1 8 31
M  V30 35 1 13 32
M  V30 36 1 13 33
M  V30 37 1 14 34
M  V30 38 1 14 35
M  V30 39 1 16 36
M  V30 40 1 16 37
M  V30 41 1 17 38
M  V30 42 1 17 39
M  V30 43 1 20 40
M  V30 44 1 21 41
M  V30 45 1 24 42
M  V30 END BOND
M  V30 END CTAB
M  END
>  <Dataset>  (572) 
ChEMBL_Kinases

>  <Ligand_Instance>  (572) 
nan

>  <PDB_ID>  (572) 
nan

>  <Standardized_SMILES>  (572) 
COc1cccc(Nc2nc(N3CCOCC3)c3nc[nH]c3n2)c1

>  <Name>  (572) 
nan

>  <Pocket>  (572) 
nan

>  <ATP_Site>  (572) 
nan

>  <Peripheral>  (572) 
nan

>  <Num_H_Atoms_ProtBoundConf>  (572) 
nan

>  <Num_Resolved_Atoms>  (572) 
nan

>  <Num_Not_Resolved_Atoms>  (572) 
nan

$$$$
CHEMBL4177097
     RDKit          3D

  0  0  0  0  0  0  0  0  0  0999 V3000
M  V30 BEGIN CTAB
M  V30 COUNTS 25 26 0 0 0
M  V30 BEGIN ATOM
M  V30 1 O 0.233720 -0.375569 3.681077 0
M  V30 2 C -0.636036 -0.626450 2.827153 0
M  V30 3 N -0.299189 -0.480481 1.466167 0
M  V30 4 C 0.898682 -0.083850 0.870522 0
M  V30 5 C 2.069952 0.269072 1.492961 0
M  V30 6 C 3.234619 0.655799 0.877096 0
M  V30 7 C 3.260275 0.703772 -0.497523 0
M  V30 8 C 2.112029 0.359830 -1.178166 0
M  V30 9 C 2.080120 0.392680 -2.660383 0
M  V30 10 F 1.420815 -0.704899 -3.174851 0
M  V30 11 F 3.356730 0.379955 -3.198974 0
M  V30 12 F 1.448112 1.563596 -3.052196 0
M  V30 13 C 0.972691 -0.020553 -0.504428 0
M  V30 14 C -1.908120 -1.044445 3.348192 0
M  V30 15 N -2.210575 -1.177440 4.639864 0
M  V30 16 O -3.452580 -1.575298 4.792338 0
M  V30 17 N -3.975529 -1.707058 3.614118 0
M  V30 18 C -3.045353 -1.385274 2.672495 0
M  V30 19 O -3.276634 -1.419835 1.327569 0
M  V30 20 H -1.117338 -0.722121 0.858799 0
M  V30 21 H 2.114435 0.251951 2.569456 0
M  V30 22 H 4.123302 0.921635 1.416132 0
M  V30 23 H 4.107932 0.989814 -1.103496 0
M  V30 24 H 0.085301 -0.284300 -1.101565 0
M  V30 25 H -3.511917 -2.285168 0.847605 0
M  V30 END ATOM
M  V30 BEGIN BOND
M  V30 1 2 1 2
M  V30 2 1 2 3
M  V30 3 1 3 4
M  V30 4 2 4 5
M  V30 5 1 5 6
M  V30 6 2 6 7
M  V30 7 1 7 8
M  V30 8 1 8 9
M  V30 9 1 9 10
M  V30 10 1 9 11
M  V30 11 1 9 12
M  V30 12 2 8 13
M  V30 13 1 2 14
M  V30 14 2 14 15
M  V30 15 1 15 16
M  V30 16 1 16 17
M  V30 17 2 17 18
M  V30 18 1 18 19
M  V30 19 1 13 4
M  V30 20 1 18 14
M  V30 21 1 3 20
M  V30 22 1 5 21
M  V30 23 1 6 22
M  V30 24 1 7 23
M  V30 25 1 13 24
M  V30 26 1 19 25
M  V30 END BOND
M  V30 END CTAB
M  END
>  <Dataset>  (573) 
ChEMBL_Kinases

>  <Ligand_Instance>  (573) 
nan

>  <PDB_ID>  (573) 
nan

>  <Standardized_SMILES>  (573) 
O=C(Nc1cccc(C(F)(F)F)c1)c1nonc1O

>  <Name>  (573) 
nan

>  <Pocket>  (573) 
nan

>  <ATP_Site>  (573) 
nan

>  <Peripheral>  (573) 
nan

>  <Num_H_Atoms_ProtBoundConf>  (573) 
nan

>  <Num_Resolved_Atoms>  (573) 
nan

>  <Num_Not_Resolved_Atoms>  (573) 
nan

$$$$
CHEMBL4177047
     RDKit          3D

  0  0  0  0  0  0  0  0  0  0999 V3000
M  V30 BEGIN CTAB
M  V30 COUNTS 59 63 0 0 0
M  V30 BEGIN ATOM
M  V30 1 C 7.835590 -1.485577 0.035725 0
M  V30 2 C 6.481548 -0.984585 -0.320021 0
M  V30 3 C 6.022036 -0.274846 -1.410191 0
M  V30 4 N 4.707679 -0.089606 -1.215211 0
M  V30 5 C 4.291231 -0.639534 -0.058933 0
M  V30 6 C 2.903887 -0.648804 0.488947 0
M  V30 7 C 2.818010 -0.409146 1.767060 0
M  V30 8 C 3.725280 -0.116667 2.836818 0
M  V30 9 O 4.947647 0.033588 2.683582 0
M  V30 10 N 3.027062 -0.028496 4.071828 0
M  V30 11 C 1.668888 -0.274497 3.740218 0
M  V30 12 C 0.634852 -0.298882 4.656624 0
M  V30 13 C -0.654208 -0.571555 4.212205 0
M  V30 14 C -0.867367 -0.813278 2.848098 0
M  V30 15 C -2.245154 -1.092227 2.465853 0
M  V30 16 O -3.108175 -1.197648 3.400928 0
M  V30 17 N -2.761984 -1.264091 1.170214 0
M  V30 18 C -4.179461 -1.541719 0.959902 0 CFG=2
M  V30 19 C -4.329280 -2.810835 0.168101 0
M  V30 20 O -3.708156 -2.686678 -1.075659 0
M  V30 21 C -4.834787 -0.387003 0.252896 0
M  V30 22 C -6.036339 0.076644 0.754114 0
M  V30 23 C -6.761705 1.118468 0.226061 0
M  V30 24 C -6.252850 1.763861 -0.904250 0
M  V30 25 C -5.036738 1.293563 -1.410428 0
M  V30 26 C -4.334621 0.249546 -0.859863 0
M  V30 27 C 0.218893 -0.767636 2.014076 0
M  V30 28 C 1.508379 -0.503874 2.389114 0
M  V30 29 C 1.952391 -0.822937 -0.572195 0
M  V30 30 C 0.939041 -0.022538 -1.115826 0
M  V30 31 C 0.128651 -0.400502 -2.144387 0
M  V30 32 C 0.302107 -1.650921 -2.698873 0
M  V30 33 C 1.271978 -2.493621 -2.221775 0
M  V30 34 C 2.080555 -2.083634 -1.177298 0
M  V30 35 N 5.398404 -1.178506 0.461296 0
M  V30 36 H 7.877592 -1.561554 1.165241 0
M  V30 37 H 8.654040 -0.800658 -0.256905 0
M  V30 38 H 7.947556 -2.522459 -0.321215 0
M  V30 39 H 6.656218 0.038531 -2.226508 0
M  V30 40 H 4.114501 0.435779 -1.916949 0
M  V30 41 H 3.502744 0.176399 4.977684 0
M  V30 42 H 0.777233 -0.115127 5.713349 0
M  V30 43 H -1.435867 -0.583026 4.956543 0
M  V30 44 H -2.072572 -1.182125 0.385255 0
M  V30 45 H -4.659182 -1.694128 1.948293 0
M  V30 46 H -5.394106 -3.095891 0.101962 0
M  V30 47 H -3.802599 -3.654043 0.671847 0
M  V30 48 H -4.335007 -2.900563 -1.822675 0
M  V30 49 H -6.507358 -0.371295 1.637442 0
M  V30 50 H -7.693250 1.489184 0.604181 0
M  V30 51 H -6.744149 2.594297 -1.396481 0
M  V30 52 H -4.586467 1.760001 -2.298879 0
M  V30 53 H -3.398453 -0.107192 -1.257119 0
M  V30 54 H -0.105491 -0.996843 1.046587 0
M  V30 55 H 0.927259 0.931559 -0.572634 0
M  V30 56 H -0.603897 0.352971 -2.432990 0
M  V30 57 H -0.368800 -1.902290 -3.516780 0
M  V30 58 H 1.347412 -3.454890 -2.709372 0
M  V30 59 H 2.818229 -2.847397 -0.889083 0
M  V30 END ATOM
M  V30 BEGIN BOND
M  V30 1 1 1 2
M  V30 2 2 2 3
M  V30 3 1 3 4
M  V30 4 1 4 5
M  V30 5 1 5 6
M  V30 6 2 6 7
M  V30 7 1 7 8
M  V30 8 2 8 9
M  V30 9 1 8 10
M  V30 10 1 10 11
M  V30 11 2 11 12
M  V30 12 1 12 13
M  V30 13 2 13 14
M  V30 14 1 14 15
M  V30 15 2 15 16
M  V30 16 1 15 17
M  V30 17 1 17 18
M  V30 18 1 18 19
M  V30 19 1 19 20
M  V30 20 1 18 21
M  V30 21 2 21 22
M  V30 22 1 22 23
M  V30 23 2 23 24
M  V30 24 1 24 25
M  V30 25 2 25 26
M  V30 26 1 14 27
M  V30 27 2 27 28
M  V30 28 1 6 29
M  V30 29 2 29 30
M  V30 30 1 30 31
M  V30 31 2 31 32
M  V30 32 1 32 33
M  V30 33 2 33 34
M  V30 34 2 5 35
M  V30 35 1 35 2
M  V30 36 1 28 7
M  V30 37 1 34 29
M  V30 38 1 28 11
M  V30 39 1 26 21
M  V30 40 1 1 36
M  V30 41 1 1 37
M  V30 42 1 1 38
M  V30 43 1 3 39
M  V30 44 1 4 40
M  V30 45 1 10 41
M  V30 46 1 12 42
M  V30 47 1 13 43
M  V30 48 1 17 44
M  V30 49 1 18 45 CFG=1
M  V30 50 1 19 46
M  V30 51 1 19 47
M  V30 52 1 20 48
M  V30 53 1 22 49
M  V30 54 1 23 50
M  V30 55 1 24 51
M  V30 56 1 25 52
M  V30 57 1 26 53
M  V30 58 1 27 54
M  V30 59 1 30 55
M  V30 60 1 31 56
M  V30 61 1 32 57
M  V30 62 1 33 58
M  V30 63 1 34 59
M  V30 END BOND
M  V30 END CTAB
M  END
>  <Dataset>  (574) 
ChEMBL_Kinases

>  <Ligand_Instance>  (574) 
nan

>  <PDB_ID>  (574) 
nan

>  <Standardized_SMILES>  (574) 
Cc1c[nH]c(/C(=C2\C(=O)Nc3ccc(C(=O)N[C@H](CO)c4ccccc4)cc32)c2ccccc2)n1

>  <Name>  (574) 
nan

>  <Pocket>  (574) 
nan

>  <ATP_Site>  (574) 
nan

>  <Peripheral>  (574) 
nan

>  <Num_H_Atoms_ProtBoundConf>  (574) 
nan

>  <Num_Resolved_Atoms>  (574) 
nan

>  <Num_Not_Resolved_Atoms>  (574) 
nan

$$$$
CHEMBL4177033
     RDKit          3D

  0  0  0  0  0  0  0  0  0  0999 V3000
M  V30 BEGIN CTAB
M  V30 COUNTS 39 41 0 0 0
M  V30 BEGIN ATOM
M  V30 1 N 0.737651 -2.671905 5.269056 0
M  V30 2 C 0.142480 -3.550656 4.319556 0
M  V30 3 N -0.344116 -4.793574 4.491458 0
M  V30 4 N -0.811702 -5.272550 3.363223 0
M  V30 5 C -0.656456 -4.357995 2.371807 0
M  V30 6 C -0.985081 -4.381712 1.013307 0
M  V30 7 C -0.696963 -3.267110 0.227061 0
M  V30 8 C -0.095412 -2.171196 0.811267 0
M  V30 9 N 0.262455 -0.957204 0.144383 0
M  V30 10 C 1.455019 -0.561398 -0.520923 0
M  V30 11 O 2.425011 -1.395755 -0.569046 0
M  V30 12 C 1.491275 0.806171 -1.119184 0
M  V30 13 C 0.436984 1.035586 -2.158949 0
M  V30 14 C -0.349338 2.292724 -1.961676 0
M  V30 15 C -0.765914 2.506754 -0.529099 0
M  V30 16 C 0.337213 2.427175 0.455387 0
M  V30 17 N 0.570527 3.666461 1.170113 0
M  V30 18 C 1.601866 1.908474 -0.114960 0
M  V30 19 C 0.227648 -2.151831 2.153903 0
M  V30 20 C -0.047509 -3.252397 2.969998 0
M  V30 21 H -0.077101 -2.235929 5.753068 0
M  V30 22 H 1.780271 -2.794842 5.123122 0
M  V30 23 H -1.254789 -6.204061 3.157772 0
M  V30 24 H -1.456379 -5.240312 0.555615 0
M  V30 25 H -0.913118 -3.198082 -0.819540 0
M  V30 26 H -0.603073 -0.386345 0.260816 0
M  V30 27 H 2.469281 0.831690 -1.670634 0
M  V30 28 H -0.261184 0.175413 -2.093017 0
M  V30 29 H 0.854003 1.027122 -3.183728 0
M  V30 30 H -1.223885 2.278278 -2.640431 0
M  V30 31 H 0.273482 3.161529 -2.256509 0
M  V30 32 H -1.533237 1.749812 -0.305818 0
M  V30 33 H -1.259554 3.505405 -0.391815 0
M  V30 34 H 0.033302 1.697497 1.262309 0
M  V30 35 H 1.521511 3.733104 1.543777 0
M  V30 36 H 0.163956 4.499972 0.737559 0
M  V30 37 H 2.234842 2.761205 -0.481453 0
M  V30 38 H 2.208953 1.484857 0.723619 0
M  V30 39 H 0.694044 -1.345178 2.684723 0
M  V30 END ATOM
M  V30 BEGIN BOND
M  V30 1 1 1 2
M  V30 2 2 2 3
M  V30 3 1 3 4
M  V30 4 1 4 5
M  V30 5 2 5 6
M  V30 6 1 6 7
M  V30 7 2 7 8
M  V30 8 1 8 9
M  V30 9 1 9 10
M  V30 10 2 10 11
M  V30 11 1 10 12
M  V30 12 1 12 13
M  V30 13 1 13 14
M  V30 14 1 14 15
M  V30 15 1 15 16
M  V30 16 1 16 17
M  V30 17 1 16 18
M  V30 18 1 8 19
M  V30 19 2 19 20
M  V30 20 1 20 2
M  V30 21 1 20 5
M  V30 22 1 18 12
M  V30 23 1 1 21
M  V30 24 1 1 22
M  V30 25 1 4 23
M  V30 26 1 6 24
M  V30 27 1 7 25
M  V30 28 1 9 26
M  V30 29 1 12 27
M  V30 30 1 13 28
M  V30 31 1 13 29
M  V30 32 1 14 30
M  V30 33 1 14 31
M  V30 34 1 15 32
M  V30 35 1 15 33
M  V30 36 1 16 34
M  V30 37 1 17 35
M  V30 38 1 17 36
M  V30 39 1 18 37
M  V30 40 1 18 38
M  V30 41 1 19 39
M  V30 END BOND
M  V30 END CTAB
M  END
>  <Dataset>  (575) 
ChEMBL_Kinases

>  <Ligand_Instance>  (575) 
nan

>  <PDB_ID>  (575) 
nan

>  <Standardized_SMILES>  (575) 
Nc1n[nH]c2ccc(NC(=O)C3CCCC(N)C3)cc12

>  <Name>  (575) 
nan

>  <Pocket>  (575) 
nan

>  <ATP_Site>  (575) 
nan

>  <Peripheral>  (575) 
nan

>  <Num_H_Atoms_ProtBoundConf>  (575) 
nan

>  <Num_Resolved_Atoms>  (575) 
nan

>  <Num_Not_Resolved_Atoms>  (575) 
nan

$$$$
CHEMBL4177025
     RDKit          3D

  0  0  0  0  0  0  0  0  0  0999 V3000
M  V30 BEGIN CTAB
M  V30 COUNTS 58 62 0 0 0
M  V30 BEGIN ATOM
M  V30 1 C -0.847309 -0.463693 -6.550842 0
M  V30 2 C -0.116724 -0.991329 -5.386200 0
M  V30 3 N 1.214862 -0.838942 -5.124537 0
M  V30 4 N 1.529803 -1.445320 -3.989663 0
M  V30 5 C 2.849740 -1.461897 -3.450403 0
M  V30 6 C 3.636889 -2.585408 -3.690508 0
M  V30 7 C 4.922220 -2.656875 -3.193301 0
M  V30 8 C 5.448863 -1.601628 -2.442564 0
M  V30 9 C 4.652130 -0.477392 -2.206079 0
M  V30 10 C 3.350270 -0.407624 -2.710988 0
M  V30 11 C 0.422419 -2.029447 -3.443334 0
M  V30 12 S 0.397836 -2.951902 -1.912296 0
M  V30 13 C 0.068407 -1.804096 -0.577652 0
M  V30 14 C 1.117027 -1.173951 0.069939 0
M  V30 15 C 0.926961 -0.267259 1.119332 0
M  V30 16 C -0.381060 -0.023085 1.488943 0
M  V30 17 C -0.625050 0.917644 2.581315 0
M  V30 18 N -1.813499 1.291392 3.091220 0
M  V30 19 C -1.667051 2.177670 4.094401 0
M  V30 20 C -2.630280 2.803099 4.876531 0
M  V30 21 C -2.120979 3.662976 5.824412 0
M  V30 22 C -3.050800 4.367939 6.695240 0
M  V30 23 O -4.284145 4.170104 6.554721 0
M  V30 24 O -2.614990 5.250366 7.674060 0
M  V30 25 C -0.761033 3.879933 5.977976 0
M  V30 26 C 0.151397 3.237480 5.179926 0
M  V30 27 C -0.291765 2.353670 4.200103 0
M  V30 28 N 0.316817 1.585401 3.279390 0
M  V30 29 C -1.460776 -0.626661 0.873870 0
M  V30 30 C -1.229039 -1.524399 -0.168175 0
M  V30 31 C -0.590972 -1.734387 -4.328963 0
M  V30 32 C -1.961631 -2.152483 -4.161973 0
M  V30 33 N -2.821323 -1.809942 -5.066362 0
M  V30 34 N -4.171311 -2.168548 -4.990673 0
M  V30 35 C -5.009919 -1.021379 -4.993099 0
M  V30 36 N -6.425805 -1.132116 -4.923365 0
M  V30 37 O -5.195253 0.220258 -5.029257 0
M  V30 38 H -1.008669 -1.197184 -7.354919 0
M  V30 39 H -1.824826 -0.008911 -6.290924 0
M  V30 40 H -0.250624 0.360860 -7.016427 0
M  V30 41 H 3.282062 -3.428556 -4.262950 0
M  V30 42 H 5.616198 -3.473054 -3.317018 0
M  V30 43 H 6.453212 -1.583159 -2.016616 0
M  V30 44 H 4.972784 0.390975 -1.635037 0
M  V30 45 H 2.729585 0.472737 -2.524467 0
M  V30 46 H 2.137705 -1.373263 -0.228465 0
M  V30 47 H 1.797444 0.181868 1.572348 0
M  V30 48 H -3.667399 2.600474 4.716919 0
M  V30 49 H -3.204811 6.003007 8.023216 0
M  V30 50 H -0.445357 4.580199 6.756738 0
M  V30 51 H 1.209617 3.407515 5.300839 0
M  V30 52 H 1.361234 1.520426 3.132483 0
M  V30 53 H -2.479028 -0.421509 1.178714 0
M  V30 54 H -2.082056 -2.008114 -0.661937 0
M  V30 55 H -2.300161 -2.737539 -3.316855 0
M  V30 56 H -4.688951 -3.071681 -4.933970 0
M  V30 57 H -7.379096 -1.104923 -5.384456 0
M  V30 58 H -7.450996 -1.223153 -4.818615 0
M  V30 END ATOM
M  V30 BEGIN BOND
M  V30 1 1 1 2
M  V30 2 2 2 3
M  V30 3 1 3 4
M  V30 4 1 4 5
M  V30 5 2 5 6
M  V30 6 1 6 7
M  V30 7 2 7 8
M  V30 8 1 8 9
M  V30 9 2 9 10
M  V30 10 1 4 11
M  V30 11 1 11 12
M  V30 12 1 12 13
M  V30 13 2 13 14
M  V30 14 1 14 15
M  V30 15 2 15 16
M  V30 16 1 16 17
M  V30 17 2 17 18
M  V30 18 1 18 19
M  V30 19 2 19 20
M  V30 20 1 20 21
M  V30 21 1 21 22
M  V30 22 2 22 23
M  V30 23 1 22 24
M  V30 24 2 21 25
M  V30 25 1 25 26
M  V30 26 2 26 27
M  V30 27 1 27 28
M  V30 28 1 16 29
M  V30 29 2 29 30
M  V30 30 2 11 31
M  V30 31 1 31 32
M  V30 32 2 32 33
M  V30 33 1 33 34
M  V30 34 1 34 35
M  V30 35 1 35 36
M  V30 36 2 35 37
M  V30 37 1 31 2
M  V30 38 1 10 5
M  V30 39 1 30 13
M  V30 40 1 28 17
M  V30 41 1 27 19
M  V30 42 1 1 38
M  V30 43 1 1 39
M  V30 44 1 1 40
M  V30 45 1 6 41
M  V30 46 1 7 42
M  V30 47 1 8 43
M  V30 48 1 9 44
M  V30 49 1 10 45
M  V30 50 1 14 46
M  V30 51 1 15 47
M  V30 52 1 20 48
M  V30 53 1 24 49
M  V30 54 1 25 50
M  V30 55 1 26 51
M  V30 56 1 28 52
M  V30 57 1 29 53
M  V30 58 1 30 54
M  V30 59 1 32 55
M  V30 60 1 34 56
M  V30 61 1 36 57
M  V30 62 1 36 58
M  V30 END BOND
M  V30 END CTAB
M  END
>  <Dataset>  (576) 
ChEMBL_Kinases

>  <Ligand_Instance>  (576) 
nan

>  <PDB_ID>  (576) 
nan

>  <Standardized_SMILES>  (576) 
Cc1nn(-c2ccccc2)c(Sc2ccc(-c3nc4cc(C(=O)O)ccc4[nH]3)cc2)c1/C=N/NC(N)=O

>  <Name>  (576) 
nan

>  <Pocket>  (576) 
nan

>  <ATP_Site>  (576) 
nan

>  <Peripheral>  (576) 
nan

>  <Num_H_Atoms_ProtBoundConf>  (576) 
nan

>  <Num_Resolved_Atoms>  (576) 
nan

>  <Num_Not_Resolved_Atoms>  (576) 
nan

$$$$
CHEMBL4177020
     RDKit          3D

  0  0  0  0  0  0  0  0  0  0999 V3000
M  V30 BEGIN CTAB
M  V30 COUNTS 48 51 0 0 0
M  V30 BEGIN ATOM
M  V30 1 C -0.653100 -4.664182 3.969934 0
M  V30 2 O -1.739004 -5.265423 3.293272 0
M  V30 3 C -2.321770 -4.704206 2.166055 0
M  V30 4 C -1.843875 -3.496241 1.647947 0
M  V30 5 C -2.394940 -2.887734 0.514939 0
M  V30 6 C -1.779009 -1.615110 0.092184 0
M  V30 7 C -0.428087 -1.486564 0.340295 0
M  V30 8 N 0.143410 -0.330522 -0.040529 0
M  V30 9 C -0.504274 0.682009 -0.633012 0
M  V30 10 C 0.023927 1.868965 -1.036807 0
M  V30 11 N 1.405789 2.311659 -0.919807 0
M  V30 12 C 1.828360 3.606742 -1.393550 0
M  V30 13 C 2.169622 4.403263 -0.128866 0
M  V30 14 O 3.290965 3.845771 0.423568 0
M  V30 15 C 3.250881 2.505454 0.683210 0
M  V30 16 C 4.669165 1.991375 0.806637 0
M  V30 17 C 2.597239 2.224627 2.041676 0
M  V30 18 C 2.567928 1.672403 -0.375558 0
M  V30 19 S -1.181244 2.825137 -1.729707 0
M  V30 20 N -2.561082 1.577694 -1.491363 0
M  V30 21 C -1.849590 0.583012 -0.892770 0
M  V30 22 C -2.474609 -0.590484 -0.516520 0
M  V30 23 C -3.461161 -3.521016 -0.111685 0
M  V30 24 C -3.934833 -4.713318 0.397659 0
M  V30 25 C -3.382803 -5.300161 1.512923 0
M  V30 26 N -3.900943 -6.531406 2.005932 0
M  V30 27 H 0.193824 -4.412078 3.291373 0
M  V30 28 H -0.281614 -5.367084 4.737060 0
M  V30 29 H -1.035118 -3.767962 4.488820 0
M  V30 30 H -1.013280 -3.065477 2.191952 0
M  V30 31 H 0.225581 -2.223044 0.812617 0
M  V30 32 H 0.992379 4.154041 -1.865972 0
M  V30 33 H 2.699747 3.600027 -2.054306 0
M  V30 34 H 1.280720 4.400086 0.523661 0
M  V30 35 H 2.417855 5.419869 -0.453248 0
M  V30 36 H 5.133084 1.832773 -0.192829 0
M  V30 37 H 4.679640 0.993055 1.301230 0
M  V30 38 H 5.239021 2.678078 1.451453 0
M  V30 39 H 1.545836 2.539664 2.078249 0
M  V30 40 H 2.649731 1.138286 2.260717 0
M  V30 41 H 3.151527 2.755497 2.835685 0
M  V30 42 H 3.274171 1.471127 -1.232242 0
M  V30 43 H 2.371982 0.676315 0.077673 0
M  V30 44 H -3.507413 -0.832804 -0.643450 0
M  V30 45 H -3.852970 -3.011896 -0.983270 0
M  V30 46 H -4.766822 -5.166683 -0.126724 0
M  V30 47 H -3.417370 -7.040140 2.775518 0
M  V30 48 H -4.773450 -6.930606 1.594700 0
M  V30 END ATOM
M  V30 BEGIN BOND
M  V30 1 1 1 2
M  V30 2 1 2 3
M  V30 3 2 3 4
M  V30 4 1 4 5
M  V30 5 1 5 6
M  V30 6 1 6 7
M  V30 7 2 7 8
M  V30 8 1 8 9
M  V30 9 2 9 10
M  V30 10 1 10 11
M  V30 11 1 11 12
M  V30 12 1 12 13
M  V30 13 1 13 14
M  V30 14 1 14 15
M  V30 15 1 15 16
M  V30 16 1 15 17
M  V30 17 1 15 18
M  V30 18 1 10 19
M  V30 19 1 19 20
M  V30 20 2 20 21
M  V30 21 1 21 22
M  V30 22 2 5 23
M  V30 23 1 23 24
M  V30 24 2 24 25
M  V30 25 1 25 26
M  V30 26 1 25 3
M  V30 27 2 22 6
M  V30 28 1 21 9
M  V30 29 1 18 11
M  V30 30 1 1 27
M  V30 31 1 1 28
M  V30 32 1 1 29
M  V30 33 1 4 30
M  V30 34 1 7 31
M  V30 35 1 12 32
M  V30 36 1 12 33
M  V30 37 1 13 34
M  V30 38 1 13 35
M  V30 39 1 16 36
M  V30 40 1 16 37
M  V30 41 1 16 38
M  V30 42 1 17 39
M  V30 43 1 17 40
M  V30 44 1 17 41
M  V30 45 1 18 42
M  V30 46 1 18 43
M  V30 47 1 22 44
M  V30 48 1 23 45
M  V30 49 1 24 46
M  V30 50 1 26 47
M  V30 51 1 26 48
M  V30 END BOND
M  V30 END CTAB
M  END
>  <Dataset>  (577) 
ChEMBL_Kinases

>  <Ligand_Instance>  (577) 
nan

>  <PDB_ID>  (577) 
nan

>  <Standardized_SMILES>  (577) 
COc1cc(-c2cnc3c(N4CCOC(C)(C)C4)snc3c2)ccc1N

>  <Name>  (577) 
nan

>  <Pocket>  (577) 
nan

>  <ATP_Site>  (577) 
nan

>  <Peripheral>  (577) 
nan

>  <Num_H_Atoms_ProtBoundConf>  (577) 
nan

>  <Num_Resolved_Atoms>  (577) 
nan

>  <Num_Not_Resolved_Atoms>  (577) 
nan

$$$$
CHEMBL4784797
     RDKit          3D

  0  0  0  0  0  0  0  0  0  0999 V3000
M  V30 BEGIN CTAB
M  V30 COUNTS 52 56 0 0 0
M  V30 BEGIN ATOM
M  V30 1 O 2.982011 0.118276 1.970876 0
M  V30 2 C 2.697444 -0.541499 2.990630 0
M  V30 3 N 3.603765 -0.612943 4.089576 0
M  V30 4 C 4.849685 0.092845 3.991794 0
M  V30 5 C 6.010189 -0.481356 3.465954 0
M  V30 6 C 7.161654 0.277226 3.413102 0
M  V30 7 C 7.205178 1.580495 3.861033 0
M  V30 8 C 6.090778 2.178250 4.382350 0
M  V30 9 C 4.944193 1.398449 4.426354 0
M  V30 10 N 1.487488 -1.261559 3.154852 0
M  V30 11 C 0.421860 -1.354572 2.216870 0
M  V30 12 C 0.421508 -2.384072 1.267746 0
M  V30 13 C -0.619884 -2.457226 0.367463 0
M  V30 14 C -1.677810 -1.576814 0.332764 0
M  V30 15 C -1.661748 -0.572139 1.271593 0
M  V30 16 C -0.638424 -0.462679 2.190915 0
M  V30 17 O -2.605032 0.412668 1.424779 0
M  V30 18 C -3.877911 0.544676 0.866862 0
M  V30 19 N -4.545188 1.575604 1.424807 0
M  V30 20 C -5.803570 1.839563 0.991246 0
M  V30 21 C -6.411582 1.089842 0.006036 0
M  V30 22 C -5.755898 0.028141 -0.585263 0
M  V30 23 C -4.481193 -0.205683 -0.116406 0
M  V30 24 C -3.847734 -1.339680 -0.783449 0
M  V30 25 O -4.645866 -1.897385 -1.612450 0
M  V30 26 N -2.540826 -1.971908 -0.724810 0
M  V30 27 C -2.211815 -2.931130 -1.723481 0
M  V30 28 C -1.539374 -2.355530 -2.931428 0
M  V30 29 C -0.189477 -2.232685 -3.080748 0
M  V30 30 C 0.451425 -1.703927 -4.179724 0
M  V30 31 N -0.312866 -1.264862 -5.206816 0
M  V30 32 C -1.655449 -1.333615 -5.175171 0
M  V30 33 C -2.229600 -1.870665 -4.052127 0
M  V30 34 H 3.396315 -1.160215 4.965651 0
M  V30 35 H 5.933632 -1.506986 3.125229 0
M  V30 36 H 8.062337 -0.173544 3.003181 0
M  V30 37 H 8.122990 2.164757 3.811701 0
M  V30 38 H 6.038533 3.193251 4.755194 0
M  V30 39 H 4.034098 1.843593 4.836910 0
M  V30 40 H 1.273642 -1.812386 4.031234 0
M  V30 41 H 1.250658 -3.071002 1.297754 0
M  V30 42 H -0.533985 -3.263451 -0.306110 0
M  V30 43 H -0.672680 0.339613 2.902982 0
M  V30 44 H -6.272820 2.682649 1.488038 0
M  V30 45 H -7.420212 1.341322 -0.306191 0
M  V30 46 H -6.194556 -0.586137 -1.360940 0
M  V30 47 H -3.236661 -3.191151 -2.185457 0
M  V30 48 H -1.894292 -3.922583 -1.430185 0
M  V30 49 H 0.487460 -2.559157 -2.309904 0
M  V30 50 H 1.525341 -1.624275 -4.258929 0
M  V30 51 H -2.280742 -0.988418 -5.984865 0
M  V30 52 H -3.330652 -1.926524 -4.027336 0
M  V30 END ATOM
M  V30 BEGIN BOND
M  V30 1 2 1 2
M  V30 2 1 2 3
M  V30 3 1 3 4
M  V30 4 2 4 5
M  V30 5 1 5 6
M  V30 6 2 6 7
M  V30 7 1 7 8
M  V30 8 2 8 9
M  V30 9 1 2 10
M  V30 10 1 10 11
M  V30 11 2 11 12
M  V30 12 1 12 13
M  V30 13 2 13 14
M  V30 14 1 14 15
M  V30 15 2 15 16
M  V30 16 1 15 17
M  V30 17 1 17 18
M  V30 18 2 18 19
M  V30 19 1 19 20
M  V30 20 2 20 21
M  V30 21 1 21 22
M  V30 22 2 22 23
M  V30 23 1 23 24
M  V30 24 2 24 25
M  V30 25 1 24 26
M  V30 26 1 26 27
M  V30 27 1 27 28
M  V30 28 2 28 29
M  V30 29 1 29 30
M  V30 30 2 30 31
M  V30 31 1 31 32
M  V30 32 2 32 33
M  V30 33 1 9 4
M  V30 34 1 16 11
M  V30 35 1 23 18
M  V30 36 1 33 28
M  V30 37 1 26 14
M  V30 38 1 3 34
M  V30 39 1 5 35
M  V30 40 1 6 36
M  V30 41 1 7 37
M  V30 42 1 8 38
M  V30 43 1 9 39
M  V30 44 1 10 40
M  V30 45 1 12 41
M  V30 46 1 13 42
M  V30 47 1 16 43
M  V30 48 1 20 44
M  V30 49 1 21 45
M  V30 50 1 22 46
M  V30 51 1 27 47
M  V30 52 1 27 48
M  V30 53 1 29 49
M  V30 54 1 30 50
M  V30 55 1 32 51
M  V30 56 1 33 52
M  V30 END BOND
M  V30 END CTAB
M  END
>  <Dataset>  (578) 
ChEMBL_Kinases

>  <Ligand_Instance>  (578) 
nan

>  <PDB_ID>  (578) 
nan

>  <Standardized_SMILES>  (578) 
O=C(Nc1ccccc1)Nc1ccc2c(c1)Oc1ncccc1C(=O)N2Cc1ccncc1

>  <Name>  (578) 
nan

>  <Pocket>  (578) 
nan

>  <ATP_Site>  (578) 
nan

>  <Peripheral>  (578) 
nan

>  <Num_H_Atoms_ProtBoundConf>  (578) 
nan

>  <Num_Resolved_Atoms>  (578) 
nan

>  <Num_Not_Resolved_Atoms>  (578) 
nan

$$$$
CHEMBL4176856
     RDKit          3D

  0  0  0  0  0  0  0  0  0  0999 V3000
M  V30 BEGIN CTAB
M  V30 COUNTS 43 45 0 0 0
M  V30 BEGIN ATOM
M  V30 1 C 0.788310 -5.415040 1.496582 0
M  V30 2 C 1.993951 -4.661769 0.926256 0
M  V30 3 N 1.627062 -3.299253 0.623967 0
M  V30 4 C 2.569641 -2.404879 0.086701 0
M  V30 5 O 3.659232 -3.050514 -0.025374 0
M  V30 6 C 2.489306 -1.025848 -0.306099 0
M  V30 7 N 3.629924 -0.430231 -0.626871 0
M  V30 8 N 3.392836 0.803625 -0.953956 0
M  V30 9 N 2.093114 1.124650 -0.877883 0
M  V30 10 C 1.728074 2.440579 -1.204301 0
M  V30 11 N 2.564951 3.410703 -1.627214 0
M  V30 12 O 1.982003 4.521599 -1.876816 0
M  V30 13 N 0.687096 4.412667 -1.646283 0
M  V30 14 C 0.547550 3.129883 -1.233889 0
M  V30 15 N -0.741306 2.747018 -0.900901 0
M  V30 16 C 1.564277 -0.026050 -0.477853 0
M  V30 17 C 0.132663 -0.255837 -0.264998 0
M  V30 18 N -0.235841 -0.311032 1.113442 0
M  V30 19 C 0.084342 0.810970 1.902147 0
M  V30 20 C -0.221114 0.501974 3.359556 0
M  V30 21 C -1.731058 0.477774 3.432795 0
M  V30 22 C -2.265700 -0.566390 2.530091 0
M  V30 23 C -1.544671 -0.855500 1.282212 0
M  V30 24 H 0.255002 -4.776441 2.245210 0
M  V30 25 H 1.154307 -6.321655 1.984646 0
M  V30 26 H 0.107662 -5.608113 0.655981 0
M  V30 27 H 2.331870 -5.174920 0.012102 0
M  V30 28 H 2.781676 -4.674827 1.715225 0
M  V30 29 H 0.669876 -2.946348 0.804157 0
M  V30 30 H -1.550514 2.584252 -0.262464 0
M  V30 31 H -1.686042 2.376172 -1.157575 0
M  V30 32 H -0.065716 -1.342564 -0.626017 0
M  V30 33 H -0.557113 0.265703 -0.942654 0
M  V30 34 H -0.367101 1.768010 1.660399 0
M  V30 35 H 1.199631 0.947294 1.877590 0
M  V30 36 H 0.155401 1.363510 3.949556 0
M  V30 37 H 0.239657 -0.441026 3.673281 0
M  V30 38 H -2.074773 1.488009 3.131061 0
M  V30 39 H -2.033515 0.268292 4.486056 0
M  V30 40 H -3.314655 -0.239712 2.261161 0
M  V30 41 H -2.455305 -1.492769 3.146740 0
M  V30 42 H -1.475774 -1.958123 1.172319 0
M  V30 43 H -2.134248 -0.543222 0.370707 0
M  V30 END ATOM
M  V30 BEGIN BOND
M  V30 1 1 1 2
M  V30 2 1 2 3
M  V30 3 1 3 4
M  V30 4 2 4 5
M  V30 5 1 4 6
M  V30 6 1 6 7
M  V30 7 2 7 8
M  V30 8 1 8 9
M  V30 9 1 9 10
M  V30 10 2 10 11
M  V30 11 1 11 12
M  V30 12 1 12 13
M  V30 13 2 13 14
M  V30 14 1 14 15
M  V30 15 1 9 16
M  V30 16 1 16 17
M  V30 17 1 17 18
M  V30 18 1 18 19
M  V30 19 1 19 20
M  V30 20 1 20 21
M  V30 21 1 21 22
M  V30 22 1 22 23
M  V30 23 2 16 6
M  V30 24 1 23 18
M  V30 25 1 14 10
M  V30 26 1 1 24
M  V30 27 1 1 25
M  V30 28 1 1 26
M  V30 29 1 2 27
M  V30 30 1 2 28
M  V30 31 1 3 29
M  V30 32 1 15 30
M  V30 33 1 15 31
M  V30 34 1 17 32
M  V30 35 1 17 33
M  V30 36 1 19 34
M  V30 37 1 19 35
M  V30 38 1 20 36
M  V30 39 1 20 37
M  V30 40 1 21 38
M  V30 41 1 21 39
M  V30 42 1 22 40
M  V30 43 1 22 41
M  V30 44 1 23 42
M  V30 45 1 23 43
M  V30 END BOND
M  V30 END CTAB
M  END
>  <Dataset>  (579) 
ChEMBL_Kinases

>  <Ligand_Instance>  (579) 
nan

>  <PDB_ID>  (579) 
nan

>  <Standardized_SMILES>  (579) 
CCNC(=O)c1nnn(-c2nonc2N)c1CN1CCCCC1

>  <Name>  (579) 
nan

>  <Pocket>  (579) 
nan

>  <ATP_Site>  (579) 
nan

>  <Peripheral>  (579) 
nan

>  <Num_H_Atoms_ProtBoundConf>  (579) 
nan

>  <Num_Resolved_Atoms>  (579) 
nan

>  <Num_Not_Resolved_Atoms>  (579) 
nan

$$$$
CHEMBL4784833
     RDKit          3D

  0  0  0  0  0  0  0  0  0  0999 V3000
M  V30 BEGIN CTAB
M  V30 COUNTS 70 72 0 0 0
M  V30 BEGIN ATOM
M  V30 1 N 1.681066 -0.622541 4.385639 0
M  V30 2 C 2.589690 0.248256 5.062990 0
M  V30 3 C 3.898097 -0.377998 5.432640 0
M  V30 4 O 4.645345 -0.835376 4.407049 0
M  V30 5 C 4.139169 -1.811487 3.607951 0
M  V30 6 C 5.213352 -2.228309 2.576460 0
M  V30 7 O 5.533112 -1.102708 1.827412 0
M  V30 8 C 6.533149 -1.411493 0.901611 0
M  V30 9 C 6.869103 -0.188754 0.103019 0
M  V30 10 O 5.767146 0.275920 -0.586454 0
M  V30 11 C 5.248171 -0.592992 -1.508533 0
M  V30 12 C 4.100082 -0.091219 -2.308877 0
M  V30 13 O 2.987720 0.257188 -1.549699 0
M  V30 14 C 1.978220 0.722602 -2.418931 0
M  V30 15 C 0.725027 1.087033 -1.701860 0
M  V30 16 C 0.112367 -0.054443 -0.982934 0
M  V30 17 O 0.658431 -1.187014 -0.960040 0
M  V30 18 N -1.120450 0.212517 -0.330497 0
M  V30 19 C -1.844224 -0.798317 0.404320 0
M  V30 20 C -2.243020 -1.977569 -0.409407 0
M  V30 21 C -3.129940 -1.736908 -1.565792 0
M  V30 22 N -4.409846 -1.168016 -1.324129 0
M  V30 23 C -5.411175 -2.060857 -1.050929 0
M  V30 24 O -5.236991 -3.308503 -0.997842 0
M  V30 25 C -6.730110 -1.653895 -0.804408 0
M  V30 26 C -7.717955 -2.552516 -0.534968 0
M  V30 27 C -9.008513 -2.093076 -0.298206 0
M  V30 28 F -10.012286 -2.969224 -0.025933 0
M  V30 29 C -9.318414 -0.740304 -0.329470 0
M  V30 30 C -8.307135 0.159996 -0.605039 0
M  V30 31 C -7.050298 -0.316440 -0.833827 0
M  V30 32 N -6.053565 0.525382 -1.102528 0
M  V30 33 C -6.021494 1.856309 -1.208652 0
M  V30 34 S -7.155431 3.011486 -1.056180 0
M  V30 35 N -4.775609 2.253235 -1.499560 0
M  V30 36 N -4.020225 1.176698 -1.577860 0
M  V30 37 C -4.807241 0.118458 -1.333259 0
M  V30 38 H 1.026331 -0.092973 3.761770 0
M  V30 39 H 1.185114 -1.279121 5.000430 0
M  V30 40 H 2.759664 1.150440 4.405857 0
M  V30 41 H 2.052993 0.645045 5.965029 0
M  V30 42 H 4.509810 0.325000 6.079849 0
M  V30 43 H 3.701753 -1.239292 6.152575 0
M  V30 44 H 3.265080 -1.418731 3.039742 0
M  V30 45 H 3.823501 -2.722023 4.153678 0
M  V30 46 H 4.809762 -3.043403 1.937517 0
M  V30 47 H 6.112342 -2.540513 3.137087 0
M  V30 48 H 6.253681 -2.282893 0.285974 0
M  V30 49 H 7.441358 -1.711499 1.492997 0
M  V30 50 H 7.716920 -0.416907 -0.599016 0
M  V30 51 H 7.241161 0.637877 0.746591 0
M  V30 52 H 4.879868 -1.488364 -0.925888 0
M  V30 53 H 6.040831 -0.931876 -2.228117 0
M  V30 54 H 3.751150 -0.849222 -3.044142 0
M  V30 55 H 4.384456 0.803612 -2.932125 0
M  V30 56 H 1.800540 -0.081407 -3.182012 0
M  V30 57 H 2.374054 1.589786 -2.982072 0
M  V30 58 H -0.019727 1.555941 -2.366275 0
M  V30 59 H 0.991418 1.832111 -0.920985 0
M  V30 60 H -1.535913 1.168731 -0.363115 0
M  V30 61 H -2.778243 -0.384997 0.857289 0
M  V30 62 H -1.227694 -1.097239 1.297373 0
M  V30 63 H -2.642008 -2.817846 0.227969 0
M  V30 64 H -1.292786 -2.433737 -0.822560 0
M  V30 65 H -3.294185 -2.713840 -2.111691 0
M  V30 66 H -2.539661 -1.141556 -2.331899 0
M  V30 67 H -7.498226 -3.619437 -0.507067 0
M  V30 68 H -10.352892 -0.435419 -0.135841 0
M  V30 69 H -8.636261 1.177916 -0.610597 0
M  V30 70 H -4.327749 3.196390 -1.663093 0
M  V30 END ATOM
M  V30 BEGIN BOND
M  V30 1 1 1 2
M  V30 2 1 2 3
M  V30 3 1 3 4
M  V30 4 1 4 5
M  V30 5 1 5 6
M  V30 6 1 6 7
M  V30 7 1 7 8
M  V30 8 1 8 9
M  V30 9 1 9 10
M  V30 10 1 10 11
M  V30 11 1 11 12
M  V30 12 1 12 13
M  V30 13 1 13 14
M  V30 14 1 14 15
M  V30 15 1 15 16
M  V30 16 2 16 17
M  V30 17 1 16 18
M  V30 18 1 18 19
M  V30 19 1 19 20
M  V30 20 1 20 21
M  V30 21 1 21 22
M  V30 22 1 22 23
M  V30 23 2 23 24
M  V30 24 1 23 25
M  V30 25 2 25 26
M  V30 26 1 26 27
M  V30 27 1 27 28
M  V30 28 2 27 29
M  V30 29 1 29 30
M  V30 30 2 30 31
M  V30 31 1 31 32
M  V30 32 1 32 33
M  V30 33 2 33 34
M  V30 34 1 33 35
M  V30 35 1 35 36
M  V30 36 2 36 37
M  V30 37 1 37 22
M  V30 38 1 31 25
M  V30 39 1 37 32
M  V30 40 1 1 38
M  V30 41 1 1 39
M  V30 42 1 2 40
M  V30 43 1 2 41
M  V30 44 1 3 42
M  V30 45 1 3 43
M  V30 46 1 5 44
M  V30 47 1 5 45
M  V30 48 1 6 46
M  V30 49 1 6 47
M  V30 50 1 8 48
M  V30 51 1 8 49
M  V30 52 1 9 50
M  V30 53 1 9 51
M  V30 54 1 11 52
M  V30 55 1 11 53
M  V30 56 1 12 54
M  V30 57 1 12 55
M  V30 58 1 14 56
M  V30 59 1 14 57
M  V30 60 1 15 58
M  V30 61 1 15 59
M  V30 62 1 18 60
M  V30 63 1 19 61
M  V30 64 1 19 62
M  V30 65 1 20 63
M  V30 66 1 20 64
M  V30 67 1 21 65
M  V30 68 1 21 66
M  V30 69 1 26 67
M  V30 70 1 29 68
M  V30 71 1 30 69
M  V30 72 1 35 70
M  V30 END BOND
M  V30 END CTAB
M  END
>  <Dataset>  (580) 
ChEMBL_Kinases

>  <Ligand_Instance>  (580) 
nan

>  <PDB_ID>  (580) 
nan

>  <Standardized_SMILES>  (580) 
NCCOCCOCCOCCOCCC(=O)NCCCn1c(=O)c2cc(F)ccc2n2c(=S)[nH]nc12

>  <Name>  (580) 
nan

>  <Pocket>  (580) 
nan

>  <ATP_Site>  (580) 
nan

>  <Peripheral>  (580) 
nan

>  <Num_H_Atoms_ProtBoundConf>  (580) 
nan

>  <Num_Resolved_Atoms>  (580) 
nan

>  <Num_Not_Resolved_Atoms>  (580) 
nan

$$$$
CHEMBL4202514
     RDKit          3D

  0  0  0  0  0  0  0  0  0  0999 V3000
M  V30 BEGIN CTAB
M  V30 COUNTS 34 36 0 0 0
M  V30 BEGIN ATOM
M  V30 1 C -0.708698 -2.718267 4.611284 0
M  V30 2 O 0.355200 -3.514354 4.121277 0
M  V30 3 C 0.868520 -3.198838 2.869941 0
M  V30 4 C 1.903902 -3.988611 2.415347 0
M  V30 5 C 2.433423 -3.693231 1.167940 0
M  V30 6 C 1.936703 -2.638502 0.405340 0
M  V30 7 C 0.896050 -1.850178 0.870189 0
M  V30 8 C 0.380934 -2.158222 2.113704 0
M  V30 9 C 0.626940 -0.841257 -0.177688 0
M  V30 10 N -0.299246 -0.000329 0.033930 0
M  V30 11 N -0.726739 1.021659 -0.788194 0
M  V30 12 C -2.165879 1.315401 -0.704477 0
M  V30 13 C -2.210148 2.602804 0.129040 0
M  V30 14 O -1.358775 3.528790 -0.441684 0
M  V30 15 C -0.941346 3.204124 -1.711111 0
M  V30 16 C -0.097655 1.927839 -1.762344 0
M  V30 17 C 1.588123 -1.135198 -1.236957 0
M  V30 18 O 1.603994 -0.440733 -2.268965 0
M  V30 19 N 2.392139 -2.246756 -0.867188 0
M  V30 20 H -0.406115 -1.652437 4.776790 0
M  V30 21 H -1.508843 -2.669901 3.818694 0
M  V30 22 H -1.194818 -3.115050 5.503870 0
M  V30 23 H 2.304992 -4.816088 2.995702 0
M  V30 24 H 3.243360 -4.324010 0.831280 0
M  V30 25 H -0.433041 -1.549704 2.489120 0
M  V30 26 H -2.609374 1.476878 -1.710207 0
M  V30 27 H -2.748033 0.521405 -0.247204 0
M  V30 28 H -3.223703 2.948174 0.331380 0
M  V30 29 H -1.743276 2.298503 1.111315 0
M  V30 30 H -0.238020 4.016751 -2.025615 0
M  V30 31 H -1.737597 3.188385 -2.463784 0
M  V30 32 H -0.285539 1.491573 -2.764536 0
M  V30 33 H 0.947672 2.123291 -1.519798 0
M  V30 34 H 3.153288 -2.657396 -1.448146 0
M  V30 END ATOM
M  V30 BEGIN BOND
M  V30 1 1 1 2
M  V30 2 1 2 3
M  V30 3 2 3 4
M  V30 4 1 4 5
M  V30 5 2 5 6
M  V30 6 1 6 7
M  V30 7 2 7 8
M  V30 8 1 7 9
M  V30 9 2 9 10 CFG=2
M  V30 10 1 10 11
M  V30 11 1 11 12
M  V30 12 1 12 13
M  V30 13 1 13 14
M  V30 14 1 14 15
M  V30 15 1 15 16
M  V30 16 1 9 17
M  V30 17 2 17 18
M  V30 18 1 17 19
M  V30 19 1 8 3
M  V30 20 1 16 11
M  V30 21 1 19 6
M  V30 22 1 1 20
M  V30 23 1 1 21
M  V30 24 1 1 22
M  V30 25 1 4 23
M  V30 26 1 5 24
M  V30 27 1 8 25
M  V30 28 1 12 26
M  V30 29 1 12 27
M  V30 30 1 13 28
M  V30 31 1 13 29
M  V30 32 1 15 30
M  V30 33 1 15 31
M  V30 34 1 16 32
M  V30 35 1 16 33
M  V30 36 1 19 34
M  V30 END BOND
M  V30 END CTAB
M  END
>  <Dataset>  (581) 
ChEMBL_Kinases

>  <Ligand_Instance>  (581) 
nan

>  <PDB_ID>  (581) 
nan

>  <Standardized_SMILES>  (581) 
COc1ccc2c(c1)C(=NN1CCOCC1)C(=O)N2

>  <Name>  (581) 
nan

>  <Pocket>  (581) 
nan

>  <ATP_Site>  (581) 
nan

>  <Peripheral>  (581) 
nan

>  <Num_H_Atoms_ProtBoundConf>  (581) 
nan

>  <Num_Resolved_Atoms>  (581) 
nan

>  <Num_Not_Resolved_Atoms>  (581) 
nan

$$$$
CHEMBL4784979
     RDKit          3D

  0  0  0  0  0  0  0  0  0  0999 V3000
M  V30 BEGIN CTAB
M  V30 COUNTS 63 67 0 0 0
M  V30 BEGIN ATOM
M  V30 1 C 9.211960 -1.264699 3.399747 0
M  V30 2 C 8.396015 -0.534159 2.386399 0
M  V30 3 C 9.142597 0.153257 1.458542 0
M  V30 4 C 8.457431 0.866044 0.471697 0
M  V30 5 C 7.061897 0.824181 0.505329 0
M  V30 6 N 6.385471 0.124121 1.451689 0
M  V30 7 C 4.957883 0.149976 1.391947 0
M  V30 8 C 4.345074 1.341776 1.048194 0
M  V30 9 C 2.959369 1.500118 0.954088 0
M  V30 10 C 2.150387 0.389273 1.223243 0
M  V30 11 C 0.697693 0.541682 1.127732 0
M  V30 12 C -0.115796 -0.375765 0.496105 0
M  V30 13 C -1.473421 -0.129850 0.466474 0
M  V30 14 C -1.944174 1.009741 1.064096 0
M  V30 15 C -3.276662 1.344049 1.088037 0
M  V30 16 C -4.576286 0.890702 0.665924 0
M  V30 17 O -5.686711 1.500399 0.857268 0
M  V30 18 N -5.006664 -0.256566 -0.025624 0
M  V30 19 C -6.441744 -0.333095 -0.257051 0
M  V30 20 C -6.785493 -1.600082 -1.006584 0
M  V30 21 C -6.069014 -1.609341 -2.342314 0
M  V30 22 C -6.264893 -3.016689 -2.903724 0
M  V30 23 N -5.369675 -3.861747 -2.158340 0
M  V30 24 C -4.039095 -3.908129 -2.691710 0
M  V30 25 C -5.476438 -3.749411 -0.749354 0
M  V30 26 C -6.516538 -2.838946 -0.211194 0
M  V30 27 N -3.277622 2.527194 1.769463 0
M  V30 28 N -2.046341 2.839087 2.105066 0
M  V30 29 C -1.144198 1.933171 1.697429 0
M  V30 30 C 0.212197 1.693437 1.730410 0
M  V30 31 C 2.762308 -0.801619 1.566750 0
M  V30 32 Cl 1.775818 -2.207737 1.909080 0
M  V30 33 C 4.135086 -0.930576 1.652459 0
M  V30 34 C 7.019713 -0.571781 2.414574 0
M  V30 35 O 6.395552 -1.221386 3.292829 0
M  V30 36 H 9.539067 -0.587149 4.196252 0
M  V30 37 H 8.647913 -2.139165 3.837230 0
M  V30 38 H 10.099280 -1.734191 2.891252 0
M  V30 39 H 10.205178 0.193597 1.421241 0
M  V30 40 H 8.947488 1.442225 -0.308312 0
M  V30 41 H 6.546735 1.390708 -0.278563 0
M  V30 42 H 4.936645 2.238349 0.828730 0
M  V30 43 H 2.548379 2.469037 0.677831 0
M  V30 44 H 0.321112 -1.256150 0.043612 0
M  V30 45 H -2.080681 -0.858400 -0.031130 0
M  V30 46 H -4.268824 -0.931369 -0.300871 0
M  V30 47 H -6.730056 0.522208 -0.901597 0
M  V30 48 H -7.014079 -0.247739 0.679351 0
M  V30 49 H -7.874410 -1.567186 -1.230509 0
M  V30 50 H -6.568420 -0.859376 -2.987791 0
M  V30 51 H -5.005321 -1.415981 -2.152503 0
M  V30 52 H -7.293412 -3.333423 -2.706984 0
M  V30 53 H -5.970730 -2.985050 -3.956568 0
M  V30 54 H -3.932066 -3.051757 -3.403543 0
M  V30 55 H -3.279924 -3.781008 -1.869208 0
M  V30 56 H -3.847812 -4.874534 -3.196370 0
M  V30 57 H -5.706488 -4.783520 -0.360604 0
M  V30 58 H -4.449375 -3.550245 -0.334570 0
M  V30 59 H -6.175959 -2.510580 0.814329 0
M  V30 60 H -7.459695 -3.411210 0.008291 0
M  V30 61 H -1.760761 3.698424 2.636385 0
M  V30 62 H 0.804577 2.438314 2.234604 0
M  V30 63 H 4.610488 -1.864028 1.921632 0
M  V30 END ATOM
M  V30 BEGIN BOND
M  V30 1 1 1 2
M  V30 2 2 2 3
M  V30 3 1 3 4
M  V30 4 2 4 5
M  V30 5 1 5 6
M  V30 6 1 6 7
M  V30 7 2 7 8
M  V30 8 1 8 9
M  V30 9 2 9 10
M  V30 10 1 10 11
M  V30 11 2 11 12
M  V30 12 1 12 13
M  V30 13 2 13 14
M  V30 14 1 14 15
M  V30 15 1 15 16
M  V30 16 2 16 17
M  V30 17 1 16 18
M  V30 18 1 18 19
M  V30 19 1 19 20
M  V30 20 1 20 21
M  V30 21 1 21 22
M  V30 22 1 22 23
M  V30 23 1 23 24
M  V30 24 1 23 25
M  V30 25 1 25 26
M  V30 26 2 15 27
M  V30 27 1 27 28
M  V30 28 1 28 29
M  V30 29 2 29 30
M  V30 30 1 10 31
M  V30 31 1 31 32
M  V30 32 2 31 33
M  V30 33 1 6 34
M  V30 34 2 34 35
M  V30 35 1 34 2
M  V30 36 1 33 7
M  V30 37 1 30 11
M  V30 38 1 29 14
M  V30 39 1 26 20
M  V30 40 1 1 36
M  V30 41 1 1 37
M  V30 42 1 1 38
M  V30 43 1 3 39
M  V30 44 1 4 40
M  V30 45 1 5 41
M  V30 46 1 8 42
M  V30 47 1 9 43
M  V30 48 1 12 44
M  V30 49 1 13 45
M  V30 50 1 18 46
M  V30 51 1 19 47
M  V30 52 1 19 48
M  V30 53 1 20 49
M  V30 54 1 21 50
M  V30 55 1 21 51
M  V30 56 1 22 52
M  V30 57 1 22 53
M  V30 58 1 24 54
M  V30 59 1 24 55
M  V30 60 1 24 56
M  V30 61 1 25 57
M  V30 62 1 25 58
M  V30 63 1 26 59
M  V30 64 1 26 60
M  V30 65 1 28 61
M  V30 66 1 30 62
M  V30 67 1 33 63
M  V30 END BOND
M  V30 END CTAB
M  END
>  <Dataset>  (582) 
ChEMBL_Kinases

>  <Ligand_Instance>  (582) 
nan

>  <PDB_ID>  (582) 
nan

>  <Standardized_SMILES>  (582) 
Cc1cccn(-c2ccc(-c3ccc4c(C(=O)NCC5CCN(C)CC5)n[nH]c4c3)c(Cl)c2)c1=O

>  <Name>  (582) 
nan

>  <Pocket>  (582) 
nan

>  <ATP_Site>  (582) 
nan

>  <Peripheral>  (582) 
nan

>  <Num_H_Atoms_ProtBoundConf>  (582) 
nan

>  <Num_Resolved_Atoms>  (582) 
nan

>  <Num_Not_Resolved_Atoms>  (582) 
nan

$$$$
CHEMBL4176653
     RDKit          3D

  0  0  0  0  0  0  0  0  0  0999 V3000
M  V30 BEGIN CTAB
M  V30 COUNTS 61 66 0 0 0
M  V30 BEGIN ATOM
M  V30 1 C 0.663910 1.955516 3.185755 0
M  V30 2 C 1.104238 0.539813 2.882868 0 CFG=2
M  V30 3 C 0.608309 -0.314457 4.043778 0
M  V30 4 C 1.606388 -1.425821 4.317305 0
M  V30 5 C 2.792969 -0.848619 5.027519 0 CFG=2
M  V30 6 O 2.532747 -0.502529 6.351391 0
M  V30 7 C 3.259500 0.366599 4.226018 0
M  V30 8 C 2.585444 0.404520 2.898913 0
M  V30 9 C 3.234425 0.324264 1.744657 0
M  V30 10 C 2.681359 0.350372 0.386882 0
M  V30 11 C 1.194426 0.477337 0.352537 0 CFG=2
M  V30 12 C 0.517367 -0.001450 1.647737 0 CFG=2
M  V30 13 C -0.940498 0.277684 1.516241 0
M  V30 14 C -1.599176 -0.494459 0.369783 0
M  V30 15 C -0.844730 -0.265193 -0.867537 0 CFG=2
M  V30 16 C -1.138956 1.088559 -1.477789 0
M  V30 17 C -0.990440 -1.247076 -1.967109 0
M  V30 18 C -2.030353 -2.169114 -2.406483 0
M  V30 19 C -3.255734 -2.298127 -1.792212 0
M  V30 20 C -4.272848 -3.151645 -2.157634 0
M  V30 21 C -4.079110 -3.975941 -3.245487 0
M  V30 22 N -4.833147 -4.903057 -3.861690 0
M  V30 23 N -4.137820 -5.390661 -4.868174 0
M  V30 24 C -2.928589 -4.808224 -4.940722 0
M  V30 25 C -2.874230 -3.897565 -3.906564 0
M  V30 26 C -1.908462 -3.018159 -3.478603 0
M  V30 27 C 0.146760 -1.239299 -2.705351 0
M  V30 28 C 1.062056 -0.238135 -2.086214 0
M  V30 29 C 0.661341 -0.442986 -0.653392 0 CFG=1
M  V30 30 H -0.426698 1.894794 3.394755 0
M  V30 31 H 0.800471 2.592075 2.286080 0
M  V30 32 H 1.169321 2.320483 4.078501 0
M  V30 33 H 0.520396 0.279959 4.973791 0
M  V30 34 H -0.347445 -0.820557 3.834227 0
M  V30 35 H 1.998983 -1.882314 3.369622 0
M  V30 36 H 1.144407 -2.268963 4.866203 0
M  V30 37 H 3.598771 -1.631535 4.965692 0
M  V30 38 H 2.618783 0.473100 6.469892 0
M  V30 39 H 4.350883 0.421341 4.171970 0
M  V30 40 H 2.869034 1.255550 4.800098 0
M  V30 41 H 4.307882 0.227251 1.814730 0
M  V30 42 H 3.031273 -0.562313 -0.179490 0
M  V30 43 H 3.114792 1.200657 -0.207980 0
M  V30 44 H 0.900657 1.542946 0.278710 0
M  V30 45 H 0.652243 -1.118042 1.667964 0
M  V30 46 H -1.501589 0.110495 2.437305 0
M  V30 47 H -1.053537 1.375520 1.296588 0
M  V30 48 H -2.594076 0.039982 0.252617 0
M  V30 49 H -1.802585 -1.512243 0.675446 0
M  V30 50 H -0.437624 1.877561 -1.212016 0
M  V30 51 H -2.143776 1.400390 -1.104892 0
M  V30 52 H -1.208492 1.045435 -2.582485 0
M  V30 53 H -3.521382 -1.707537 -0.939013 0
M  V30 54 H -5.212246 -3.232029 -1.664894 0
M  V30 55 H -5.805215 -5.145449 -3.538440 0
M  V30 56 H -2.130340 -4.997756 -5.661781 0
M  V30 57 H -0.993646 -3.030261 -4.064267 0
M  V30 58 H 0.497429 -1.772360 -3.587653 0
M  V30 59 H 0.800465 0.774021 -2.394257 0
M  V30 60 H 2.123623 -0.491145 -2.251527 0
M  V30 61 H 0.834275 -1.471815 -0.346487 0
M  V30 END ATOM
M  V30 BEGIN BOND
M  V30 1 1 2 1 CFG=1
M  V30 2 1 2 3
M  V30 3 1 3 4
M  V30 4 1 4 5
M  V30 5 1 5 6
M  V30 6 1 5 7
M  V30 7 1 7 8
M  V30 8 2 8 9
M  V30 9 1 9 10
M  V30 10 1 10 11
M  V30 11 1 11 12
M  V30 12 1 12 13
M  V30 13 1 13 14
M  V30 14 1 14 15
M  V30 15 1 15 16 CFG=3
M  V30 16 1 15 17
M  V30 17 1 17 18
M  V30 18 2 18 19
M  V30 19 1 19 20
M  V30 20 2 20 21
M  V30 21 1 21 22
M  V30 22 1 22 23
M  V30 23 2 23 24
M  V30 24 1 24 25
M  V30 25 2 25 26
M  V30 26 2 17 27
M  V30 27 1 27 28
M  V30 28 1 28 29
M  V30 29 1 8 2
M  V30 30 1 29 11
M  V30 31 1 12 2
M  V30 32 1 29 15
M  V30 33 1 26 18
M  V30 34 1 25 21
M  V30 35 1 1 30
M  V30 36 1 1 31
M  V30 37 1 1 32
M  V30 38 1 3 33
M  V30 39 1 3 34
M  V30 40 1 4 35
M  V30 41 1 4 36
M  V30 42 1 5 37 CFG=1
M  V30 43 1 6 38
M  V30 44 1 7 39
M  V30 45 1 7 40
M  V30 46 1 9 41
M  V30 47 1 10 42
M  V30 48 1 10 43
M  V30 49 1 11 44 CFG=3
M  V30 50 1 12 45 CFG=1
M  V30 51 1 13 46
M  V30 52 1 13 47
M  V30 53 1 14 48
M  V30 54 1 14 49
M  V30 55 1 16 50
M  V30 56 1 16 51
M  V30 57 1 16 52
M  V30 58 1 19 53
M  V30 59 1 20 54
M  V30 60 1 22 55
M  V30 61 1 24 56
M  V30 62 1 26 57
M  V30 63 1 27 58
M  V30 64 1 28 59
M  V30 65 1 28 60
M  V30 66 1 29 61 CFG=1
M  V30 END BOND
M  V30 END CTAB
M  END
>  <Dataset>  (583) 
ChEMBL_Kinases

>  <Ligand_Instance>  (583) 
nan

>  <PDB_ID>  (583) 
nan

>  <Standardized_SMILES>  (583) 
C[C@]12CC[C@H](O)CC1=CC[C@@H]1[C@@H]2CC[C@]2(C)C(c3ccc4[nH]ncc4c3)=CC[C@@H]12

>  <Name>  (583) 
nan

>  <Pocket>  (583) 
nan

>  <ATP_Site>  (583) 
nan

>  <Peripheral>  (583) 
nan

>  <Num_H_Atoms_ProtBoundConf>  (583) 
nan

>  <Num_Resolved_Atoms>  (583) 
nan

>  <Num_Not_Resolved_Atoms>  (583) 
nan

$$$$
CHEMBL4176627
     RDKit          3D

  0  0  0  0  0  0  0  0  0  0999 V3000
M  V30 BEGIN CTAB
M  V30 COUNTS 36 38 0 0 0
M  V30 BEGIN ATOM
M  V30 1 N -1.224480 -5.444793 2.222996 0
M  V30 2 C 0.116649 -5.018654 2.455549 0
M  V30 3 N 1.084206 -5.463344 3.251322 0
M  V30 4 N 2.183566 -4.731062 3.122190 0
M  V30 5 C 1.951259 -3.752052 2.202838 0
M  V30 6 C 2.829803 -2.765372 1.764414 0
M  V30 7 C 2.333014 -1.893352 0.818360 0
M  V30 8 C 1.043455 -2.042181 0.376887 0
M  V30 9 N 0.599686 -1.088113 -0.614442 0
M  V30 10 C 0.037251 0.013097 0.106316 0
M  V30 11 O 0.000382 0.018069 1.384312 0
M  V30 12 C -0.578744 1.284727 -0.304761 0
M  V30 13 C 0.317478 2.389428 0.262494 0
M  V30 14 C -0.548848 3.625008 0.333227 0
M  V30 15 C -1.342919 3.718673 -0.951287 0
M  V30 16 C -0.762974 2.890625 -2.051397 0
M  V30 17 N -0.643198 1.492833 -1.718884 0
M  V30 18 C 0.195114 -3.033190 0.832177 0
M  V30 19 C 0.649604 -3.929357 1.779837 0
M  V30 20 H -2.021620 -4.883692 2.645803 0
M  V30 21 H -1.680381 -6.215255 1.712963 0
M  V30 22 H 3.024783 -4.976032 3.695784 0
M  V30 23 H 3.833226 -2.718208 2.165251 0
M  V30 24 H 2.996738 -1.124702 0.467747 0
M  V30 25 H 0.526258 -0.883460 -1.635660 0
M  V30 26 H -1.582953 1.448975 0.102211 0
M  V30 27 H 0.686056 2.071580 1.248126 0
M  V30 28 H 1.192334 2.562494 -0.394597 0
M  V30 29 H -1.299339 3.433478 1.148774 0
M  V30 30 H -0.007887 4.538762 0.602542 0
M  V30 31 H -2.404661 3.443480 -0.823333 0
M  V30 32 H -1.316434 4.776906 -1.273671 0
M  V30 33 H -1.450092 2.973382 -2.920033 0
M  V30 34 H 0.225819 3.276830 -2.408096 0
M  V30 35 H 0.068217 1.000504 -2.274162 0
M  V30 36 H -0.816704 -3.122906 0.463186 0
M  V30 END ATOM
M  V30 BEGIN BOND
M  V30 1 1 1 2
M  V30 2 2 2 3
M  V30 3 1 3 4
M  V30 4 1 4 5
M  V30 5 2 5 6
M  V30 6 1 6 7
M  V30 7 2 7 8
M  V30 8 1 8 9
M  V30 9 1 9 10
M  V30 10 2 10 11
M  V30 11 1 10 12
M  V30 12 1 12 13
M  V30 13 1 13 14
M  V30 14 1 14 15
M  V30 15 1 15 16
M  V30 16 1 16 17
M  V30 17 1 8 18
M  V30 18 2 18 19
M  V30 19 1 19 2
M  V30 20 1 19 5
M  V30 21 1 17 12
M  V30 22 1 1 20
M  V30 23 1 1 21
M  V30 24 1 4 22
M  V30 25 1 6 23
M  V30 26 1 7 24
M  V30 27 1 9 25
M  V30 28 1 12 26
M  V30 29 1 13 27
M  V30 30 1 13 28
M  V30 31 1 14 29
M  V30 32 1 14 30
M  V30 33 1 15 31
M  V30 34 1 15 32
M  V30 35 1 16 33
M  V30 36 1 16 34
M  V30 37 1 17 35
M  V30 38 1 18 36
M  V30 END BOND
M  V30 END CTAB
M  END
>  <Dataset>  (584) 
ChEMBL_Kinases

>  <Ligand_Instance>  (584) 
nan

>  <PDB_ID>  (584) 
nan

>  <Standardized_SMILES>  (584) 
Nc1n[nH]c2ccc(NC(=O)C3CCCCN3)cc12

>  <Name>  (584) 
nan

>  <Pocket>  (584) 
nan

>  <ATP_Site>  (584) 
nan

>  <Peripheral>  (584) 
nan

>  <Num_H_Atoms_ProtBoundConf>  (584) 
nan

>  <Num_Resolved_Atoms>  (584) 
nan

>  <Num_Not_Resolved_Atoms>  (584) 
nan

$$$$
CHEMBL4176499
     RDKit          3D

  0  0  0  0  0  0  0  0  0  0999 V3000
M  V30 BEGIN CTAB
M  V30 COUNTS 38 41 0 0 0
M  V30 BEGIN ATOM
M  V30 1 Cl 2.688873 -4.459900 6.472420 0
M  V30 2 C 1.907979 -4.312278 4.913990 0
M  V30 3 C 1.451887 -5.451413 4.306829 0
M  V30 4 C 0.836014 -5.342992 3.079712 0
M  V30 5 C 0.713046 -4.086752 2.529357 0
M  V30 6 C 1.151716 -2.911847 3.093716 0
M  V30 7 N 1.036236 -1.611477 2.546999 0
M  V30 8 C 0.450783 -1.232544 1.312140 0
M  V30 9 N 0.431871 0.048586 0.958263 0
M  V30 10 C -0.083087 0.550793 -0.169680 0
M  V30 11 N -0.039813 1.947942 -0.431104 0
M  V30 12 C -1.313661 2.637006 -0.610608 0
M  V30 13 C -1.066972 3.720851 -1.654651 0
M  V30 14 O -0.178627 4.679190 -1.195835 0
M  V30 15 C 0.736981 4.199090 -0.286727 0
M  V30 16 C 1.148188 2.776368 -0.540715 0
M  V30 17 C -0.656132 -0.316395 -1.071981 0
M  V30 18 N -1.248994 -0.176043 -2.262205 0
M  V30 19 C -1.617839 -1.417573 -2.673865 0
M  V30 20 N -1.242966 -2.313445 -1.721550 0
M  V30 21 C -0.641644 -1.643586 -0.715326 0
M  V30 22 N -0.108161 -2.071316 0.430295 0
M  V30 23 C 1.756863 -3.092219 4.317724 0
M  V30 24 H 1.582073 -6.402971 4.795909 0
M  V30 25 H 0.465991 -6.220244 2.575520 0
M  V30 26 H 0.224484 -4.056363 1.569659 0
M  V30 27 H 1.435029 -0.833553 3.131917 0
M  V30 28 H -1.686898 3.042536 0.330753 0
M  V30 29 H -2.080583 1.966201 -1.065509 0
M  V30 30 H -0.656777 3.203154 -2.546423 0
M  V30 31 H -2.021544 4.179373 -1.993239 0
M  V30 32 H 0.320728 4.288064 0.728689 0
M  V30 33 H 1.620223 4.890967 -0.326294 0
M  V30 34 H 1.872049 2.515585 0.268989 0
M  V30 35 H 1.654381 2.692277 -1.519499 0
M  V30 36 H -2.119092 -1.607396 -3.603832 0
M  V30 37 H -1.393883 -3.356279 -1.757638 0
M  V30 38 H 2.145995 -2.242532 4.865980 0
M  V30 END ATOM
M  V30 BEGIN BOND
M  V30 1 1 1 2
M  V30 2 2 2 3
M  V30 3 1 3 4
M  V30 4 2 4 5
M  V30 5 1 5 6
M  V30 6 1 6 7
M  V30 7 1 7 8
M  V30 8 2 8 9
M  V30 9 1 9 10
M  V30 10 1 10 11
M  V30 11 1 11 12
M  V30 12 1 12 13
M  V30 13 1 13 14
M  V30 14 1 14 15
M  V30 15 1 15 16
M  V30 16 2 10 17
M  V30 17 1 17 18
M  V30 18 2 18 19
M  V30 19 1 19 20
M  V30 20 1 20 21
M  V30 21 2 21 22
M  V30 22 2 6 23
M  V30 23 1 23 2
M  V30 24 1 22 8
M  V30 25 1 16 11
M  V30 26 1 21 17
M  V30 27 1 3 24
M  V30 28 1 4 25
M  V30 29 1 5 26
M  V30 30 1 7 27
M  V30 31 1 12 28
M  V30 32 1 12 29
M  V30 33 1 13 30
M  V30 34 1 13 31
M  V30 35 1 15 32
M  V30 36 1 15 33
M  V30 37 1 16 34
M  V30 38 1 16 35
M  V30 39 1 19 36
M  V30 40 1 20 37
M  V30 41 1 23 38
M  V30 END BOND
M  V30 END CTAB
M  END
>  <Dataset>  (585) 
ChEMBL_Kinases

>  <Ligand_Instance>  (585) 
nan

>  <PDB_ID>  (585) 
nan

>  <Standardized_SMILES>  (585) 
Clc1cccc(Nc2nc(N3CCOCC3)c3nc[nH]c3n2)c1

>  <Name>  (585) 
nan

>  <Pocket>  (585) 
nan

>  <ATP_Site>  (585) 
nan

>  <Peripheral>  (585) 
nan

>  <Num_H_Atoms_ProtBoundConf>  (585) 
nan

>  <Num_Resolved_Atoms>  (585) 
nan

>  <Num_Not_Resolved_Atoms>  (585) 
nan

$$$$
CHEMBL4176473
     RDKit          3D

  0  0  0  0  0  0  0  0  0  0999 V3000
M  V30 BEGIN CTAB
M  V30 COUNTS 38 41 0 0 0
M  V30 BEGIN ATOM
M  V30 1 F 3.579555 -5.239140 4.933158 0
M  V30 2 C 2.645539 -4.888896 4.017181 0
M  V30 3 C 1.782162 -5.858065 3.554318 0
M  V30 4 C 0.828162 -5.511002 2.621904 0
M  V30 5 C 0.796009 -4.199470 2.204585 0
M  V30 6 C 1.627908 -3.191072 2.628436 0
M  V30 7 N 1.597488 -1.842331 2.201558 0
M  V30 8 C 0.718366 -1.250765 1.261592 0
M  V30 9 N 0.825547 0.056529 0.966641 0
M  V30 10 C 0.048756 0.713372 0.096268 0
M  V30 11 N 0.236502 2.082753 -0.147096 0
M  V30 12 C 0.552366 2.560561 -1.463442 0
M  V30 13 C -0.445216 3.628394 -1.896533 0
M  V30 14 O -0.568782 4.582707 -0.906624 0
M  V30 15 C -1.004058 4.041057 0.306990 0
M  V30 16 C 0.150178 3.180278 0.822584 0
M  V30 17 C -0.945008 0.037159 -0.566962 0
M  V30 18 N -1.886164 0.366774 -1.483063 0
M  V30 19 C -2.580581 -0.778458 -1.746768 0
M  V30 20 N -2.098172 -1.809832 -1.021151 0
M  V30 21 C -1.087946 -1.299448 -0.294397 0
M  V30 22 N -0.264694 -1.861429 0.588206 0
M  V30 23 C 2.554902 -3.597103 3.554878 0
M  V30 24 H 1.838848 -6.878255 3.906472 0
M  V30 25 H 0.139705 -6.252851 2.243620 0
M  V30 26 H 0.030943 -3.984224 1.475556 0
M  V30 27 H 2.307262 -1.204771 2.629376 0
M  V30 28 H 1.546426 3.092640 -1.413822 0
M  V30 29 H 0.675544 1.787892 -2.219962 0
M  V30 30 H -0.041439 4.149258 -2.789255 0
M  V30 31 H -1.421802 3.201208 -2.181785 0
M  V30 32 H -1.884874 3.393458 0.108388 0
M  V30 33 H -1.183257 4.840772 1.022343 0
M  V30 34 H -0.085349 2.770613 1.818779 0
M  V30 35 H 1.083933 3.743122 0.807572 0
M  V30 36 H -3.389865 -0.735061 -2.463233 0
M  V30 37 H -2.481857 -2.778098 -1.067277 0
M  V30 38 H 3.277681 -2.889410 3.973145 0
M  V30 END ATOM
M  V30 BEGIN BOND
M  V30 1 1 1 2
M  V30 2 2 2 3
M  V30 3 1 3 4
M  V30 4 2 4 5
M  V30 5 1 5 6
M  V30 6 1 6 7
M  V30 7 1 7 8
M  V30 8 2 8 9
M  V30 9 1 9 10
M  V30 10 1 10 11
M  V30 11 1 11 12
M  V30 12 1 12 13
M  V30 13 1 13 14
M  V30 14 1 14 15
M  V30 15 1 15 16
M  V30 16 2 10 17
M  V30 17 1 17 18
M  V30 18 2 18 19
M  V30 19 1 19 20
M  V30 20 1 20 21
M  V30 21 2 21 22
M  V30 22 2 6 23
M  V30 23 1 23 2
M  V30 24 1 22 8
M  V30 25 1 16 11
M  V30 26 1 21 17
M  V30 27 1 3 24
M  V30 28 1 4 25
M  V30 29 1 5 26
M  V30 30 1 7 27
M  V30 31 1 12 28
M  V30 32 1 12 29
M  V30 33 1 13 30
M  V30 34 1 13 31
M  V30 35 1 15 32
M  V30 36 1 15 33
M  V30 37 1 16 34
M  V30 38 1 16 35
M  V30 39 1 19 36
M  V30 40 1 20 37
M  V30 41 1 23 38
M  V30 END BOND
M  V30 END CTAB
M  END
>  <Dataset>  (586) 
ChEMBL_Kinases

>  <Ligand_Instance>  (586) 
nan

>  <PDB_ID>  (586) 
nan

>  <Standardized_SMILES>  (586) 
Fc1cccc(Nc2nc(N3CCOCC3)c3nc[nH]c3n2)c1

>  <Name>  (586) 
nan

>  <Pocket>  (586) 
nan

>  <ATP_Site>  (586) 
nan

>  <Peripheral>  (586) 
nan

>  <Num_H_Atoms_ProtBoundConf>  (586) 
nan

>  <Num_Resolved_Atoms>  (586) 
nan

>  <Num_Not_Resolved_Atoms>  (586) 
nan

$$$$
CHEMBL4176335
     RDKit          3D

  0  0  0  0  0  0  0  0  0  0999 V3000
M  V30 BEGIN CTAB
M  V30 COUNTS 56 60 0 0 0
M  V30 BEGIN ATOM
M  V30 1 O 2.701550 -5.600279 2.158639 0
M  V30 2 C 2.730106 -4.372495 1.909427 0
M  V30 3 N 3.887354 -3.554436 1.907804 0
M  V30 4 C 3.427429 -2.248234 1.574920 0
M  V30 5 C 4.210711 -1.117895 1.472151 0
M  V30 6 C 3.581332 0.087367 1.154433 0
M  V30 7 C 2.197924 0.138961 0.949008 0
M  V30 8 C 1.704935 1.475745 0.625927 0
M  V30 9 O 2.502213 2.435809 0.517121 0
M  V30 10 N 0.328401 1.810156 0.411307 0
M  V30 11 C 0.015105 3.183960 0.101056 0 CFG=2
M  V30 12 C -0.822338 3.725872 1.261901 0
M  V30 13 O -1.131778 5.065457 0.971522 0
M  V30 14 C -0.835342 3.313976 -1.104448 0
M  V30 15 C -1.924393 2.473985 -1.196567 0
M  V30 16 C -2.758708 2.545309 -2.292958 0
M  V30 17 C -2.539522 3.453106 -3.334884 0
M  V30 18 C -1.440615 4.284253 -3.218977 0
M  V30 19 C -0.600442 4.222798 -2.129410 0
M  V30 20 C 1.468702 -1.021190 1.064571 0
M  V30 21 C 2.067018 -2.217131 1.373655 0
M  V30 22 C 1.567280 -3.564304 1.575320 0
M  V30 23 C 0.303124 -3.911240 1.492411 0
M  V30 24 C -0.157066 -5.293086 1.758233 0
M  V30 25 N 0.395655 -6.416862 1.346184 0
M  V30 26 C -0.302777 -7.464414 1.792445 0
M  V30 27 C -1.363699 -6.992083 2.532634 0
M  V30 28 N -1.237699 -5.658924 2.486661 0
M  V30 29 C -0.794196 -3.100181 1.017584 0
M  V30 30 C -1.927105 -2.564768 1.583296 0
M  V30 31 C -2.848531 -1.902610 0.800085 0
M  V30 32 C -2.699574 -1.738618 -0.557426 0
M  V30 33 Cl -3.922289 -0.890242 -1.447246 0
M  V30 34 C -1.566069 -2.269322 -1.145231 0
M  V30 35 C -0.615071 -2.946582 -0.371555 0
M  V30 36 Cl 0.727351 -3.520366 -1.364176 0
M  V30 37 H 4.853588 -3.888602 2.114910 0
M  V30 38 H 5.280976 -1.139761 1.628423 0
M  V30 39 H 4.233662 0.938050 1.085528 0
M  V30 40 H -0.378062 1.053691 0.487555 0
M  V30 41 H 0.895791 3.820206 -0.003319 0
M  V30 42 H -1.764150 3.186286 1.369214 0
M  V30 43 H -0.256581 3.673665 2.200519 0
M  V30 44 H -1.887244 5.053333 0.350431 0
M  V30 45 H -2.218425 1.716199 -0.460311 0
M  V30 46 H -3.651804 1.937918 -2.482091 0
M  V30 47 H -3.164702 3.545537 -4.211837 0
M  V30 48 H -1.138432 5.028069 -3.928194 0
M  V30 49 H 0.275346 4.854141 -1.992816 0
M  V30 50 H 0.446257 -0.839949 0.909955 0
M  V30 51 H -0.051407 -8.508236 1.588070 0
M  V30 52 H -2.099344 -7.623264 3.017243 0
M  V30 53 H -1.935683 -5.086846 2.983903 0
M  V30 54 H -1.924348 -2.753531 2.646563 0
M  V30 55 H -3.707920 -1.519916 1.355518 0
M  V30 56 H -1.512989 -2.104348 -2.211836 0
M  V30 END ATOM
M  V30 BEGIN BOND
M  V30 1 2 1 2
M  V30 2 1 2 3
M  V30 3 1 3 4
M  V30 4 2 4 5
M  V30 5 1 5 6
M  V30 6 2 6 7
M  V30 7 1 7 8
M  V30 8 2 8 9
M  V30 9 1 8 10
M  V30 10 1 10 11
M  V30 11 1 11 12
M  V30 12 1 12 13
M  V30 13 1 11 14
M  V30 14 2 14 15
M  V30 15 1 15 16
M  V30 16 2 16 17
M  V30 17 1 17 18
M  V30 18 2 18 19
M  V30 19 1 7 20
M  V30 20 2 20 21
M  V30 21 1 21 22
M  V30 22 2 22 23
M  V30 23 1 23 24
M  V30 24 2 24 25
M  V30 25 1 25 26
M  V30 26 2 26 27
M  V30 27 1 27 28
M  V30 28 1 23 29
M  V30 29 2 29 30
M  V30 30 1 30 31
M  V30 31 2 31 32
M  V30 32 1 32 33
M  V30 33 1 32 34
M  V30 34 2 34 35
M  V30 35 1 35 36
M  V30 36 1 22 2
M  V30 37 1 28 24
M  V30 38 1 35 29
M  V30 39 1 21 4
M  V30 40 1 19 14
M  V30 41 1 3 37
M  V30 42 1 5 38
M  V30 43 1 6 39
M  V30 44 1 10 40
M  V30 45 1 11 41 CFG=3
M  V30 46 1 12 42
M  V30 47 1 12 43
M  V30 48 1 13 44
M  V30 49 1 15 45
M  V30 50 1 16 46
M  V30 51 1 17 47
M  V30 52 1 18 48
M  V30 53 1 19 49
M  V30 54 1 20 50
M  V30 55 1 26 51
M  V30 56 1 27 52
M  V30 57 1 28 53
M  V30 58 1 30 54
M  V30 59 1 31 55
M  V30 60 1 34 56
M  V30 END BOND
M  V30 END CTAB
M  END
>  <Dataset>  (587) 
ChEMBL_Kinases

>  <Ligand_Instance>  (587) 
nan

>  <PDB_ID>  (587) 
nan

>  <Standardized_SMILES>  (587) 
O=C1Nc2ccc(C(=O)N[C@H](CO)c3ccccc3)cc2/C1=C(/c1ncc[nH]1)c1ccc(Cl)cc1Cl

>  <Name>  (587) 
nan

>  <Pocket>  (587) 
nan

>  <ATP_Site>  (587) 
nan

>  <Peripheral>  (587) 
nan

>  <Num_H_Atoms_ProtBoundConf>  (587) 
nan

>  <Num_Resolved_Atoms>  (587) 
nan

>  <Num_Not_Resolved_Atoms>  (587) 
nan

$$$$
CHEMBL4176300
     RDKit          3D

  0  0  0  0  0  0  0  0  0  0999 V3000
M  V30 BEGIN CTAB
M  V30 COUNTS 136 144 0 0 0
M  V30 BEGIN ATOM
M  V30 1 C 5.115341 1.107951 4.135249 0
M  V30 2 N 4.070034 2.048419 3.777393 0
M  V30 3 C 3.815569 3.461035 3.744178 0
M  V30 4 O 2.919189 4.302284 3.617655 0
M  V30 5 C 5.120608 4.074433 3.905491 0
M  V30 6 C 5.168393 5.527950 3.316623 0
M  V30 7 O 4.820076 5.654424 2.128445 0
M  V30 8 C 4.471519 5.791403 0.927646 0
M  V30 9 C 3.555592 4.680461 0.368922 0
M  V30 10 O 3.248798 4.910030 -0.943669 0
M  V30 11 C 2.201614 4.069259 -1.397730 0
M  V30 12 C 0.962956 4.593165 -0.748272 0
M  V30 13 O -0.231228 3.892142 -1.038612 0
M  V30 14 C -1.201017 4.713961 -0.480393 0
M  V30 15 C -2.607379 4.329819 -0.520456 0
M  V30 16 O -2.966169 3.155460 0.149854 0
M  V30 17 C -4.349362 3.029446 0.032742 0
M  V30 18 C -5.028277 1.990144 0.827184 0
M  V30 19 N -4.678353 0.618828 0.635185 0
M  V30 20 C -5.484920 -0.176742 1.515952 0
M  V30 21 C -6.444159 0.281950 2.428305 0
M  V30 22 C -7.217902 -0.461813 3.280108 0
M  V30 23 C -7.039717 -1.824715 3.243719 0
M  V30 24 C -6.124114 -2.362881 2.383053 0
M  V30 25 C -5.388671 -1.551095 1.562163 0
M  V30 26 C -4.554928 -2.485920 0.820721 0
M  V30 27 O -3.708458 -2.239266 -0.055261 0
M  V30 28 N -4.796824 -3.830554 1.201983 0
M  V30 29 C -4.176095 -5.046172 0.707575 0
M  V30 30 C -4.348456 -5.240325 -0.779454 0
M  V30 31 C -3.222993 -5.957110 -1.444323 0
M  V30 32 C -2.371194 -6.749915 -0.519340 0
M  V30 33 O -1.967850 -7.948238 -0.672712 0
M  V30 34 N -1.942738 -6.104962 0.697200 0
M  V30 35 C -2.745463 -5.002475 1.126016 0
M  V30 36 O -2.227662 -4.061499 1.822456 0
M  V30 37 C -5.804038 -3.769443 2.206115 0
M  V30 38 O -6.299385 -4.762386 2.804292 0
M  V30 39 C 2.903513 1.681249 3.060207 0 CFG=1
M  V30 40 C 3.447077 1.330426 1.640448 0
M  V30 41 C 3.665579 -0.135195 1.462183 0
M  V30 42 C 2.384284 -0.937833 1.536937 0 CFG=1
M  V30 43 C 2.567974 -2.281915 2.139634 0
M  V30 44 C 1.419474 -0.034547 2.293702 0 CFG=1
M  V30 45 C 0.062159 -0.623054 2.350332 0
M  V30 46 C -0.492813 -0.521305 0.943089 0
M  V30 47 C 0.362990 -1.264811 0.015573 0 CFG=2
M  V30 48 C 1.853437 -1.071420 0.143480 0 CFG=2
M  V30 49 C 2.617069 -1.986397 -0.749932 0
M  V30 50 C 1.883891 -2.660431 -1.829397 0
M  V30 51 C 0.517458 -2.218982 -2.184732 0 CFG=2
M  V30 52 C -0.457943 -3.318777 -1.992709 0
M  V30 53 C 0.390509 -1.646056 -3.583933 0 CFG=1
M  V30 54 C 0.239963 -2.619373 -4.653651 0
M  V30 55 C 1.385683 -2.781060 -5.441086 0
M  V30 56 C 1.436473 -3.661783 -6.527560 0
M  V30 57 C 0.336523 -4.391719 -6.836718 0
M  V30 58 C 0.377071 -5.273008 -7.919294 0
M  V30 59 C -0.795693 -5.966712 -8.147992 0
M  V30 60 N -1.887960 -5.798887 -7.380946 0
M  V30 61 C -1.941115 -4.963147 -6.346802 0
M  V30 62 C -0.792432 -4.251662 -6.084048 0
M  V30 63 C -0.855448 -3.374995 -4.996488 0
M  V30 64 C -0.753543 -0.638623 -3.491564 0
M  V30 65 C -1.096735 -0.558189 -1.985666 0
M  V30 66 C 0.181523 -0.951794 -1.430906 0 CFG=1
M  V30 67 C 2.030537 0.568175 3.511035 0
M  V30 68 H 5.780695 0.967107 3.263622 0
M  V30 69 H 4.712171 0.142496 4.425659 0
M  V30 70 H 5.778699 1.526675 4.932164 0
M  V30 71 H 5.318014 4.231078 4.995688 0
M  V30 72 H 5.981510 3.523837 3.519117 0
M  V30 73 H 6.206763 5.929288 3.577374 0
M  V30 74 H 4.497644 6.099890 4.055015 0
M  V30 75 H 5.373049 5.862623 0.220263 0
M  V30 76 H 3.937908 6.769869 0.646962 0
M  V30 77 H 4.267131 3.781419 0.345057 0
M  V30 78 H 2.771853 4.388527 1.038667 0
M  V30 79 H 2.366244 3.038459 -1.101233 0
M  V30 80 H 2.125396 4.098811 -2.496079 0
M  V30 81 H 1.030083 4.636996 0.346147 0
M  V30 82 H 0.799594 5.623430 -1.173793 0
M  V30 83 H -0.922111 4.918034 0.612863 0
M  V30 84 H -1.046222 5.758441 -0.921838 0
M  V30 85 H -3.240096 5.126202 -0.019101 0
M  V30 86 H -3.033043 4.312437 -1.567227 0
M  V30 87 H -4.835286 4.023839 0.263805 0
M  V30 88 H -4.639101 2.865935 -1.048367 0
M  V30 89 H -4.902352 2.257030 1.919200 0
M  V30 90 H -6.167327 2.106180 0.700921 0
M  V30 91 H -4.018959 0.098766 0.044316 0
M  V30 92 H -6.604829 1.351652 2.481349 0
M  V30 93 H -7.923269 0.011859 3.936024 0
M  V30 94 H -7.638244 -2.431784 3.904791 0
M  V30 95 H -4.612734 -5.910816 1.239000 0
M  V30 96 H -4.560956 -4.311874 -1.336262 0
M  V30 97 H -5.282012 -5.861103 -0.908915 0
M  V30 98 H -2.607616 -5.249033 -2.017282 0
M  V30 99 H -3.640398 -6.669435 -2.214355 0
M  V30 100 H -1.103022 -6.386941 1.269692 0
M  V30 101 H 2.328824 2.640106 2.843109 0
M  V30 102 H 4.454189 1.799833 1.599305 0
M  V30 103 H 2.874684 1.807517 0.851396 0
M  V30 104 H 4.364400 -0.571076 2.168670 0
M  V30 105 H 4.152479 -0.242663 0.454941 0
M  V30 106 H 3.667049 -2.534542 2.065336 0
M  V30 107 H 2.348726 -2.364710 3.221385 0
M  V30 108 H 2.017480 -3.108500 1.638866 0
M  V30 109 H 1.294539 0.849004 1.565330 0
M  V30 110 H -0.551317 -0.084548 3.095289 0
M  V30 111 H 0.166071 -1.702733 2.565773 0
M  V30 112 H -0.441623 0.560370 0.685003 0
M  V30 113 H -1.531176 -0.908642 0.888417 0
M  V30 114 H 0.203062 -2.360953 0.218630 0
M  V30 115 H 2.024092 -0.028865 -0.288390 0
M  V30 116 H 3.111301 -2.722685 -0.071479 0
M  V30 117 H 3.504056 -1.448683 -1.204810 0
M  V30 118 H 2.468730 -2.633673 -2.800672 0
M  V30 119 H 1.871358 -3.772400 -1.615180 0
M  V30 120 H -1.512703 -3.075232 -2.004844 0
M  V30 121 H -0.295270 -3.879865 -1.023400 0
M  V30 122 H -0.202996 -4.110739 -2.755305 0
M  V30 123 H 1.349884 -1.055588 -3.708266 0
M  V30 124 H 2.314003 -2.246322 -5.278190 0
M  V30 125 H 2.332669 -3.771322 -7.124248 0
M  V30 126 H 1.280786 -5.357338 -8.490601 0
M  V30 127 H -0.810839 -6.662111 -8.977832 0
M  V30 128 H -2.849758 -4.863453 -5.755821 0
M  V30 129 H -1.722012 -3.229452 -4.377578 0
M  V30 130 H -1.632927 -0.912090 -4.076053 0
M  V30 131 H -0.420982 0.371530 -3.819314 0
M  V30 132 H -2.004190 -1.085910 -1.757801 0
M  V30 133 H -1.281382 0.526541 -1.744134 0
M  V30 134 H 0.933957 -0.195208 -1.830321 0
M  V30 135 H 2.477759 -0.117966 4.226947 0
M  V30 136 H 1.177905 1.051243 4.073009 0
M  V30 END ATOM
M  V30 BEGIN BOND
M  V30 1 1 1 2
M  V30 2 1 2 3
M  V30 3 2 3 4
M  V30 4 1 3 5
M  V30 5 1 5 6
M  V30 6 1 6 7
M  V30 7 1 7 8
M  V30 8 1 8 9
M  V30 9 1 9 10
M  V30 10 1 10 11
M  V30 11 1 11 12
M  V30 12 1 12 13
M  V30 13 1 13 14
M  V30 14 1 14 15
M  V30 15 1 15 16
M  V30 16 1 16 17
M  V30 17 1 17 18
M  V30 18 1 18 19
M  V30 19 1 19 20
M  V30 20 2 20 21
M  V30 21 1 21 22
M  V30 22 2 22 23
M  V30 23 1 23 24
M  V30 24 2 24 25
M  V30 25 1 25 26
M  V30 26 2 26 27
M  V30 27 1 26 28
M  V30 28 1 28 29
M  V30 29 1 29 30
M  V30 30 1 30 31
M  V30 31 1 31 32
M  V30 32 2 32 33
M  V30 33 1 32 34
M  V30 34 1 34 35
M  V30 35 2 35 36
M  V30 36 1 28 37
M  V30 37 2 37 38
M  V30 38 1 2 39
M  V30 39 1 39 40
M  V30 40 1 40 41
M  V30 41 1 41 42
M  V30 42 1 42 43 CFG=1
M  V30 43 1 42 44
M  V30 44 1 44 45
M  V30 45 1 45 46
M  V30 46 1 46 47
M  V30 47 1 47 48
M  V30 48 1 48 49
M  V30 49 1 49 50
M  V30 50 1 50 51
M  V30 51 1 51 52 CFG=3
M  V30 52 1 51 53
M  V30 53 1 53 54
M  V30 54 2 54 55
M  V30 55 1 55 56
M  V30 56 2 56 57
M  V30 57 1 57 58
M  V30 58 2 58 59
M  V30 59 1 59 60
M  V30 60 2 60 61
M  V30 61 1 61 62
M  V30 62 2 62 63
M  V30 63 1 53 64
M  V30 64 1 64 65
M  V30 65 1 65 66
M  V30 66 1 44 67
M  V30 67 1 25 20
M  V30 68 1 35 29
M  V30 69 1 67 39
M  V30 70 1 37 24
M  V30 71 1 48 42
M  V30 72 1 66 51
M  V30 73 1 66 47
M  V30 74 1 63 54
M  V30 75 1 62 57
M  V30 76 1 1 68
M  V30 77 1 1 69
M  V30 78 1 1 70
M  V30 79 1 5 71
M  V30 80 1 5 72
M  V30 81 1 6 73
M  V30 82 1 6 74
M  V30 83 1 8 75
M  V30 84 1 8 76
M  V30 85 1 9 77
M  V30 86 1 9 78
M  V30 87 1 11 79
M  V30 88 1 11 80
M  V30 89 1 12 81
M  V30 90 1 12 82
M  V30 91 1 14 83
M  V30 92 1 14 84
M  V30 93 1 15 85
M  V30 94 1 15 86
M  V30 95 1 17 87
M  V30 96 1 17 88
M  V30 97 1 18 89
M  V30 98 1 18 90
M  V30 99 1 19 91
M  V30 100 1 21 92
M  V30 101 1 22 93
M  V30 102 1 23 94
M  V30 103 1 29 95
M  V30 104 1 30 96
M  V30 105 1 30 97
M  V30 106 1 31 98
M  V30 107 1 31 99
M  V30 108 1 34 100
M  V30 109 1 39 101 CFG=3
M  V30 110 1 40 102
M  V30 111 1 40 103
M  V30 112 1 41 104
M  V30 113 1 41 105
M  V30 114 1 43 106
M  V30 115 1 43 107
M  V30 116 1 43 108
M  V30 117 1 44 109 CFG=3
M  V30 118 1 45 110
M  V30 119 1 45 111
M  V30 120 1 46 112
M  V30 121 1 46 113
M  V30 122 1 47 114 CFG=3
M  V30 123 1 48 115 CFG=3
M  V30 124 1 49 116
M  V30 125 1 49 117
M  V30 126 1 50 118
M  V30 127 1 50 119
M  V30 128 1 52 120
M  V30 129 1 52 121
M  V30 130 1 52 122
M  V30 131 1 53 123 CFG=3
M  V30 132 1 55 124
M  V30 133 1 56 125
M  V30 134 1 58 126
M  V30 135 1 59 127
M  V30 136 1 61 128
M  V30 137 1 63 129
M  V30 138 1 64 130
M  V30 139 1 64 131
M  V30 140 1 65 132
M  V30 141 1 65 133
M  V30 142 1 66 134 CFG=3
M  V30 143 1 67 135
M  V30 144 1 67 136
M  V30 END BOND
M  V30 END CTAB
M  END
>  <Dataset>  (588) 
ChEMBL_Kinases

>  <Ligand_Instance>  (588) 
nan

>  <PDB_ID>  (588) 
nan

>  <Standardized_SMILES>  (588) 
CN(C(=O)CCOCCOCCOCCOCCNc1cccc2c1C(=O)N(C1CCC(=O)NC1=O)C2=O)[C@H]1CC[C@@]2(C)[C@@H](CC[C@@H]3[C@@H]2CC[C@]2(C)[C@@H](c4ccc5ccncc5c4)CC[C@@H]32)C1

>  <Name>  (588) 
nan

>  <Pocket>  (588) 
nan

>  <ATP_Site>  (588) 
nan

>  <Peripheral>  (588) 
nan

>  <Num_H_Atoms_ProtBoundConf>  (588) 
nan

>  <Num_Resolved_Atoms>  (588) 
nan

>  <Num_Not_Resolved_Atoms>  (588) 
nan

$$$$
CHEMBL4176230
     RDKit          3D

  0  0  0  0  0  0  0  0  0  0999 V3000
M  V30 BEGIN CTAB
M  V30 COUNTS 65 70 0 0 0
M  V30 BEGIN ATOM
M  V30 1 C 2.773630 -1.288514 -2.357575 0
M  V30 2 C 2.951590 -1.079366 -0.865338 0 CFG=2
M  V30 3 C 4.015139 -0.055445 -0.659708 0
M  V30 4 C 5.083153 -0.452018 0.322423 0
M  V30 5 C 5.826160 -1.690513 -0.073156 0 CFG=2
M  V30 6 O 6.959837 -1.424957 -0.837564 0
M  V30 7 C 4.893964 -2.675442 -0.753056 0
M  V30 8 C 3.505970 -2.368679 -0.263163 0 CFG=2
M  V30 9 C 2.558250 -3.529110 -0.433530 0
M  V30 10 C 1.348627 -3.174245 0.415710 0
M  V30 11 C 0.728902 -1.957666 -0.270314 0 CFG=2
M  V30 12 C 1.684387 -0.757322 -0.163866 0 CFG=2
M  V30 13 C 1.006336 0.438551 -0.716251 0
M  V30 14 C -0.375562 0.719474 -0.231448 0
M  V30 15 C -1.221875 -0.485594 -0.275923 0 CFG=2
M  V30 16 C -1.484825 -0.930681 -1.693240 0
M  V30 17 C -2.496209 -0.484980 0.431131 0
M  V30 18 C -3.605938 0.427493 0.674655 0
M  V30 19 C -4.705103 0.138908 1.449881 0
M  V30 20 C -5.760376 0.997100 1.672851 0
M  V30 21 C -5.770354 2.236052 1.109794 0
M  V30 22 C -6.830067 3.084934 1.339722 0
M  V30 23 C -6.831933 4.351408 0.759206 0
M  V30 24 N -5.774888 4.676358 -0.008230 0
M  V30 25 C -4.731176 3.847024 -0.237769 0
M  V30 26 C -4.699912 2.591910 0.320339 0
M  V30 27 C -3.680428 1.691313 0.137616 0
M  V30 28 C -2.667961 -1.692291 1.017708 0
M  V30 29 C -1.503229 -2.563255 0.725292 0
M  V30 30 C -0.454464 -1.546919 0.509937 0 CFG=1
M  V30 31 H 3.249393 -0.438746 -2.926241 0
M  V30 32 H 3.219159 -2.254883 -2.712936 0
M  V30 33 H 1.735238 -1.316422 -2.689350 0
M  V30 34 H 4.538719 0.201355 -1.620996 0
M  V30 35 H 3.631358 0.927450 -0.291086 0
M  V30 36 H 4.669967 -0.463328 1.341299 0
M  V30 37 H 5.835883 0.388220 0.297736 0
M  V30 38 H 6.160836 -2.181240 0.876572 0
M  V30 39 H 7.615447 -2.171729 -0.755368 0
M  V30 40 H 5.039476 -2.549749 -1.838906 0
M  V30 41 H 5.121561 -3.721233 -0.514196 0
M  V30 42 H 3.585179 -2.181393 0.828690 0
M  V30 43 H 2.251401 -3.582675 -1.486170 0
M  V30 44 H 3.080939 -4.419950 -0.063802 0
M  V30 45 H 1.668499 -2.863873 1.432399 0
M  V30 46 H 0.597622 -3.967618 0.412351 0
M  V30 47 H 0.547114 -2.268845 -1.297719 0
M  V30 48 H 1.891525 -0.603285 0.893290 0
M  V30 49 H 1.604070 1.361039 -0.455873 0
M  V30 50 H 1.003350 0.461616 -1.843882 0
M  V30 51 H -0.344405 1.091500 0.817282 0
M  V30 52 H -0.782507 1.491371 -0.934799 0
M  V30 53 H -2.030337 -1.869457 -1.745914 0
M  V30 54 H -0.614960 -0.960912 -2.344795 0
M  V30 55 H -2.134179 -0.111166 -2.121237 0
M  V30 56 H -4.806767 -0.814118 1.947968 0
M  V30 57 H -6.595866 0.710437 2.293037 0
M  V30 58 H -7.695775 2.831020 1.962615 0
M  V30 59 H -7.664188 5.019375 0.939180 0
M  V30 60 H -3.910216 4.166091 -0.864439 0
M  V30 61 H -2.918236 2.092359 -0.499950 0
M  V30 62 H -3.417724 -2.208037 1.640916 0
M  V30 63 H -1.640844 -3.147665 -0.206911 0
M  V30 64 H -1.187670 -3.203736 1.574983 0
M  V30 65 H -0.111255 -1.048523 1.439550 0
M  V30 END ATOM
M  V30 BEGIN BOND
M  V30 1 1 2 1 CFG=3
M  V30 2 1 2 3
M  V30 3 1 3 4
M  V30 4 1 4 5
M  V30 5 1 5 6
M  V30 6 1 5 7
M  V30 7 1 7 8
M  V30 8 1 8 9
M  V30 9 1 9 10
M  V30 10 1 10 11
M  V30 11 1 11 12
M  V30 12 1 12 13
M  V30 13 1 13 14
M  V30 14 1 14 15
M  V30 15 1 15 16 CFG=3
M  V30 16 1 15 17
M  V30 17 1 17 18
M  V30 18 2 18 19
M  V30 19 1 19 20
M  V30 20 2 20 21
M  V30 21 1 21 22
M  V30 22 2 22 23
M  V30 23 1 23 24
M  V30 24 2 24 25
M  V30 25 1 25 26
M  V30 26 2 26 27
M  V30 27 2 17 28
M  V30 28 1 28 29
M  V30 29 1 29 30
M  V30 30 1 8 2
M  V30 31 1 30 11
M  V30 32 1 12 2
M  V30 33 1 30 15
M  V30 34 1 27 18
M  V30 35 1 26 21
M  V30 36 1 1 31
M  V30 37 1 1 32
M  V30 38 1 1 33
M  V30 39 1 3 34
M  V30 40 1 3 35
M  V30 41 1 4 36
M  V30 42 1 4 37
M  V30 43 1 5 38 CFG=1
M  V30 44 1 6 39
M  V30 45 1 7 40
M  V30 46 1 7 41
M  V30 47 1 8 42 CFG=1
M  V30 48 1 9 43
M  V30 49 1 9 44
M  V30 50 1 10 45
M  V30 51 1 10 46
M  V30 52 1 11 47 CFG=3
M  V30 53 1 12 48 CFG=1
M  V30 54 1 13 49
M  V30 55 1 13 50
M  V30 56 1 14 51
M  V30 57 1 14 52
M  V30 58 1 16 53
M  V30 59 1 16 54
M  V30 60 1 16 55
M  V30 61 1 19 56
M  V30 62 1 20 57
M  V30 63 1 22 58
M  V30 64 1 23 59
M  V30 65 1 25 60
M  V30 66 1 27 61
M  V30 67 1 28 62
M  V30 68 1 29 63
M  V30 69 1 29 64
M  V30 70 1 30 65 CFG=1
M  V30 END BOND
M  V30 END CTAB
M  END
>  <Dataset>  (589) 
ChEMBL_Kinases

>  <Ligand_Instance>  (589) 
nan

>  <PDB_ID>  (589) 
nan

>  <Standardized_SMILES>  (589) 
C[C@]12CC[C@H](O)C[C@@H]1CC[C@@H]1[C@@H]2CC[C@]2(C)C(c3ccc4ccncc4c3)=CC[C@@H]12

>  <Name>  (589) 
nan

>  <Pocket>  (589) 
nan

>  <ATP_Site>  (589) 
nan

>  <Peripheral>  (589) 
nan

>  <Num_H_Atoms_ProtBoundConf>  (589) 
nan

>  <Num_Resolved_Atoms>  (589) 
nan

>  <Num_Not_Resolved_Atoms>  (589) 
nan

$$$$
CHEMBL4176212
     RDKit          3D

  0  0  0  0  0  0  0  0  0  0999 V3000
M  V30 BEGIN CTAB
M  V30 COUNTS 66 71 0 0 0
M  V30 BEGIN ATOM
M  V30 1 C 4.968403 1.678352 2.014569 0
M  V30 2 C 3.755524 1.069457 1.415126 0
M  V30 3 N 3.943179 0.131473 0.457251 0
M  V30 4 N 2.767173 -0.312206 0.017634 0
M  V30 5 C 2.342197 -1.259050 -0.952085 0
M  V30 6 C 1.861217 -2.533736 -0.812024 0
M  V30 7 C 1.511005 -3.276285 -1.945595 0
M  V30 8 C 1.662570 -2.693897 -3.195456 0
M  V30 9 C 2.143976 -1.414037 -3.368283 0
M  V30 10 C 2.485506 -0.695284 -2.216649 0
M  V30 11 C 1.753242 0.297299 0.649278 0
M  V30 12 O 0.394043 0.426673 0.795464 0
M  V30 13 C -0.493239 -0.328895 0.064973 0
M  V30 14 C -1.009144 -0.176531 -1.194288 0
M  V30 15 C -1.905211 -1.092069 -1.703964 0
M  V30 16 C -2.311934 -2.181877 -0.976866 0
M  V30 17 C -3.274061 -3.142073 -1.505026 0
M  V30 18 N -3.874427 -3.101605 -2.709621 0
M  V30 19 C -4.697988 -4.145807 -2.825648 0
M  V30 20 C -5.554552 -4.613808 -3.800918 0
M  V30 21 C -6.262510 -5.759175 -3.544180 0
M  V30 22 C -7.135466 -6.176435 -4.629015 0
M  V30 23 O -7.848674 -7.211834 -4.526174 0
M  V30 24 O -7.828913 -6.302901 -5.782504 0
M  V30 25 C -6.226424 -6.525643 -2.403918 0
M  V30 26 C -5.365288 -6.036342 -1.451914 0
M  V30 27 C -4.633334 -4.887996 -1.666663 0
M  V30 28 N -3.750821 -4.238216 -0.887884 0
M  V30 29 C -1.802525 -2.355321 0.295667 0
M  V30 30 C -0.905606 -1.442732 0.811100 0
M  V30 31 C 2.364853 1.187112 1.550704 0
M  V30 32 C 1.975388 2.182167 2.575104 0
M  V30 33 N 1.736175 3.348538 2.126523 0
M  V30 34 N 1.352964 4.437350 2.913556 0
M  V30 35 C 1.999253 4.461508 4.177459 0
M  V30 36 C 3.191603 5.160350 4.382986 0
M  V30 37 C 3.858596 5.205600 5.604362 0
M  V30 38 C 3.251821 4.499618 6.620120 0
M  V30 39 N 3.917386 4.529537 7.882443 0 CHG=1 VAL=4
M  V30 40 O 4.979076 5.145084 8.097561 0
M  V30 41 O 3.477806 3.888626 9.019101 0 CHG=-1 VAL=1
M  V30 42 C 2.081872 3.777415 6.537889 0
M  V30 43 C 1.484098 3.784565 5.289909 0
M  V30 44 H 4.671178 2.479107 2.715705 0
M  V30 45 H 5.636767 2.078172 1.229453 0
M  V30 46 H 5.444312 0.898203 2.639258 0
M  V30 47 H 1.801824 -2.841967 0.219467 0
M  V30 48 H 1.139361 -4.272944 -1.753805 0
M  V30 49 H 1.382718 -3.290169 -4.063925 0
M  V30 50 H 2.233794 -1.034670 -4.369848 0
M  V30 51 H 2.853055 0.301552 -2.480380 0
M  V30 52 H -0.633261 0.703734 -1.690151 0
M  V30 53 H -2.280030 -0.917150 -2.715877 0
M  V30 54 H -5.625213 -4.054700 -4.719010 0
M  V30 55 H -8.256366 -5.511836 -6.271295 0
M  V30 56 H -6.815395 -7.417720 -2.273023 0
M  V30 57 H -5.251128 -6.562083 -0.499531 0
M  V30 58 H -3.483171 -4.551873 0.060287 0
M  V30 59 H -2.145116 -3.227312 0.837186 0
M  V30 60 H -0.587533 -1.702377 1.821594 0
M  V30 61 H 1.887033 1.987435 3.632722 0
M  V30 62 H 0.663476 5.162332 2.608130 0
M  V30 63 H 3.574986 5.679439 3.515492 0
M  V30 64 H 4.766305 5.752320 5.716228 0
M  V30 65 H 1.645339 3.241744 7.357813 0
M  V30 66 H 0.555042 3.219490 5.200639 0
M  V30 END ATOM
M  V30 BEGIN BOND
M  V30 1 1 1 2
M  V30 2 2 2 3
M  V30 3 1 3 4
M  V30 4 1 4 5
M  V30 5 2 5 6
M  V30 6 1 6 7
M  V30 7 2 7 8
M  V30 8 1 8 9
M  V30 9 2 9 10
M  V30 10 1 4 11
M  V30 11 1 11 12
M  V30 12 1 12 13
M  V30 13 2 13 14
M  V30 14 1 14 15
M  V30 15 2 15 16
M  V30 16 1 16 17
M  V30 17 2 17 18
M  V30 18 1 18 19
M  V30 19 2 19 20
M  V30 20 1 20 21
M  V30 21 1 21 22
M  V30 22 2 22 23
M  V30 23 1 22 24
M  V30 24 2 21 25
M  V30 25 1 25 26
M  V30 26 2 26 27
M  V30 27 1 27 28
M  V30 28 1 16 29
M  V30 29 2 29 30
M  V30 30 2 11 31
M  V30 31 1 31 32
M  V30 32 2 32 33
M  V30 33 1 33 34
M  V30 34 1 34 35
M  V30 35 2 35 36
M  V30 36 1 36 37
M  V30 37 2 37 38
M  V30 38 1 38 39
M  V30 39 2 39 40
M  V30 40 1 39 41
M  V30 41 1 38 42
M  V30 42 2 42 43
M  V30 43 1 31 2
M  V30 44 1 43 35
M  V30 45 1 10 5
M  V30 46 1 30 13
M  V30 47 1 28 17
M  V30 48 1 27 19
M  V30 49 1 1 44
M  V30 50 1 1 45
M  V30 51 1 1 46
M  V30 52 1 6 47
M  V30 53 1 7 48
M  V30 54 1 8 49
M  V30 55 1 9 50
M  V30 56 1 10 51
M  V30 57 1 14 52
M  V30 58 1 15 53
M  V30 59 1 20 54
M  V30 60 1 24 55
M  V30 61 1 25 56
M  V30 62 1 26 57
M  V30 63 1 28 58
M  V30 64 1 29 59
M  V30 65 1 30 60
M  V30 66 1 32 61
M  V30 67 1 34 62
M  V30 68 1 36 63
M  V30 69 1 37 64
M  V30 70 1 42 65
M  V30 71 1 43 66
M  V30 END BOND
M  V30 END CTAB
M  END
>  <Dataset>  (590) 
ChEMBL_Kinases

>  <Ligand_Instance>  (590) 
nan

>  <PDB_ID>  (590) 
nan

>  <Standardized_SMILES>  (590) 
Cc1nn(-c2ccccc2)c(Oc2ccc(-c3nc4cc(C(=O)O)ccc4[nH]3)cc2)c1/C=N/Nc1ccc([N+](=O)[O-])cc1

>  <Name>  (590) 
nan

>  <Pocket>  (590) 
nan

>  <ATP_Site>  (590) 
nan

>  <Peripheral>  (590) 
nan

>  <Num_H_Atoms_ProtBoundConf>  (590) 
nan

>  <Num_Resolved_Atoms>  (590) 
nan

>  <Num_Not_Resolved_Atoms>  (590) 
nan

$$$$
CHEMBL4176130
     RDKit          3D

  0  0  0  0  0  0  0  0  0  0999 V3000
M  V30 BEGIN CTAB
M  V30 COUNTS 60 64 0 0 0
M  V30 BEGIN ATOM
M  V30 1 C 2.193246 -3.716152 2.398734 0
M  V30 2 O 2.332118 -2.372711 2.057659 0
M  V30 3 C 3.447948 -1.634190 1.732729 0
M  V30 4 O 4.121731 -2.651364 1.887289 0
M  V30 5 C 2.857461 -0.321126 1.495159 0
M  V30 6 C 2.797281 0.470891 2.609331 0
M  V30 7 C 3.269155 0.122890 3.966276 0
M  V30 8 N 2.246948 1.697352 2.435333 0
M  V30 9 C 1.806599 2.031998 1.182825 0
M  V30 10 N 1.180535 3.207891 0.689433 0
M  V30 11 N -0.215883 3.141281 0.720186 0
M  V30 12 C -0.944387 2.043629 1.301135 0
M  V30 13 O -0.259793 1.136622 1.802357 0
M  V30 14 C -2.389553 1.911804 1.348107 0
M  V30 15 C -3.140117 2.990587 1.732281 0
M  V30 16 C -4.510814 2.951964 1.811139 0
M  V30 17 C -5.124116 1.765911 1.484382 0
M  V30 18 C -4.420803 0.627806 1.085353 0
M  V30 19 C -5.043134 -0.573494 0.759280 0
M  V30 20 O -6.296002 -0.644086 0.819348 0
M  V30 21 C -4.270118 -1.666307 0.374049 0
M  V30 22 C -4.849353 -2.871230 0.050052 0
M  V30 23 C -4.082987 -3.944418 -0.323198 0
M  V30 24 C -2.707720 -3.861590 -0.389694 0
M  V30 25 C -2.157118 -2.641561 -0.060129 0
M  V30 26 C -2.902994 -1.545676 0.319006 0
M  V30 27 N -2.332895 -0.354246 0.644813 0
M  V30 28 C -3.047899 0.725010 1.023862 0
M  V30 29 N 1.896426 1.194043 0.109535 0
M  V30 30 C 2.440454 -0.052743 0.220444 0
M  V30 31 C 2.546801 -0.966230 -0.911748 0
M  V30 32 C 1.389715 -1.031826 -1.658527 0
M  V30 33 C 1.363181 -1.859166 -2.777840 0
M  V30 34 C 2.495001 -2.596364 -3.115872 0
M  V30 35 C 2.575638 -3.507795 -4.303068 0
M  V30 36 C 3.611323 -2.473362 -2.315737 0
M  V30 37 C 3.704927 -1.663364 -1.182737 0
M  V30 38 H 1.352789 -4.212341 1.835546 0
M  V30 39 H 3.099041 -4.332320 2.365942 0
M  V30 40 H 1.829804 -3.761328 3.477121 0
M  V30 41 H 3.954151 0.954302 4.266823 0
M  V30 42 H 3.914589 -0.777523 3.933299 0
M  V30 43 H 2.444647 0.045274 4.700115 0
M  V30 44 H 1.599278 4.082878 0.322337 0
M  V30 45 H -0.833311 3.905424 0.311944 0
M  V30 46 H -2.646914 3.935695 1.992961 0
M  V30 47 H -5.084547 3.799146 2.110507 0
M  V30 48 H -6.196304 1.619694 1.508883 0
M  V30 49 H -5.920085 -2.948992 0.097261 0
M  V30 50 H -4.520376 -4.911303 -0.583403 0
M  V30 51 H -2.070412 -4.690029 -0.679755 0
M  V30 52 H -1.063356 -2.560581 -0.108038 0
M  V30 53 H -1.306038 -0.370474 0.560978 0
M  V30 54 H 0.488910 -0.482408 -1.441864 0
M  V30 55 H 0.495713 -1.954542 -3.402320 0
M  V30 56 H 1.597042 -3.489530 -4.816392 0
M  V30 57 H 3.329259 -3.106286 -5.040240 0
M  V30 58 H 2.821057 -4.535053 -4.027222 0
M  V30 59 H 4.507553 -3.047504 -2.568006 0
M  V30 60 H 4.583384 -1.577839 -0.573152 0
M  V30 END ATOM
M  V30 BEGIN BOND
M  V30 1 1 1 2
M  V30 2 1 2 3
M  V30 3 2 3 4
M  V30 4 1 3 5
M  V30 5 2 5 6
M  V30 6 1 6 7
M  V30 7 1 6 8
M  V30 8 2 8 9
M  V30 9 1 9 10
M  V30 10 1 10 11
M  V30 11 1 11 12
M  V30 12 2 12 13
M  V30 13 1 12 14
M  V30 14 2 14 15
M  V30 15 1 15 16
M  V30 16 2 16 17
M  V30 17 1 17 18
M  V30 18 1 18 19
M  V30 19 2 19 20
M  V30 20 1 19 21
M  V30 21 2 21 22
M  V30 22 1 22 23
M  V30 23 2 23 24
M  V30 24 1 24 25
M  V30 25 2 25 26
M  V30 26 1 26 27
M  V30 27 1 27 28
M  V30 28 1 9 29
M  V30 29 2 29 30
M  V30 30 1 30 31
M  V30 31 2 31 32
M  V30 32 1 32 33
M  V30 33 2 33 34
M  V30 34 1 34 35
M  V30 35 1 34 36
M  V30 36 2 36 37
M  V30 37 1 30 5
M  V30 38 1 37 31
M  V30 39 1 28 14
M  V30 40 2 28 18
M  V30 41 1 26 21
M  V30 42 1 1 38
M  V30 43 1 1 39
M  V30 44 1 1 40
M  V30 45 1 7 41
M  V30 46 1 7 42
M  V30 47 1 7 43
M  V30 48 1 10 44
M  V30 49 1 11 45
M  V30 50 1 15 46
M  V30 51 1 16 47
M  V30 52 1 17 48
M  V30 53 1 22 49
M  V30 54 1 23 50
M  V30 55 1 24 51
M  V30 56 1 25 52
M  V30 57 1 27 53
M  V30 58 1 32 54
M  V30 59 1 33 55
M  V30 60 1 35 56
M  V30 61 1 35 57
M  V30 62 1 35 58
M  V30 63 1 36 59
M  V30 64 1 37 60
M  V30 END BOND
M  V30 END CTAB
M  END
>  <Dataset>  (591) 
ChEMBL_Kinases

>  <Ligand_Instance>  (591) 
nan

>  <PDB_ID>  (591) 
nan

>  <Standardized_SMILES>  (591) 
COC(=O)c1c(C)nc(NNC(=O)c2cccc3c(=O)c4ccccc4[nH]c23)nc1-c1ccc(C)cc1

>  <Name>  (591) 
nan

>  <Pocket>  (591) 
nan

>  <ATP_Site>  (591) 
nan

>  <Peripheral>  (591) 
nan

>  <Num_H_Atoms_ProtBoundConf>  (591) 
nan

>  <Num_Resolved_Atoms>  (591) 
nan

>  <Num_Not_Resolved_Atoms>  (591) 
nan

$$$$
CHEMBL4176129
     RDKit          3D

  0  0  0  0  0  0  0  0  0  0999 V3000
M  V30 BEGIN CTAB
M  V30 COUNTS 50 54 0 0 0
M  V30 BEGIN ATOM
M  V30 1 C 2.997644 -5.697286 5.049354 0
M  V30 2 O 2.846626 -6.114597 3.713770 0
M  V30 3 C 2.475354 -5.258799 2.698231 0
M  V30 4 C 2.379161 -5.862004 1.441160 0
M  V30 5 C 2.017618 -5.117741 0.344929 0
M  V30 6 C 1.759035 -3.774818 0.537495 0
M  V30 7 C 1.843921 -3.135076 1.776213 0
M  V30 8 C 2.209929 -3.912827 2.856722 0
M  V30 9 N 1.530607 -1.825053 1.626966 0
M  V30 10 C 1.259660 -1.668059 0.321975 0
M  V30 11 C 0.890224 -0.493869 -0.299030 0
M  V30 12 N 0.712853 0.795264 0.268555 0
M  V30 13 C 1.701378 1.605180 0.957412 0
M  V30 14 C 0.926656 2.742532 1.590989 0
M  V30 15 C -0.181097 2.950766 0.554053 0
M  V30 16 C -0.553307 1.535989 0.243311 0
M  V30 17 C -1.320573 1.357524 -1.022550 0
M  V30 18 C -2.587180 2.129925 -0.984504 0
M  V30 19 C -2.718090 3.430739 -1.414560 0
M  V30 20 C -3.974458 4.013598 -1.311986 0
M  V30 21 C -5.066286 3.344490 -0.804998 0
M  V30 22 C -4.926113 2.047452 -0.378542 0
M  V30 23 C -3.683645 1.461980 -0.476803 0
M  V30 24 N 0.656224 -0.533453 -1.635131 0
M  V30 25 C 0.768201 -1.648613 -2.361051 0
M  V30 26 C 1.137975 -2.843014 -1.762847 0
M  V30 27 C 1.383541 -2.833543 -0.398985 0
M  V30 28 H 4.038259 -5.336797 5.240020 0
M  V30 29 H 2.840854 -6.584324 5.710731 0
M  V30 30 H 2.293503 -4.898116 5.350347 0
M  V30 31 H 2.580697 -6.917446 1.278947 0
M  V30 32 H 1.934806 -5.553066 -0.636625 0
M  V30 33 H 2.297503 -3.490816 3.848015 0
M  V30 34 H 1.514108 -1.120010 2.387465 0
M  V30 35 H 2.413097 2.066753 0.227969 0
M  V30 36 H 2.230386 1.080367 1.762150 0
M  V30 37 H 0.420167 2.440765 2.514649 0
M  V30 38 H 1.554109 3.649975 1.694553 0
M  V30 39 H -1.064634 3.464916 0.978966 0
M  V30 40 H 0.210907 3.467705 -0.337902 0
M  V30 41 H -1.138744 1.102576 1.089530 0
M  V30 42 H -1.525696 0.268535 -1.126392 0
M  V30 43 H -0.677252 1.648186 -1.890088 0
M  V30 44 H -1.833426 3.907427 -1.801827 0
M  V30 45 H -4.079686 5.037709 -1.649974 0
M  V30 46 H -6.007993 3.865284 -0.758037 0
M  V30 47 H -5.778420 1.513510 0.021382 0
M  V30 48 H -3.617151 0.439623 -0.129925 0
M  V30 49 H 0.573741 -1.639252 -3.420250 0
M  V30 50 H 1.236530 -3.751629 -2.314589 0
M  V30 END ATOM
M  V30 BEGIN BOND
M  V30 1 1 1 2
M  V30 2 1 2 3
M  V30 3 2 3 4
M  V30 4 1 4 5
M  V30 5 2 5 6
M  V30 6 1 6 7
M  V30 7 2 7 8
M  V30 8 1 7 9
M  V30 9 1 9 10
M  V30 10 2 10 11
M  V30 11 1 11 12
M  V30 12 1 12 13
M  V30 13 1 13 14
M  V30 14 1 14 15
M  V30 15 1 15 16
M  V30 16 1 16 17
M  V30 17 1 17 18
M  V30 18 2 18 19
M  V30 19 1 19 20
M  V30 20 2 20 21
M  V30 21 1 21 22
M  V30 22 2 22 23
M  V30 23 1 11 24
M  V30 24 2 24 25
M  V30 25 1 25 26
M  V30 26 2 26 27
M  V30 27 1 8 3
M  V30 28 1 27 10
M  V30 29 1 27 6
M  V30 30 1 16 12
M  V30 31 1 23 18
M  V30 32 1 1 28
M  V30 33 1 1 29
M  V30 34 1 1 30
M  V30 35 1 4 31
M  V30 36 1 5 32
M  V30 37 1 8 33
M  V30 38 1 9 34
M  V30 39 1 13 35
M  V30 40 1 13 36
M  V30 41 1 14 37
M  V30 42 1 14 38
M  V30 43 1 15 39
M  V30 44 1 15 40
M  V30 45 1 16 41
M  V30 46 1 17 42
M  V30 47 1 17 43
M  V30 48 1 19 44
M  V30 49 1 20 45
M  V30 50 1 21 46
M  V30 51 1 22 47
M  V30 52 1 23 48
M  V30 53 1 25 49
M  V30 54 1 26 50
M  V30 END BOND
M  V30 END CTAB
M  END
>  <Dataset>  (592) 
ChEMBL_Kinases

>  <Ligand_Instance>  (592) 
nan

>  <PDB_ID>  (592) 
nan

>  <Standardized_SMILES>  (592) 
COc1ccc2c(c1)[nH]c1c(N3CCCC3Cc3ccccc3)nccc12

>  <Name>  (592) 
nan

>  <Pocket>  (592) 
nan

>  <ATP_Site>  (592) 
nan

>  <Peripheral>  (592) 
nan

>  <Num_H_Atoms_ProtBoundConf>  (592) 
nan

>  <Num_Resolved_Atoms>  (592) 
nan

>  <Num_Not_Resolved_Atoms>  (592) 
nan

$$$$
CHEMBL4176003
     RDKit          3D

  0  0  0  0  0  0  0  0  0  0999 V3000
M  V30 BEGIN CTAB
M  V30 COUNTS 54 58 0 0 0
M  V30 BEGIN ATOM
M  V30 1 N 2.319097 0.746305 6.307052 0
M  V30 2 C 2.843679 0.425105 4.996219 0
M  V30 3 C 4.270156 -0.010199 5.174339 0
M  V30 4 C 4.855965 -0.675471 3.960180 0
M  V30 5 C 3.945599 -0.464405 2.767233 0
M  V30 6 C 2.552113 -0.958731 2.975067 0
M  V30 7 C 1.669402 -0.243506 1.986027 0
M  V30 8 O 0.697074 0.490260 2.339040 0
M  V30 9 N 1.861909 -0.339109 0.590987 0
M  V30 10 C 0.851468 0.461830 -0.066228 0
M  V30 11 C 1.218339 1.790513 -0.292909 0
M  V30 12 C 0.294235 2.606722 -0.917998 0
M  V30 13 C -0.951922 2.169017 -1.318939 0
M  V30 14 N -2.032011 2.702838 -1.928805 0
M  V30 15 N -2.986828 1.786668 -2.069134 0
M  V30 16 C -2.567649 0.608629 -1.553516 0
M  V30 17 N -3.263233 -0.632437 -1.490932 0
M  V30 18 C -3.151762 -1.569670 -2.551936 0
M  V30 19 C -2.342842 -1.181704 -3.601149 0
M  V30 20 C -2.197234 -2.063667 -4.670436 0
M  V30 21 C -2.881501 -3.278598 -4.603164 0
M  V30 22 C -3.669754 -3.621914 -3.548624 0
M  V30 23 N -4.299918 -4.794768 -3.536531 0
M  V30 24 C -5.096306 -5.165814 -2.493384 0
M  V30 25 C -5.268038 -4.313296 -1.405859 0
M  V30 26 C -4.625462 -3.098686 -1.400953 0
M  V30 27 C -3.830914 -2.768285 -2.478471 0
M  V30 28 C -1.275716 0.846369 -1.075789 0
M  V30 29 C -0.391184 -0.012470 -0.455177 0
M  V30 30 C 2.028889 -0.691353 4.362518 0
M  V30 31 H 2.852730 0.240717 7.074199 0
M  V30 32 H 1.296172 0.550495 6.391307 0
M  V30 33 H 2.811925 1.301257 4.327027 0
M  V30 34 H 4.864615 0.876710 5.511540 0
M  V30 35 H 4.340534 -0.723159 6.031655 0
M  V30 36 H 5.009669 -1.767087 4.104263 0
M  V30 37 H 5.823416 -0.178261 3.677375 0
M  V30 38 H 3.952174 0.606322 2.476283 0
M  V30 39 H 4.369977 -1.028380 1.915636 0
M  V30 40 H 2.507881 -2.056153 2.775782 0
M  V30 41 H 2.652046 -0.932214 0.218945 0
M  V30 42 H 2.179539 2.187779 -0.000794 0
M  V30 43 H 0.483445 3.662928 -1.141487 0
M  V30 44 H -2.065360 3.704983 -2.230836 0
M  V30 45 H -3.771392 -0.628285 -0.602682 0
M  V30 46 H -1.822278 -0.244520 -3.640397 0
M  V30 47 H -1.581862 -1.836004 -5.531028 0
M  V30 48 H -2.752139 -3.951527 -5.450810 0
M  V30 49 H -5.631208 -6.122899 -2.447502 0
M  V30 50 H -5.883327 -4.541156 -0.545549 0
M  V30 51 H -4.737984 -2.424646 -0.581604 0
M  V30 52 H -0.574396 -1.041403 -0.236973 0
M  V30 53 H 0.968125 -0.337773 4.304919 0
M  V30 54 H 2.023006 -1.591348 5.010699 0
M  V30 END ATOM
M  V30 BEGIN BOND
M  V30 1 1 1 2
M  V30 2 1 2 3
M  V30 3 1 3 4
M  V30 4 1 4 5
M  V30 5 1 5 6
M  V30 6 1 6 7
M  V30 7 2 7 8
M  V30 8 1 7 9
M  V30 9 1 9 10
M  V30 10 2 10 11
M  V30 11 1 11 12
M  V30 12 2 12 13
M  V30 13 1 13 14
M  V30 14 1 14 15
M  V30 15 2 15 16
M  V30 16 1 16 17
M  V30 17 1 17 18
M  V30 18 2 18 19
M  V30 19 1 19 20
M  V30 20 2 20 21
M  V30 21 1 21 22
M  V30 22 2 22 23
M  V30 23 1 23 24
M  V30 24 2 24 25
M  V30 25 1 25 26
M  V30 26 2 26 27
M  V30 27 1 16 28
M  V30 28 2 28 29
M  V30 29 1 6 30
M  V30 30 1 30 2
M  V30 31 1 29 10
M  V30 32 1 28 13
M  V30 33 1 27 18
M  V30 34 1 27 22
M  V30 35 1 1 31
M  V30 36 1 1 32
M  V30 37 1 2 33
M  V30 38 1 3 34
M  V30 39 1 3 35
M  V30 40 1 4 36
M  V30 41 1 4 37
M  V30 42 1 5 38
M  V30 43 1 5 39
M  V30 44 1 6 40
M  V30 45 1 9 41
M  V30 46 1 11 42
M  V30 47 1 12 43
M  V30 48 1 14 44
M  V30 49 1 17 45
M  V30 50 1 19 46
M  V30 51 1 20 47
M  V30 52 1 21 48
M  V30 53 1 24 49
M  V30 54 1 25 50
M  V30 55 1 26 51
M  V30 56 1 29 52
M  V30 57 1 30 53
M  V30 58 1 30 54
M  V30 END BOND
M  V30 END CTAB
M  END
>  <Dataset>  (593) 
ChEMBL_Kinases

>  <Ligand_Instance>  (593) 
nan

>  <PDB_ID>  (593) 
nan

>  <Standardized_SMILES>  (593) 
NC1CCCC(C(=O)Nc2ccc3[nH]nc(Nc4cccc5ncccc45)c3c2)C1

>  <Name>  (593) 
nan

>  <Pocket>  (593) 
nan

>  <ATP_Site>  (593) 
nan

>  <Peripheral>  (593) 
nan

>  <Num_H_Atoms_ProtBoundConf>  (593) 
nan

>  <Num_Resolved_Atoms>  (593) 
nan

>  <Num_Not_Resolved_Atoms>  (593) 
nan

$$$$
CHEMBL4784925
     RDKit          3D

  0  0  0  0  0  0  0  0  0  0999 V3000
M  V30 BEGIN CTAB
M  V30 COUNTS 54 57 0 0 0
M  V30 BEGIN ATOM
M  V30 1 C 4.189530 -5.379813 5.387242 0
M  V30 2 C 4.010705 -4.757102 4.041830 0
M  V30 3 C 4.095321 -3.442755 3.972662 0
M  V30 4 C 3.923602 -2.815526 2.667683 0
M  V30 5 O 3.704513 -3.559747 1.680007 0
M  V30 6 N 4.004833 -1.398007 2.533095 0
M  V30 7 C 4.259424 -0.567046 3.695902 0
M  V30 8 C 4.656436 0.807353 3.202011 0
M  V30 9 C 3.581874 1.290202 2.271930 0
M  V30 10 C 3.171540 0.515319 1.303093 0
M  V30 11 C 2.137228 0.879659 0.343634 0
M  V30 12 C 1.471374 2.076782 0.342583 0
M  V30 13 C 0.489722 2.418299 -0.570211 0
M  V30 14 C 0.170753 1.485791 -1.534817 0
M  V30 15 C -0.847749 1.712635 -2.561887 0
M  V30 16 C -2.199715 1.262301 -2.129279 0
M  V30 17 O -1.419417 1.017778 -1.173838 0
M  V30 18 N -3.320990 1.399730 -2.991100 0
M  V30 19 C -4.514094 0.895763 -2.354616 0
M  V30 20 C -5.064687 -0.372524 -2.357847 0
M  V30 21 C -6.226407 -0.325758 -1.584203 0
M  V30 22 C -7.043263 -1.532048 -1.395096 0
M  V30 23 C -7.261435 -2.511861 -2.478956 0
M  V30 24 C -6.430341 -2.872667 -1.266476 0
M  V30 25 N -6.342050 0.950397 -1.142750 0
M  V30 26 N -5.330755 1.674185 -1.597065 0
M  V30 27 C 0.844503 0.282363 -1.528792 0
M  V30 28 N 1.783183 0.011730 -0.620151 0
M  V30 29 C 3.829309 -0.803649 1.218216 0
M  V30 30 H 3.979839 -6.466992 5.363718 0
M  V30 31 H 3.510818 -4.828977 6.091155 0
M  V30 32 H 5.217681 -5.201073 5.753931 0
M  V30 33 H 3.820723 -5.431767 3.198036 0
M  V30 34 H 4.285713 -2.842913 4.851069 0
M  V30 35 H 5.109674 -1.009607 4.250423 0
M  V30 36 H 3.346573 -0.452608 4.314239 0
M  V30 37 H 4.766866 1.471877 4.074219 0
M  V30 38 H 5.602452 0.722440 2.662584 0
M  V30 39 H 3.148761 2.271840 2.400552 0
M  V30 40 H 1.702170 2.812873 1.079808 0
M  V30 41 H -0.008084 3.362395 -0.539568 0
M  V30 42 H -0.928093 2.808422 -2.823557 0
M  V30 43 H -0.626627 1.204593 -3.529695 0
M  V30 44 H -3.122365 1.824662 -3.911711 0
M  V30 45 H -4.552352 -1.137742 -2.912467 0
M  V30 46 H -7.941409 -1.343332 -0.752597 0
M  V30 47 H -6.752318 -2.356601 -3.462924 0
M  V30 48 H -8.252082 -3.029380 -2.570352 0
M  V30 49 H -6.862579 -3.615588 -0.559279 0
M  V30 50 H -5.351368 -3.035200 -1.497335 0
M  V30 51 H -7.178192 1.128537 -0.544658 0
M  V30 52 H 0.617767 -0.454639 -2.262066 0
M  V30 53 H 3.199916 -1.512408 0.613707 0
M  V30 54 H 4.834530 -0.754052 0.748669 0
M  V30 END ATOM
M  V30 BEGIN BOND
M  V30 1 1 1 2
M  V30 2 2 2 3
M  V30 3 1 3 4
M  V30 4 2 4 5
M  V30 5 1 4 6
M  V30 6 1 6 7
M  V30 7 1 7 8
M  V30 8 1 8 9
M  V30 9 2 9 10
M  V30 10 1 10 11
M  V30 11 2 11 12
M  V30 12 1 12 13
M  V30 13 2 13 14
M  V30 14 1 14 15
M  V30 15 1 15 16
M  V30 16 2 16 17
M  V30 17 1 16 18
M  V30 18 1 18 19
M  V30 19 1 19 20
M  V30 20 2 20 21
M  V30 21 1 21 22
M  V30 22 1 22 23
M  V30 23 1 23 24
M  V30 24 1 21 25
M  V30 25 1 25 26
M  V30 26 1 14 27
M  V30 27 2 27 28
M  V30 28 1 10 29
M  V30 29 1 29 6
M  V30 30 1 28 11
M  V30 31 2 26 19
M  V30 32 1 24 22
M  V30 33 1 1 30
M  V30 34 1 1 31
M  V30 35 1 1 32
M  V30 36 1 2 33
M  V30 37 1 3 34
M  V30 38 1 7 35
M  V30 39 1 7 36
M  V30 40 1 8 37
M  V30 41 1 8 38
M  V30 42 1 9 39
M  V30 43 1 12 40
M  V30 44 1 13 41
M  V30 45 1 15 42
M  V30 46 1 15 43
M  V30 47 1 18 44
M  V30 48 1 20 45
M  V30 49 1 22 46
M  V30 50 1 23 47
M  V30 51 1 23 48
M  V30 52 1 24 49
M  V30 53 1 24 50
M  V30 54 1 25 51
M  V30 55 1 27 52
M  V30 56 1 29 53
M  V30 57 1 29 54
M  V30 END BOND
M  V30 END CTAB
M  END
>  <Dataset>  (594) 
ChEMBL_Kinases

>  <Ligand_Instance>  (594) 
nan

>  <PDB_ID>  (594) 
nan

>  <Standardized_SMILES>  (594) 
C/C=C/C(=O)N1CCC=C(c2ccc(CC(=O)Nc3cc(C4CC4)[nH]n3)cn2)C1

>  <Name>  (594) 
nan

>  <Pocket>  (594) 
nan

>  <ATP_Site>  (594) 
nan

>  <Peripheral>  (594) 
nan

>  <Num_H_Atoms_ProtBoundConf>  (594) 
nan

>  <Num_Resolved_Atoms>  (594) 
nan

>  <Num_Not_Resolved_Atoms>  (594) 
nan

$$$$
CHEMBL4784656
     RDKit          3D

  0  0  0  0  0  0  0  0  0  0999 V3000
M  V30 BEGIN CTAB
M  V30 COUNTS 52 55 0 0 0
M  V30 BEGIN ATOM
M  V30 1 C 1.632894 -8.592401 2.717309 0
M  V30 2 C 1.616190 -8.011916 1.655438 0
M  V30 3 C 1.582823 -7.310852 0.403457 0
M  V30 4 O 0.796472 -7.737555 -0.483895 0
M  V30 5 N 2.411977 -6.178074 0.186085 0
M  V30 6 C 3.360093 -5.570733 1.099279 0
M  V30 7 C 3.087244 -4.112121 1.109766 0
M  V30 8 C 2.419050 -3.393900 0.223966 0
M  V30 9 C 2.214310 -1.956813 0.341476 0
M  V30 10 C 2.681556 -1.171360 1.372426 0
M  V30 11 C 2.470680 0.189271 1.455406 0
M  V30 12 C 1.755070 0.835726 0.467630 0
M  V30 13 C 1.450138 2.274163 0.418618 0
M  V30 14 C 1.969760 2.971946 -0.799974 0
M  V30 15 C -0.031776 2.527023 0.518149 0
M  V30 16 O -0.633061 3.119004 -0.408969 0
M  V30 17 N -0.741641 2.090741 1.667789 0
M  V30 18 C -2.135511 2.278623 1.860048 0
M  V30 19 C -3.074204 2.878756 1.053278 0
M  V30 20 C -4.320006 2.839335 1.634954 0
M  V30 21 C -5.622672 3.353238 1.145746 0
M  V30 22 C -5.703207 4.455175 0.184998 0
M  V30 23 C -5.924174 3.085664 -0.340940 0
M  V30 24 N -4.108448 2.203642 2.806027 0
M  V30 25 N -2.833687 1.877762 2.934777 0
M  V30 26 C 1.291968 0.040023 -0.559694 0
M  V30 27 N 1.524409 -1.284675 -0.595183 0
M  V30 28 C 1.845453 -4.086521 -0.956801 0
M  V30 29 C 2.380594 -5.473028 -1.068627 0
M  V30 30 H 1.663186 -9.104719 3.644379 0
M  V30 31 H 3.267250 -5.972367 2.122972 0
M  V30 32 H 4.391943 -5.788061 0.755337 0
M  V30 33 H 3.508399 -3.614188 1.968590 0
M  V30 34 H 3.244507 -1.624889 2.167108 0
M  V30 35 H 2.842314 0.791938 2.268344 0
M  V30 36 H 1.870477 2.826142 1.297452 0
M  V30 37 H 2.972355 2.654454 -1.083807 0
M  V30 38 H 1.230666 2.883731 -1.635224 0
M  V30 39 H 1.996874 4.068052 -0.579218 0
M  V30 40 H -0.177241 1.605892 2.398111 0
M  V30 41 H -2.891303 3.328561 0.090180 0
M  V30 42 H -6.504843 3.199139 1.806818 0
M  V30 43 H -6.606211 5.102126 0.179627 0
M  V30 44 H -4.796447 5.026090 -0.074756 0
M  V30 45 H -5.120514 2.667910 -0.950192 0
M  V30 46 H -6.938415 2.734736 -0.605137 0
M  V30 47 H -4.804199 1.962215 3.564583 0
M  V30 48 H 0.717739 0.383659 -1.408280 0
M  V30 49 H 0.730799 -4.151330 -0.868969 0
M  V30 50 H 2.136033 -3.504680 -1.862911 0
M  V30 51 H 3.436709 -5.428976 -1.448703 0
M  V30 52 H 1.831966 -6.082120 -1.805156 0
M  V30 END ATOM
M  V30 BEGIN BOND
M  V30 1 3 1 2
M  V30 2 1 2 3
M  V30 3 2 3 4
M  V30 4 1 3 5
M  V30 5 1 5 6
M  V30 6 1 6 7
M  V30 7 2 7 8
M  V30 8 1 8 9
M  V30 9 2 9 10
M  V30 10 1 10 11
M  V30 11 2 11 12
M  V30 12 1 12 13
M  V30 13 1 13 14
M  V30 14 1 13 15
M  V30 15 2 15 16
M  V30 16 1 15 17
M  V30 17 1 17 18
M  V30 18 1 18 19
M  V30 19 2 19 20
M  V30 20 1 20 21
M  V30 21 1 21 22
M  V30 22 1 22 23
M  V30 23 1 20 24
M  V30 24 1 24 25
M  V30 25 1 12 26
M  V30 26 2 26 27
M  V30 27 1 8 28
M  V30 28 1 28 29
M  V30 29 1 29 5
M  V30 30 1 27 9
M  V30 31 2 25 18
M  V30 32 1 23 21
M  V30 33 1 1 30
M  V30 34 1 6 31
M  V30 35 1 6 32
M  V30 36 1 7 33
M  V30 37 1 10 34
M  V30 38 1 11 35
M  V30 39 1 13 36
M  V30 40 1 14 37
M  V30 41 1 14 38
M  V30 42 1 14 39
M  V30 43 1 17 40
M  V30 44 1 19 41
M  V30 45 1 21 42
M  V30 46 1 22 43
M  V30 47 1 22 44
M  V30 48 1 23 45
M  V30 49 1 23 46
M  V30 50 1 24 47
M  V30 51 1 26 48
M  V30 52 1 28 49
M  V30 53 1 28 50
M  V30 54 1 29 51
M  V30 55 1 29 52
M  V30 END BOND
M  V30 END CTAB
M  END
>  <Dataset>  (595) 
ChEMBL_Kinases

>  <Ligand_Instance>  (595) 
nan

>  <PDB_ID>  (595) 
nan

>  <Standardized_SMILES>  (595) 
C#CC(=O)N1CC=C(c2ccc(C(C)C(=O)Nc3cc(C4CC4)[nH]n3)cn2)CC1

>  <Name>  (595) 
nan

>  <Pocket>  (595) 
nan

>  <ATP_Site>  (595) 
nan

>  <Peripheral>  (595) 
nan

>  <Num_H_Atoms_ProtBoundConf>  (595) 
nan

>  <Num_Resolved_Atoms>  (595) 
nan

>  <Num_Not_Resolved_Atoms>  (595) 
nan

$$$$
CHEMBL4202469
     RDKit          3D

  0  0  0  0  0  0  0  0  0  0999 V3000
M  V30 BEGIN CTAB
M  V30 COUNTS 37 40 0 0 0
M  V30 BEGIN ATOM
M  V30 1 F 3.272809 -5.172886 3.430581 0
M  V30 2 C 3.918442 -5.279635 2.190736 0
M  V30 3 F 3.236610 -6.175370 1.390867 0
M  V30 4 F 5.206534 -5.731425 2.401433 0
M  V30 5 C 3.901555 -3.892631 1.636175 0
M  V30 6 C 5.019754 -3.164773 1.288807 0
M  V30 7 C 4.859219 -1.890638 0.787549 0
M  V30 8 C 3.600560 -1.310728 0.619230 0
M  V30 9 C 2.535154 -2.082541 0.981423 0
M  V30 10 C 1.178897 -1.563604 0.842434 0
M  V30 11 N 0.975488 -0.325050 0.361365 0
M  V30 12 C -0.258516 0.188810 0.218569 0
M  V30 13 N -0.384015 1.497178 -0.289678 0
M  V30 14 C -1.461914 2.339164 -0.587141 0
M  V30 15 C -1.763603 3.186498 0.484556 0
M  V30 16 C -2.790669 4.114483 0.428048 0
M  V30 17 N -3.511072 4.186890 -0.707549 0
M  V30 18 C -3.257163 3.383923 -1.779750 0
M  V30 19 C -2.233561 2.458975 -1.723158 0
M  V30 20 C -1.322818 -0.600215 0.584118 0
M  V30 21 C -2.676126 -0.339786 0.549056 0
M  V30 22 C -3.351959 -1.445073 1.021552 0
M  V30 23 C -2.367706 -2.359811 1.334800 0
M  V30 24 N -1.152918 -1.845561 1.069695 0
M  V30 25 N 0.097402 -2.286516 1.182676 0
M  V30 26 N 2.698080 -3.328821 1.471385 0
M  V30 27 H 5.982230 -3.637548 1.429316 0
M  V30 28 H 5.745226 -1.328444 0.518277 0
M  V30 29 H 3.528799 -0.321917 0.227686 0
M  V30 30 H 0.445128 2.073965 -0.540223 0
M  V30 31 H -1.238054 3.206691 1.452068 0
M  V30 32 H -3.039276 4.777536 1.244662 0
M  V30 33 H -3.821118 3.423471 -2.701030 0
M  V30 34 H -1.931065 1.767574 -2.498315 0
M  V30 35 H -3.189922 0.551518 0.222840 0
M  V30 36 H -4.391121 -1.666571 1.161846 0
M  V30 37 H -2.461642 -3.363558 1.738064 0
M  V30 END ATOM
M  V30 BEGIN BOND
M  V30 1 1 1 2
M  V30 2 1 2 3
M  V30 3 1 2 4
M  V30 4 1 2 5
M  V30 5 2 5 6
M  V30 6 1 6 7
M  V30 7 2 7 8
M  V30 8 1 8 9
M  V30 9 1 9 10
M  V30 10 1 10 11
M  V30 11 2 11 12
M  V30 12 1 12 13
M  V30 13 1 13 14
M  V30 14 2 14 15
M  V30 15 1 15 16
M  V30 16 2 16 17
M  V30 17 1 17 18
M  V30 18 2 18 19
M  V30 19 1 12 20
M  V30 20 2 20 21
M  V30 21 1 21 22
M  V30 22 2 22 23
M  V30 23 1 23 24
M  V30 24 1 24 25
M  V30 25 2 9 26
M  V30 26 1 26 5
M  V30 27 2 25 10
M  V30 28 1 19 14
M  V30 29 1 24 20
M  V30 30 1 6 27
M  V30 31 1 7 28
M  V30 32 1 8 29
M  V30 33 1 13 30
M  V30 34 1 15 31
M  V30 35 1 16 32
M  V30 36 1 18 33
M  V30 37 1 19 34
M  V30 38 1 21 35
M  V30 39 1 22 36
M  V30 40 1 23 37
M  V30 END BOND
M  V30 END CTAB
M  END
>  <Dataset>  (596) 
ChEMBL_Kinases

>  <Ligand_Instance>  (596) 
nan

>  <PDB_ID>  (596) 
nan

>  <Standardized_SMILES>  (596) 
FC(F)(F)c1cccc(-c2nc(Nc3ccncc3)c3cccn3n2)n1

>  <Name>  (596) 
nan

>  <Pocket>  (596) 
nan

>  <ATP_Site>  (596) 
nan

>  <Peripheral>  (596) 
nan

>  <Num_H_Atoms_ProtBoundConf>  (596) 
nan

>  <Num_Resolved_Atoms>  (596) 
nan

>  <Num_Not_Resolved_Atoms>  (596) 
nan

$$$$
CHEMBL4784670
     RDKit          3D

  0  0  0  0  0  0  0  0  0  0999 V3000
M  V30 BEGIN CTAB
M  V30 COUNTS 68 72 0 0 0
M  V30 BEGIN ATOM
M  V30 1 C 5.226541 -2.946627 1.838890 0
M  V30 2 O 4.543969 -2.312242 0.778638 0
M  V30 3 C 3.467627 -1.477046 0.998515 0
M  V30 4 C 2.956545 -1.181902 2.264076 0
M  V30 5 C 1.880839 -0.346682 2.476288 0
M  V30 6 C 1.256606 0.242882 1.397396 0
M  V30 7 C 1.724195 -0.017091 0.125654 0
M  V30 8 C 1.178573 0.524566 -1.139442 0
M  V30 9 N 1.936476 1.318626 -1.922706 0
M  V30 10 C 1.253286 1.696772 -3.016225 0
M  V30 11 C 1.739869 2.557788 -4.096333 0
M  V30 12 C 0.905970 2.852463 -5.156383 0
M  V30 13 C 1.444701 3.673938 -6.134823 0
M  V30 14 C 2.716393 4.180993 -6.090376 0
M  V30 15 C 3.523025 3.870427 -5.023006 0
M  V30 16 C 3.027510 3.055141 -4.024970 0
M  V30 17 N 0.035995 1.129377 -2.922974 0
M  V30 18 C -0.035231 0.408630 -1.786424 0
M  V30 19 C -1.112688 -0.399629 -1.197154 0
M  V30 20 C -2.317195 0.195933 -0.892855 0
M  V30 21 C -3.265914 -0.608056 -0.351650 0
M  V30 22 N -3.050625 -1.911360 -0.122514 0
M  V30 23 C -1.904545 -2.558053 -0.393106 0
M  V30 24 N -1.622912 -3.929647 -0.176458 0
M  V30 25 C -2.405090 -4.938513 0.438291 0
M  V30 26 C -2.492090 -4.943498 1.925536 0
M  V30 27 C -3.053436 -3.684027 2.500962 0
M  V30 28 N -3.147687 -3.782089 3.969191 0
M  V30 29 S -3.795369 -2.324463 4.588626 0
M  V30 30 O -5.164980 -2.066768 3.983684 0
M  V30 31 O -3.979669 -2.471495 6.084825 0
M  V30 32 C -2.806065 -0.924246 4.251494 0
M  V30 33 C -2.950713 -0.130225 3.135995 0
M  V30 34 C -2.187852 0.978085 2.844294 0
M  V30 35 C -1.198112 1.284496 3.785601 0
M  V30 36 C -1.005324 0.528620 4.920119 0
M  V30 37 Cl 0.237099 0.924591 6.088184 0
M  V30 38 C -1.806388 -0.586735 5.169540 0
M  V30 39 C -0.952231 -1.726451 -0.942187 0
M  V30 40 C 2.817758 -0.869504 -0.051567 0
M  V30 41 H 4.730050 -3.917804 2.119945 0
M  V30 42 H 5.295916 -2.353769 2.761367 0
M  V30 43 H 6.287615 -3.145461 1.538618 0
M  V30 44 H 3.426150 -1.629949 3.127852 0
M  V30 45 H 1.483895 -0.116227 3.440954 0
M  V30 46 H 0.409045 0.914924 1.404678 0
M  V30 47 H -0.104597 2.485014 -5.249654 0
M  V30 48 H 0.831053 3.941377 -6.998222 0
M  V30 49 H 3.159126 4.820353 -6.836537 0
M  V30 50 H 4.556717 4.199425 -4.850146 0
M  V30 51 H 3.637059 2.778814 -3.150796 0
M  V30 52 H -0.764668 1.196950 -3.586504 0
M  V30 53 H -2.531432 1.243165 -1.061678 0
M  V30 54 H -4.264374 -0.272132 -0.061979 0
M  V30 55 H -0.684882 -4.253825 -0.524077 0
M  V30 56 H -3.470225 -4.932857 0.014553 0
M  V30 57 H -2.032452 -5.957349 0.132484 0
M  V30 58 H -3.168266 -5.801782 2.214417 0
M  V30 59 H -1.507577 -5.215393 2.376543 0
M  V30 60 H -4.052286 -3.464913 2.100586 0
M  V30 61 H -2.368549 -2.816491 2.328318 0
M  V30 62 H -2.214654 -4.002060 4.328115 0
M  V30 63 H -3.747391 -0.477203 2.497503 0
M  V30 64 H -2.365061 1.551066 1.943128 0
M  V30 65 H -0.574396 2.151180 3.592317 0
M  V30 66 H -1.638284 -1.167742 6.067567 0
M  V30 67 H 0.019086 -2.126370 -1.206844 0
M  V30 68 H 3.217301 -1.098780 -1.052386 0
M  V30 END ATOM
M  V30 BEGIN BOND
M  V30 1 1 1 2
M  V30 2 1 2 3
M  V30 3 2 3 4
M  V30 4 1 4 5
M  V30 5 2 5 6
M  V30 6 1 6 7
M  V30 7 1 7 8
M  V30 8 1 8 9
M  V30 9 2 9 10
M  V30 10 1 10 11
M  V30 11 2 11 12
M  V30 12 1 12 13
M  V30 13 2 13 14
M  V30 14 1 14 15
M  V30 15 2 15 16
M  V30 16 1 10 17
M  V30 17 1 17 18
M  V30 18 1 18 19
M  V30 19 2 19 20
M  V30 20 1 20 21
M  V30 21 2 21 22
M  V30 22 1 22 23
M  V30 23 1 23 24
M  V30 24 1 24 25
M  V30 25 1 25 26
M  V30 26 1 26 27
M  V30 27 1 27 28
M  V30 28 1 28 29
M  V30 29 2 29 30
M  V30 30 2 29 31
M  V30 31 1 29 32
M  V30 32 2 32 33
M  V30 33 1 33 34
M  V30 34 2 34 35
M  V30 35 1 35 36
M  V30 36 1 36 37
M  V30 37 2 36 38
M  V30 38 2 23 39
M  V30 39 2 7 40
M  V30 40 1 40 3
M  V30 41 2 18 8
M  V30 42 1 39 19
M  V30 43 1 16 11
M  V30 44 1 38 32
M  V30 45 1 1 41
M  V30 46 1 1 42
M  V30 47 1 1 43
M  V30 48 1 4 44
M  V30 49 1 5 45
M  V30 50 1 6 46
M  V30 51 1 12 47
M  V30 52 1 13 48
M  V30 53 1 14 49
M  V30 54 1 15 50
M  V30 55 1 16 51
M  V30 56 1 17 52
M  V30 57 1 20 53
M  V30 58 1 21 54
M  V30 59 1 24 55
M  V30 60 1 25 56
M  V30 61 1 25 57
M  V30 62 1 26 58
M  V30 63 1 26 59
M  V30 64 1 27 60
M  V30 65 1 27 61
M  V30 66 1 28 62
M  V30 67 1 33 63
M  V30 68 1 34 64
M  V30 69 1 35 65
M  V30 70 1 38 66
M  V30 71 1 39 67
M  V30 72 1 40 68
M  V30 END BOND
M  V30 END CTAB
M  END
>  <Dataset>  (597) 
ChEMBL_Kinases

>  <Ligand_Instance>  (597) 
nan

>  <PDB_ID>  (597) 
nan

>  <Standardized_SMILES>  (597) 
COc1cccc(-c2nc(-c3ccccc3)[nH]c2-c2ccnc(NCCCNS(=O)(=O)c3cccc(Cl)c3)c2)c1

>  <Name>  (597) 
nan

>  <Pocket>  (597) 
nan

>  <ATP_Site>  (597) 
nan

>  <Peripheral>  (597) 
nan

>  <Num_H_Atoms_ProtBoundConf>  (597) 
nan

>  <Num_Resolved_Atoms>  (597) 
nan

>  <Num_Not_Resolved_Atoms>  (597) 
nan

$$$$
CHEMBL4784679
     RDKit          3D

  0  0  0  0  0  0  0  0  0  0999 V3000
M  V30 BEGIN CTAB
M  V30 COUNTS 52 55 0 0 0
M  V30 BEGIN ATOM
M  V30 1 C -1.464220 -5.753269 3.607697 0
M  V30 2 C -0.914568 -4.721989 2.618885 0
M  V30 3 O 0.232437 -5.075036 2.025983 0
M  V30 4 C 1.159175 -4.692915 1.153944 0
M  V30 5 N 1.236842 -3.575368 0.432310 0
M  V30 6 C 2.219856 -3.296263 -0.420466 0
M  V30 7 N 2.342387 -2.115307 -1.193301 0
M  V30 8 C 1.524361 -0.967962 -1.182719 0
M  V30 9 C 0.448166 -0.750952 -0.355236 0
M  V30 10 C -0.356941 0.362462 -0.302167 0
M  V30 11 C -0.057774 1.393883 -1.184070 0
M  V30 12 C -0.787701 2.656559 -1.269009 0
M  V30 13 O -1.348431 2.793313 -2.396974 0
M  V30 14 N -0.873851 3.640648 -0.219793 0
M  V30 15 C -0.383095 3.793713 1.138201 0
M  V30 16 C -1.506181 3.840797 2.138240 0
M  V30 17 N -2.762442 4.202760 1.560647 0
M  V30 18 C -3.661728 3.109132 1.311087 0
M  V30 19 C -2.661705 5.138488 0.474279 0
M  V30 20 C -1.615681 4.839407 -0.539418 0
M  V30 21 C 1.006505 1.249745 -2.045945 0
M  V30 22 C 1.755827 0.106822 -2.031153 0
M  V30 23 Cl 3.100319 -0.002557 -3.181161 0
M  V30 24 N 3.195023 -4.216095 -0.551202 0
M  V30 25 C 3.227213 -5.373550 0.118664 0
M  V30 26 N 4.107365 -6.377866 0.113425 0
M  V30 27 C 3.675326 -7.332381 0.990799 0
M  V30 28 C 2.470168 -6.858488 1.541723 0
M  V30 29 C 2.195916 -5.628761 0.990644 0
M  V30 30 H -1.719356 -5.262961 4.567878 0
M  V30 31 H -2.400135 -6.246593 3.203004 0
M  V30 32 H -0.763034 -6.585668 3.764441 0
M  V30 33 H -1.738372 -4.454778 1.886809 0
M  V30 34 H -0.758990 -3.768613 3.203053 0
M  V30 35 H 3.151066 -2.054007 -1.883059 0
M  V30 36 H 0.155737 -1.511527 0.356609 0
M  V30 37 H -1.192364 0.479842 0.369906 0
M  V30 38 H 0.238662 2.886898 1.363897 0
M  V30 39 H 0.287137 4.656637 1.148170 0
M  V30 40 H -1.582808 2.859570 2.689491 0
M  V30 41 H -1.258244 4.602483 2.902598 0
M  V30 42 H -4.713202 3.347274 1.645883 0
M  V30 43 H -3.348264 2.254727 1.943932 0
M  V30 44 H -3.660498 2.777061 0.238466 0
M  V30 45 H -2.498394 6.141673 0.937527 0
M  V30 46 H -3.674065 5.176538 0.007419 0
M  V30 47 H -1.984091 4.852773 -1.589186 0
M  V30 48 H -0.848142 5.672783 -0.518132 0
M  V30 49 H 1.261655 2.030944 -2.738600 0
M  V30 50 H 4.987872 -6.476079 -0.442141 0
M  V30 51 H 4.074366 -8.288504 1.293441 0
M  V30 52 H 1.845234 -7.375987 2.288366 0
M  V30 END ATOM
M  V30 BEGIN BOND
M  V30 1 1 1 2
M  V30 2 1 2 3
M  V30 3 1 3 4
M  V30 4 2 4 5
M  V30 5 1 5 6
M  V30 6 1 6 7
M  V30 7 1 7 8
M  V30 8 2 8 9
M  V30 9 1 9 10
M  V30 10 2 10 11
M  V30 11 1 11 12
M  V30 12 2 12 13
M  V30 13 1 12 14
M  V30 14 1 14 15
M  V30 15 1 15 16
M  V30 16 1 16 17
M  V30 17 1 17 18
M  V30 18 1 17 19
M  V30 19 1 19 20
M  V30 20 1 11 21
M  V30 21 2 21 22
M  V30 22 1 22 23
M  V30 23 2 6 24
M  V30 24 1 24 25
M  V30 25 1 25 26
M  V30 26 1 26 27
M  V30 27 2 27 28
M  V30 28 1 28 29
M  V30 29 1 29 4
M  V30 30 1 22 8
M  V30 31 2 29 25
M  V30 32 1 20 14
M  V30 33 1 1 30
M  V30 34 1 1 31
M  V30 35 1 1 32
M  V30 36 1 2 33
M  V30 37 1 2 34
M  V30 38 1 7 35
M  V30 39 1 9 36
M  V30 40 1 10 37
M  V30 41 1 15 38
M  V30 42 1 15 39
M  V30 43 1 16 40
M  V30 44 1 16 41
M  V30 45 1 18 42
M  V30 46 1 18 43
M  V30 47 1 18 44
M  V30 48 1 19 45
M  V30 49 1 19 46
M  V30 50 1 20 47
M  V30 51 1 20 48
M  V30 52 1 21 49
M  V30 53 1 26 50
M  V30 54 1 27 51
M  V30 55 1 28 52
M  V30 END BOND
M  V30 END CTAB
M  END
>  <Dataset>  (598) 
ChEMBL_Kinases

>  <Ligand_Instance>  (598) 
nan

>  <PDB_ID>  (598) 
nan

>  <Standardized_SMILES>  (598) 
CCOc1nc(Nc2ccc(C(=O)N3CCN(C)CC3)cc2Cl)nc2[nH]ccc12

>  <Name>  (598) 
nan

>  <Pocket>  (598) 
nan

>  <ATP_Site>  (598) 
nan

>  <Peripheral>  (598) 
nan

>  <Num_H_Atoms_ProtBoundConf>  (598) 
nan

>  <Num_Resolved_Atoms>  (598) 
nan

>  <Num_Not_Resolved_Atoms>  (598) 
nan

$$$$
CHEMBL420134
     RDKit          3D

  0  0  0  0  0  0  0  0  0  0999 V3000
M  V30 BEGIN CTAB
M  V30 COUNTS 37 40 0 0 0
M  V30 BEGIN ATOM
M  V30 1 O -0.015546 -3.228468 4.559062 0
M  V30 2 C 0.356185 -2.306675 3.810798 0
M  V30 3 N 0.731263 -1.112744 4.317545 0
M  V30 4 C 1.140417 -0.086252 3.550838 0
M  V30 5 N 1.200011 -0.193634 2.210620 0
M  V30 6 N 1.602626 0.816157 1.454765 0
M  V30 7 C 1.669532 0.729607 0.112752 0
M  V30 8 S 2.203759 2.054765 -0.960702 0
M  V30 9 C 0.855928 3.096795 -1.483220 0
M  V30 10 C 0.045901 2.983684 -2.580533 0
M  V30 11 C -0.947404 3.912957 -2.794691 0
M  V30 12 C -1.156563 4.966864 -1.930561 0
M  V30 13 F -2.142843 5.858960 -2.175632 0
M  V30 14 C -0.351388 5.101548 -0.816248 0
M  V30 15 C 0.655471 4.157299 -0.601601 0
M  V30 16 Cl 1.588994 4.474064 0.860488 0
M  V30 17 C 1.296620 -0.476933 -0.484317 0
M  V30 18 C 0.868155 -1.557453 0.291867 0
M  V30 19 C 0.837121 -1.362293 1.655654 0
M  V30 20 C 0.413439 -2.431365 2.420249 0
M  V30 21 C 0.003219 -3.731746 1.891983 0
M  V30 22 C 1.015608 -4.668158 1.761756 0
M  V30 23 Cl 2.685460 -4.294995 2.210263 0
M  V30 24 C 0.828223 -5.951352 1.282067 0
M  V30 25 C -0.477054 -6.285870 0.916665 0
M  V30 26 C -1.504310 -5.377338 1.034405 0
M  V30 27 C -1.247351 -4.113145 1.520831 0
M  V30 28 Cl -2.513691 -2.913517 1.693522 0
M  V30 29 H 1.428389 0.848809 4.027920 0
M  V30 30 H 0.291396 2.128452 -3.190333 0
M  V30 31 H -1.555598 3.773420 -3.676444 0
M  V30 32 H -0.556336 5.934594 -0.181025 0
M  V30 33 H 1.335579 -0.584348 -1.538397 0
M  V30 34 H 0.581093 -2.489731 -0.184473 0
M  V30 35 H 1.621370 -6.668901 1.185603 0
M  V30 36 H -0.684323 -7.290932 0.529378 0
M  V30 37 H -2.505704 -5.668550 0.742116 0
M  V30 END ATOM
M  V30 BEGIN BOND
M  V30 1 2 1 2
M  V30 2 1 2 3
M  V30 3 2 3 4
M  V30 4 1 4 5
M  V30 5 1 5 6
M  V30 6 2 6 7
M  V30 7 1 7 8
M  V30 8 1 8 9
M  V30 9 2 9 10
M  V30 10 1 10 11
M  V30 11 2 11 12
M  V30 12 1 12 13
M  V30 13 1 12 14
M  V30 14 2 14 15
M  V30 15 1 15 16
M  V30 16 1 7 17
M  V30 17 2 17 18
M  V30 18 1 18 19
M  V30 19 2 19 20
M  V30 20 1 20 21
M  V30 21 2 21 22
M  V30 22 1 22 23
M  V30 23 1 22 24
M  V30 24 2 24 25
M  V30 25 1 25 26
M  V30 26 2 26 27
M  V30 27 1 27 28
M  V30 28 1 20 2
M  V30 29 1 27 21
M  V30 30 1 19 5
M  V30 31 1 15 9
M  V30 32 1 4 29
M  V30 33 1 10 30
M  V30 34 1 11 31
M  V30 35 1 14 32
M  V30 36 1 17 33
M  V30 37 1 18 34
M  V30 38 1 24 35
M  V30 39 1 25 36
M  V30 40 1 26 37
M  V30 END BOND
M  V30 END CTAB
M  END
>  <Dataset>  (599) 
ChEMBL_Kinases

>  <Ligand_Instance>  (599) 
nan

>  <PDB_ID>  (599) 
nan

>  <Standardized_SMILES>  (599) 
O=c1ncn2nc(Sc3ccc(F)cc3Cl)ccc2c1-c1c(Cl)cccc1Cl

>  <Name>  (599) 
nan

>  <Pocket>  (599) 
nan

>  <ATP_Site>  (599) 
nan

>  <Peripheral>  (599) 
nan

>  <Num_H_Atoms_ProtBoundConf>  (599) 
nan

>  <Num_Resolved_Atoms>  (599) 
nan

>  <Num_Not_Resolved_Atoms>  (599) 
nan

$$$$
CHEMBL420047
     RDKit          3D

  0  0  0  0  0  0  0  0  0  0999 V3000
M  V30 BEGIN CTAB
M  V30 COUNTS 56 59 0 0 0
M  V30 BEGIN ATOM
M  V30 1 C -1.790621 -1.471448 5.767109 0
M  V30 2 C -1.058373 -0.998740 4.562713 0
M  V30 3 C -0.632351 -1.912563 3.617466 0
M  V30 4 C 0.049509 -1.503531 2.489537 0
M  V30 5 C 0.300617 -0.152606 2.321034 0
M  V30 6 N 0.978852 0.501693 1.250018 0
M  V30 7 N 2.300776 0.611914 1.459150 0
M  V30 8 C 2.858784 1.240300 0.400458 0
M  V30 9 C 4.268000 1.617389 0.111694 0
M  V30 10 C 4.896598 0.447339 -0.624615 0
M  V30 11 C 5.032187 1.810871 1.397906 0
M  V30 12 C 4.341232 2.820900 -0.777367 0
M  V30 13 C 1.850555 1.529816 -0.495457 0
M  V30 14 C 0.685986 1.064327 0.046475 0
M  V30 15 N -0.701945 0.997294 -0.269087 0
M  V30 16 C -1.179517 -0.153593 -0.986956 0
M  V30 17 O -0.333749 -1.057065 -1.304827 0
M  V30 18 N -2.568257 -0.299030 -1.345027 0
M  V30 19 C -2.850107 -1.501701 -2.051484 0
M  V30 20 C -2.746317 -1.406983 -3.435203 0
M  V30 21 C -2.989333 -2.488915 -4.256620 0
M  V30 22 C -3.344980 -3.691981 -3.663039 0
M  V30 23 C -3.452140 -3.801262 -2.288643 0
M  V30 24 C -3.808607 -5.000610 -1.663053 0
M  V30 25 C -3.911824 -5.095212 -0.288860 0
M  V30 26 C -3.648913 -3.957408 0.445359 0
M  V30 27 C -3.292103 -2.739457 -0.098479 0
M  V30 28 C -3.204223 -2.702392 -1.473742 0
M  V30 29 C -0.129536 0.771197 3.275675 0
M  V30 30 C -0.814679 0.357137 4.408406 0
M  V30 31 H -1.840137 -2.572513 5.765331 0
M  V30 32 H -2.865910 -1.127825 5.773759 0
M  V30 33 H -1.369085 -1.068834 6.707293 0
M  V30 34 H -0.800587 -2.978051 3.697367 0
M  V30 35 H 0.431803 -2.113983 1.684428 0
M  V30 36 H 4.109549 0.042031 -1.302356 0
M  V30 37 H 5.057130 -0.363476 0.128686 0
M  V30 38 H 5.806043 0.720462 -1.159480 0
M  V30 39 H 4.540908 2.481338 2.110678 0
M  V30 40 H 6.025850 2.243565 1.148778 0
M  V30 41 H 5.242372 0.811099 1.848091 0
M  V30 42 H 3.587652 3.583963 -0.462927 0
M  V30 43 H 4.115070 2.562266 -1.829167 0
M  V30 44 H 5.357945 3.260060 -0.736908 0
M  V30 45 H 1.776148 2.002781 -1.451774 0
M  V30 46 H -1.384061 1.741405 -0.004373 0
M  V30 47 H -3.190809 0.479059 -1.049960 0
M  V30 48 H -2.466481 -0.465360 -3.925632 0
M  V30 49 H -2.898842 -2.376943 -5.324279 0
M  V30 50 H -3.540763 -4.555181 -4.284761 0
M  V30 51 H -3.999884 -5.852923 -2.313054 0
M  V30 52 H -4.186934 -6.031060 0.145836 0
M  V30 53 H -3.739892 -4.070390 1.516826 0
M  V30 54 H -3.093144 -1.871604 0.489450 0
M  V30 55 H 0.013022 1.840894 3.242284 0
M  V30 56 H -1.168981 1.037672 5.178173 0
M  V30 END ATOM
M  V30 BEGIN BOND
M  V30 1 1 1 2
M  V30 2 2 2 3
M  V30 3 1 3 4
M  V30 4 2 4 5
M  V30 5 1 5 6
M  V30 6 1 6 7
M  V30 7 2 7 8
M  V30 8 1 8 9
M  V30 9 1 9 10
M  V30 10 1 9 11
M  V30 11 1 9 12
M  V30 12 1 8 13
M  V30 13 2 13 14
M  V30 14 1 14 15
M  V30 15 1 15 16
M  V30 16 2 16 17
M  V30 17 1 16 18
M  V30 18 1 18 19
M  V30 19 2 19 20
M  V30 20 1 20 21
M  V30 21 2 21 22
M  V30 22 1 22 23
M  V30 23 2 23 24
M  V30 24 1 24 25
M  V30 25 2 25 26
M  V30 26 1 26 27
M  V30 27 2 27 28
M  V30 28 1 5 29
M  V30 29 2 29 30
M  V30 30 1 30 2
M  V30 31 1 14 6
M  V30 32 1 28 19
M  V30 33 1 28 23
M  V30 34 1 1 31
M  V30 35 1 1 32
M  V30 36 1 1 33
M  V30 37 1 3 34
M  V30 38 1 4 35
M  V30 39 1 10 36
M  V30 40 1 10 37
M  V30 41 1 10 38
M  V30 42 1 11 39
M  V30 43 1 11 40
M  V30 44 1 11 41
M  V30 45 1 12 42
M  V30 46 1 12 43
M  V30 47 1 12 44
M  V30 48 1 13 45
M  V30 49 1 15 46
M  V30 50 1 18 47
M  V30 51 1 20 48
M  V30 52 1 21 49
M  V30 53 1 22 50
M  V30 54 1 24 51
M  V30 55 1 25 52
M  V30 56 1 26 53
M  V30 57 1 27 54
M  V30 58 1 29 55
M  V30 59 1 30 56
M  V30 END BOND
M  V30 END CTAB
M  END
>  <Dataset>  (600) 
ChEMBL_Kinases

>  <Ligand_Instance>  (600) 
nan

>  <PDB_ID>  (600) 
nan

>  <Standardized_SMILES>  (600) 
Cc1ccc(-n2nc(C(C)(C)C)cc2NC(=O)Nc2cccc3ccccc23)cc1

>  <Name>  (600) 
nan

>  <Pocket>  (600) 
nan

>  <ATP_Site>  (600) 
nan

>  <Peripheral>  (600) 
nan

>  <Num_H_Atoms_ProtBoundConf>  (600) 
nan

>  <Num_Resolved_Atoms>  (600) 
nan

>  <Num_Not_Resolved_Atoms>  (600) 
nan

$$$$
CHEMBL419932
     RDKit          3D

  0  0  0  0  0  0  0  0  0  0999 V3000
M  V30 BEGIN CTAB
M  V30 COUNTS 36 37 0 0 0
M  V30 BEGIN ATOM
M  V30 1 C 2.711419 -5.023920 1.011578 0
M  V30 2 C 1.951280 -4.819622 2.291767 0 CFG=2
M  V30 3 N 0.604839 -5.366791 2.250588 0
M  V30 4 C 1.944215 -3.348089 2.628117 0
M  V30 5 O 1.217109 -2.589732 1.677092 0
M  V30 6 C 1.156401 -1.219471 1.906030 0
M  V30 7 C 1.792532 -0.673030 3.023474 0
M  V30 8 N 1.706544 0.658089 3.203877 0
M  V30 9 C 1.041798 1.469156 2.362222 0
M  V30 10 Cl 0.978302 3.206336 2.673360 0
M  V30 11 C 0.391534 0.996824 1.240298 0
M  V30 12 C -0.331427 1.874945 0.323973 0
M  V30 13 C -0.973736 1.519103 -0.758066 0
M  V30 14 C -1.687428 2.419354 -1.654779 0
M  V30 15 C -1.776014 3.776271 -1.472408 0
M  V30 16 C -2.471993 4.588009 -2.362466 0
M  V30 17 N -3.082364 4.055117 -3.436628 0
M  V30 18 C -3.019217 2.726971 -3.651744 0
M  V30 19 C -2.330609 1.928520 -2.770007 0
M  V30 20 C 0.479677 -0.367412 1.055432 0
M  V30 21 H 2.275798 -5.909529 0.489940 0
M  V30 22 H 3.763580 -5.221087 1.237097 0
M  V30 23 H 2.563864 -4.098190 0.411258 0
M  V30 24 H 2.503433 -5.334381 3.103342 0
M  V30 25 H 0.644743 -6.402361 2.292783 0
M  V30 26 H 0.222020 -5.108918 1.313013 0
M  V30 27 H 1.576082 -3.195382 3.665188 0
M  V30 28 H 2.984364 -2.986859 2.589180 0
M  V30 29 H 2.338131 -1.300676 3.723250 0
M  V30 30 H -0.332183 2.931587 0.571996 0
M  V30 31 H -0.960604 0.463405 -0.986647 0
M  V30 32 H -1.308161 4.237044 -0.636728 0
M  V30 33 H -2.550188 5.660022 -2.231145 0
M  V30 34 H -3.518497 2.314567 -4.524859 0
M  V30 35 H -2.309007 0.852641 -2.990188 0
M  V30 36 H 0.017429 -0.839381 0.225792 0
M  V30 END ATOM
M  V30 BEGIN BOND
M  V30 1 1 1 2
M  V30 2 1 2 3
M  V30 3 1 2 4
M  V30 4 1 4 5
M  V30 5 1 5 6
M  V30 6 2 6 7
M  V30 7 1 7 8
M  V30 8 2 8 9
M  V30 9 1 9 10
M  V30 10 1 9 11
M  V30 11 1 11 12
M  V30 12 2 12 13
M  V30 13 1 13 14
M  V30 14 2 14 15
M  V30 15 1 15 16
M  V30 16 2 16 17
M  V30 17 1 17 18
M  V30 18 2 18 19
M  V30 19 2 11 20
M  V30 20 1 20 6
M  V30 21 1 19 14
M  V30 22 1 1 21
M  V30 23 1 1 22
M  V30 24 1 1 23
M  V30 25 1 2 24 CFG=1
M  V30 26 1 3 25
M  V30 27 1 3 26
M  V30 28 1 4 27
M  V30 29 1 4 28
M  V30 30 1 7 29
M  V30 31 1 12 30
M  V30 32 1 13 31
M  V30 33 1 15 32
M  V30 34 1 16 33
M  V30 35 1 18 34
M  V30 36 1 19 35
M  V30 37 1 20 36
M  V30 END BOND
M  V30 END CTAB
M  END
>  <Dataset>  (601) 
ChEMBL_Kinases

>  <Ligand_Instance>  (601) 
nan

>  <PDB_ID>  (601) 
nan

>  <Standardized_SMILES>  (601) 
C[C@H](N)COc1cnc(Cl)c(/C=C/c2ccncc2)c1

>  <Name>  (601) 
nan

>  <Pocket>  (601) 
nan

>  <ATP_Site>  (601) 
nan

>  <Peripheral>  (601) 
nan

>  <Num_H_Atoms_ProtBoundConf>  (601) 
nan

>  <Num_Resolved_Atoms>  (601) 
nan

>  <Num_Not_Resolved_Atoms>  (601) 
nan

$$$$
CHEMBL4784697
     RDKit          3D

  0  0  0  0  0  0  0  0  0  0999 V3000
M  V30 BEGIN CTAB
M  V30 COUNTS 49 52 0 0 0
M  V30 BEGIN ATOM
M  V30 1 C 1.109877 -5.193768 2.968463 0
M  V30 2 O 0.669469 -5.384032 1.637706 0
M  V30 3 C 0.884421 -4.417925 0.659890 0
M  V30 4 C 1.531614 -3.231349 0.925288 0
M  V30 5 C 1.727998 -2.294734 -0.068628 0
M  V30 6 C 1.277304 -2.532137 -1.350922 0
M  V30 7 N 1.398495 -1.675770 -2.482958 0
M  V30 8 N 1.877970 -1.918284 -3.712099 0
M  V30 9 N 1.798227 -0.824797 -4.450303 0
M  V30 10 C 1.259263 0.154083 -3.700811 0
M  V30 11 C 0.938361 1.478432 -3.918225 0
M  V30 12 N 0.395722 2.189507 -2.917914 0
M  V30 13 C 0.133232 1.701629 -1.689499 0
M  V30 14 N -0.444684 2.509011 -0.669445 0
M  V30 15 C -0.689208 1.913410 0.602075 0 CFG=1
M  V30 16 C 0.514180 1.375475 1.311307 0
M  V30 17 C -0.001311 0.385933 2.340369 0
M  V30 18 C -0.968373 1.019681 3.302819 0 CFG=2
M  V30 19 C -1.617420 -0.052311 4.112299 0
M  V30 20 N -2.351718 -1.013193 3.337947 0
M  V30 21 C -1.998722 1.881530 2.637768 0
M  V30 22 C -1.420196 2.779966 1.570822 0
M  V30 23 N 0.455856 0.411602 -1.507998 0
M  V30 24 C 1.002675 -0.375481 -2.452894 0
M  V30 25 C 0.617224 -3.730337 -1.643985 0
M  V30 26 C 0.444468 -4.637634 -0.614271 0
M  V30 27 H 2.098868 -4.708782 3.041809 0
M  V30 28 H 1.129552 -6.172039 3.481523 0
M  V30 29 H 0.379993 -4.576571 3.545410 0
M  V30 30 H 1.898951 -3.011228 1.920751 0
M  V30 31 H 2.226394 -1.344479 0.067739 0
M  V30 32 H 1.129725 1.919579 -4.890247 0
M  V30 33 H -0.662419 3.494890 -0.896058 0
M  V30 34 H -1.355731 1.019599 0.419860 0
M  V30 35 H 1.247439 0.863496 0.689719 0
M  V30 36 H 1.033068 2.182578 1.900809 0
M  V30 37 H -0.552634 -0.394908 1.776719 0
M  V30 38 H 0.788012 -0.098754 2.917911 0
M  V30 39 H -0.382145 1.653212 3.992485 0
M  V30 40 H -2.318325 0.335780 4.879598 0
M  V30 41 H -0.846836 -0.617681 4.698996 0
M  V30 42 H -2.502464 -0.745709 2.357591 0
M  V30 43 H -3.136242 -1.463843 3.812402 0
M  V30 44 H -2.765939 1.269414 2.146531 0
M  V30 45 H -2.486984 2.494253 3.429966 0
M  V30 46 H -0.763311 3.540583 2.078419 0
M  V30 47 H -2.277581 3.303911 1.091055 0
M  V30 48 H 0.236315 -3.985686 -2.625757 0
M  V30 49 H -0.069530 -5.583572 -0.818435 0
M  V30 END ATOM
M  V30 BEGIN BOND
M  V30 1 1 1 2
M  V30 2 1 2 3
M  V30 3 2 3 4
M  V30 4 1 4 5
M  V30 5 2 5 6
M  V30 6 1 6 7
M  V30 7 1 7 8
M  V30 8 2 8 9
M  V30 9 1 9 10
M  V30 10 2 10 11
M  V30 11 1 11 12
M  V30 12 2 12 13
M  V30 13 1 13 14
M  V30 14 1 14 15
M  V30 15 1 15 16
M  V30 16 1 16 17
M  V30 17 1 17 18
M  V30 18 1 18 19
M  V30 19 1 19 20
M  V30 20 1 18 21
M  V30 21 1 21 22
M  V30 22 1 13 23
M  V30 23 2 23 24
M  V30 24 1 6 25
M  V30 25 2 25 26
M  V30 26 1 26 3
M  V30 27 1 24 7
M  V30 28 1 24 10
M  V30 29 1 22 15
M  V30 30 1 1 27
M  V30 31 1 1 28
M  V30 32 1 1 29
M  V30 33 1 4 30
M  V30 34 1 5 31
M  V30 35 1 11 32
M  V30 36 1 14 33
M  V30 37 1 15 34 CFG=3
M  V30 38 1 16 35
M  V30 39 1 16 36
M  V30 40 1 17 37
M  V30 41 1 17 38
M  V30 42 1 18 39 CFG=1
M  V30 43 1 19 40
M  V30 44 1 19 41
M  V30 45 1 20 42
M  V30 46 1 20 43
M  V30 47 1 21 44
M  V30 48 1 21 45
M  V30 49 1 22 46
M  V30 50 1 22 47
M  V30 51 1 25 48
M  V30 52 1 26 49
M  V30 END BOND
M  V30 END CTAB
M  END
>  <Dataset>  (602) 
ChEMBL_Kinases

>  <Ligand_Instance>  (602) 
nan

>  <PDB_ID>  (602) 
nan

>  <Standardized_SMILES>  (602) 
COc1ccc(-n2nnc3cnc(N[C@H]4CC[C@H](CN)CC4)nc32)cc1

>  <Name>  (602) 
nan

>  <Pocket>  (602) 
nan

>  <ATP_Site>  (602) 
nan

>  <Peripheral>  (602) 
nan

>  <Num_H_Atoms_ProtBoundConf>  (602) 
nan

>  <Num_Resolved_Atoms>  (602) 
nan

>  <Num_Not_Resolved_Atoms>  (602) 
nan

$$$$
CHEMBL419667
     RDKit          3D

  0  0  0  0  0  0  0  0  0  0999 V3000
M  V30 BEGIN CTAB
M  V30 COUNTS 68 72 0 0 0
M  V30 BEGIN ATOM
M  V30 1 C 4.205867 0.607386 6.774278 0
M  V30 2 O 4.253957 0.125617 5.468022 0
M  V30 3 C 3.081853 -0.106449 4.725191 0
M  V30 4 C 1.852816 0.169279 5.243311 0
M  V30 5 C 0.685517 -0.026342 4.584856 0
M  V30 6 C 0.746311 -0.550041 3.284952 0
M  V30 7 S -0.708698 -0.787664 2.335804 0
M  V30 8 O -0.974758 -2.246285 2.122469 0
M  V30 9 O -1.918880 -0.253742 3.068161 0
M  V30 10 N -0.614253 -0.008969 0.819815 0
M  V30 11 C -0.452114 1.373377 0.513620 0
M  V30 12 C 0.175287 2.373942 1.277958 0
M  V30 13 C 0.246169 3.664432 0.736504 0
M  V30 14 C -0.306341 3.880549 -0.518103 0
M  V30 15 Cl -0.253495 5.495990 -1.249642 0
M  V30 16 C -0.921623 2.892890 -1.260550 0
M  V30 17 C -0.978889 1.627863 -0.704801 0
M  V30 18 C -1.606295 0.333928 -1.209050 0 CFG=2
M  V30 19 O -1.503664 0.343050 -2.569739 0
M  V30 20 C -3.004828 0.280637 -0.789954 0
M  V30 21 C -3.442037 1.314337 0.079645 0
M  V30 22 C -4.687630 1.478392 0.663362 0
M  V30 23 C -5.628113 0.521349 0.365983 0
M  V30 24 C -5.344544 -0.539066 -0.466908 0
M  V30 25 C -4.075096 -0.567618 -0.968161 0
M  V30 26 Cl -3.709784 -1.841431 -2.102144 0
M  V30 27 C -0.666751 -0.626471 -0.504854 0 CFG=2
M  V30 28 C -0.998033 -2.021488 -0.483776 0
M  V30 29 O -1.389388 -3.165387 -0.228635 0
M  V30 30 N -0.710833 -3.014205 -1.470510 0
M  V30 31 C -0.975575 -4.432156 -1.611809 0
M  V30 32 C 0.447303 -5.001770 -1.696902 0
M  V30 33 C 1.028618 -4.038449 -2.732545 0
M  V30 34 C -0.002713 -2.904509 -2.735708 0 CFG=1
M  V30 35 C -0.864763 -3.153054 -3.911788 0
M  V30 36 N -0.101493 -3.075298 -5.115676 0
M  V30 37 O -1.969718 -3.412205 -4.502221 0
M  V30 38 C 1.973366 -0.858785 2.691101 0
M  V30 39 C 3.138137 -0.622483 3.444088 0
M  V30 40 O 4.352247 -0.931966 2.830307 0
M  V30 41 C 4.302807 -1.447811 1.511668 0
M  V30 42 H 4.087217 -0.281321 7.455492 0
M  V30 43 H 3.392582 1.341510 6.881583 0
M  V30 44 H 5.204712 1.113902 6.973314 0
M  V30 45 H 1.680035 0.574812 6.228058 0
M  V30 46 H -0.314209 0.187867 4.984720 0
M  V30 47 H 0.583501 2.151057 2.258586 0
M  V30 48 H 0.721816 4.466868 1.285146 0
M  V30 49 H -1.358986 3.050841 -2.245683 0
M  V30 50 H -0.928900 1.079408 -2.925218 0
M  V30 51 H -2.760615 2.132879 0.380277 0
M  V30 52 H -4.935113 2.295643 1.319745 0
M  V30 53 H -6.617553 0.587755 0.782406 0
M  V30 54 H -6.051592 -1.310779 -0.730300 0
M  V30 55 H 0.330739 -0.441353 -0.984589 0
M  V30 56 H -1.472816 -4.668467 -2.576522 0
M  V30 57 H -1.532201 -4.892617 -0.800720 0
M  V30 58 H 0.962299 -4.857197 -0.756081 0
M  V30 59 H 0.442963 -6.036293 -2.083125 0
M  V30 60 H 2.037879 -3.706865 -2.498536 0
M  V30 61 H 1.056492 -4.572939 -3.686083 0
M  V30 62 H 0.508973 -1.956413 -2.885565 0
M  V30 63 H 0.243319 -2.258024 -5.673713 0
M  V30 64 H 0.445595 -3.076226 -5.978233 0
M  V30 65 H 1.965530 -1.261359 1.686453 0
M  V30 66 H 5.310718 -1.631939 1.084981 0
M  V30 67 H 3.749965 -2.388356 1.410546 0
M  V30 68 H 3.750484 -0.672633 0.920211 0
M  V30 END ATOM
M  V30 BEGIN BOND
M  V30 1 1 1 2
M  V30 2 1 2 3
M  V30 3 2 3 4
M  V30 4 1 4 5
M  V30 5 2 5 6
M  V30 6 1 6 7
M  V30 7 2 7 8
M  V30 8 2 7 9
M  V30 9 1 7 10
M  V30 10 1 10 11
M  V30 11 2 11 12
M  V30 12 1 12 13
M  V30 13 2 13 14
M  V30 14 1 14 15
M  V30 15 1 14 16
M  V30 16 2 16 17
M  V30 17 1 17 18
M  V30 18 1 18 19 CFG=3
M  V30 19 1 18 20
M  V30 20 2 20 21
M  V30 21 1 21 22
M  V30 22 2 22 23
M  V30 23 1 23 24
M  V30 24 2 24 25
M  V30 25 1 25 26
M  V30 26 1 18 27
M  V30 27 1 27 28
M  V30 28 2 28 29
M  V30 29 1 28 30
M  V30 30 1 30 31
M  V30 31 1 31 32
M  V30 32 1 32 33
M  V30 33 1 33 34
M  V30 34 1 34 35
M  V30 35 1 35 36
M  V30 36 2 35 37
M  V30 37 1 6 38
M  V30 38 2 38 39
M  V30 39 1 39 40
M  V30 40 1 40 41
M  V30 41 1 39 3
M  V30 42 1 27 10
M  V30 43 1 34 30
M  V30 44 1 17 11
M  V30 45 1 25 20
M  V30 46 1 1 42
M  V30 47 1 1 43
M  V30 48 1 1 44
M  V30 49 1 4 45
M  V30 50 1 5 46
M  V30 51 1 12 47
M  V30 52 1 13 48
M  V30 53 1 16 49
M  V30 54 1 19 50
M  V30 55 1 21 51
M  V30 56 1 22 52
M  V30 57 1 23 53
M  V30 58 1 24 54
M  V30 59 1 27 55 CFG=3
M  V30 60 1 31 56
M  V30 61 1 31 57
M  V30 62 1 32 58
M  V30 63 1 32 59
M  V30 64 1 33 60
M  V30 65 1 33 61
M  V30 66 1 34 62 CFG=3
M  V30 67 1 36 63
M  V30 68 1 36 64
M  V30 69 1 38 65
M  V30 70 1 41 66
M  V30 71 1 41 67
M  V30 72 1 41 68
M  V30 END BOND
M  V30 END CTAB
M  END
>  <Dataset>  (603) 
ChEMBL_Kinases

>  <Ligand_Instance>  (603) 
nan

>  <PDB_ID>  (603) 
nan

>  <Standardized_SMILES>  (603) 
COc1ccc(S(=O)(=O)N2c3ccc(Cl)cc3[C@](O)(c3ccccc3Cl)[C@@H]2C(=O)N2CCC[C@H]2C(N)=O)cc1OC

>  <Name>  (603) 
RELCOVAPTAN

>  <Pocket>  (603) 
nan

>  <ATP_Site>  (603) 
nan

>  <Peripheral>  (603) 
nan

>  <Num_H_Atoms_ProtBoundConf>  (603) 
nan

>  <Num_Resolved_Atoms>  (603) 
nan

>  <Num_Not_Resolved_Atoms>  (603) 
nan

$$$$
CHEMBL419409
     RDKit          3D

  0  0  0  0  0  0  0  0  0  0999 V3000
M  V30 BEGIN CTAB
M  V30 COUNTS 53 55 0 0 0
M  V30 BEGIN ATOM
M  V30 1 C -1.463865 1.077401 6.585735 0
M  V30 2 O -1.675231 0.985191 5.205567 0
M  V30 3 C -0.718408 1.163454 4.230153 0
M  V30 4 C 0.624232 1.462451 4.350367 0
M  V30 5 C 1.424704 1.601176 3.245746 0
M  V30 6 C 0.947584 1.453230 1.957369 0
M  V30 7 C 1.806272 1.597270 0.816534 0
M  V30 8 C 2.528936 1.727993 -0.151267 0
M  V30 9 C 3.417464 1.881462 -1.304920 0
M  V30 10 C 3.186370 3.228960 -1.999776 0
M  V30 11 C 3.243711 0.806681 -2.329520 0
M  V30 12 N 4.783196 1.877617 -0.775761 0
M  V30 13 C -0.385735 1.156722 1.852954 0
M  V30 14 C -1.228183 1.008412 2.961427 0
M  V30 15 C -2.624055 0.688675 2.591663 0
M  V30 16 O -3.549396 1.335921 3.140138 0
M  V30 17 C -2.778507 -0.391725 1.584623 0
M  V30 18 C -1.758717 -1.284724 1.404978 0
M  V30 19 C -1.815079 -2.306322 0.495872 0
M  V30 20 C -2.900885 -2.496977 -0.288958 0
M  V30 21 N -2.936102 -3.569463 -1.212775 0
M  V30 22 C -1.897027 -4.521767 -1.331409 0
M  V30 23 C -1.302849 -4.562069 -2.597927 0
M  V30 24 C -0.274644 -5.413067 -2.931202 0
M  V30 25 C 0.227989 -6.292696 -1.989898 0
M  V30 26 F 1.238542 -7.147714 -2.273537 0
M  V30 27 C -0.356067 -6.258720 -0.731886 0
M  V30 28 C -1.382775 -5.404980 -0.410848 0
M  V30 29 F -1.980838 -5.351018 0.805459 0
M  V30 30 C -3.924290 -1.596814 -0.104925 0
M  V30 31 C -3.906476 -0.552309 0.799693 0
M  V30 32 H -1.272792 0.031357 6.969811 0
M  V30 33 H -2.364702 1.479951 7.122645 0
M  V30 34 H -0.617583 1.728371 6.878959 0
M  V30 35 H 0.948673 1.566050 5.374067 0
M  V30 36 H 2.448834 1.832681 3.437705 0
M  V30 37 H 4.043235 3.520925 -2.614681 0
M  V30 38 H 2.226185 3.178659 -2.543414 0
M  V30 39 H 3.044948 3.977108 -1.172855 0
M  V30 40 H 2.568755 1.075840 -3.166454 0
M  V30 41 H 4.224413 0.573812 -2.830596 0
M  V30 42 H 2.809140 -0.137848 -1.909355 0
M  V30 43 H 4.791195 2.557313 0.041824 0
M  V30 44 H 5.399343 2.300974 -1.514494 0
M  V30 45 H -0.743212 1.044726 0.826987 0
M  V30 46 H -0.847862 -1.192437 2.021612 0
M  V30 47 H -0.936323 -2.941308 0.435324 0
M  V30 48 H -3.765271 -3.662938 -1.828824 0
M  V30 49 H -1.608362 -3.919189 -3.424970 0
M  V30 50 H 0.180159 -5.451841 -3.890709 0
M  V30 51 H 0.016004 -6.932115 0.026693 0
M  V30 52 H -4.832549 -1.704718 -0.720357 0
M  V30 53 H -4.696032 0.158395 0.955014 0
M  V30 END ATOM
M  V30 BEGIN BOND
M  V30 1 1 1 2
M  V30 2 1 2 3
M  V30 3 2 3 4
M  V30 4 1 4 5
M  V30 5 2 5 6
M  V30 6 1 6 7
M  V30 7 3 7 8
M  V30 8 1 8 9
M  V30 9 1 9 10
M  V30 10 1 9 11
M  V30 11 1 9 12
M  V30 12 1 6 13
M  V30 13 2 13 14
M  V30 14 1 14 15
M  V30 15 2 15 16
M  V30 16 1 15 17
M  V30 17 2 17 18
M  V30 18 1 18 19
M  V30 19 2 19 20
M  V30 20 1 20 21
M  V30 21 1 21 22
M  V30 22 2 22 23
M  V30 23 1 23 24
M  V30 24 2 24 25
M  V30 25 1 25 26
M  V30 26 1 25 27
M  V30 27 2 27 28
M  V30 28 1 28 29
M  V30 29 1 20 30
M  V30 30 2 30 31
M  V30 31 1 14 3
M  V30 32 1 31 17
M  V30 33 1 28 22
M  V30 34 1 1 32
M  V30 35 1 1 33
M  V30 36 1 1 34
M  V30 37 1 4 35
M  V30 38 1 5 36
M  V30 39 1 10 37
M  V30 40 1 10 38
M  V30 41 1 10 39
M  V30 42 1 11 40
M  V30 43 1 11 41
M  V30 44 1 11 42
M  V30 45 1 12 43
M  V30 46 1 12 44
M  V30 47 1 13 45
M  V30 48 1 18 46
M  V30 49 1 19 47
M  V30 50 1 21 48
M  V30 51 1 23 49
M  V30 52 1 24 50
M  V30 53 1 27 51
M  V30 54 1 30 52
M  V30 55 1 31 53
M  V30 END BOND
M  V30 END CTAB
M  END
>  <Dataset>  (604) 
ChEMBL_Kinases

>  <Ligand_Instance>  (604) 
nan

>  <PDB_ID>  (604) 
nan

>  <Standardized_SMILES>  (604) 
COc1ccc(C#CC(C)(C)N)cc1C(=O)c1ccc(Nc2ccc(F)cc2F)cc1

>  <Name>  (604) 
nan

>  <Pocket>  (604) 
nan

>  <ATP_Site>  (604) 
nan

>  <Peripheral>  (604) 
nan

>  <Num_H_Atoms_ProtBoundConf>  (604) 
nan

>  <Num_Resolved_Atoms>  (604) 
nan

>  <Num_Not_Resolved_Atoms>  (604) 
nan

$$$$
CHEMBL419355
     RDKit          3D

  0  0  0  0  0  0  0  0  0  0999 V3000
M  V30 BEGIN CTAB
M  V30 COUNTS 45 48 0 0 0
M  V30 BEGIN ATOM
M  V30 1 O -1.552870 -2.496444 0.659442 0
M  V30 2 C -0.935194 -1.603913 0.042534 0
M  V30 3 C 0.169193 -2.431325 -0.419544 0
M  V30 4 C 0.050412 -3.153356 -1.612590 0
M  V30 5 C 1.023061 -3.962325 -2.143029 0
M  V30 6 C 2.197040 -4.041856 -1.408896 0
M  V30 7 C 3.355096 -4.736566 -1.629028 0
M  V30 8 C 4.257026 -4.503068 -0.613903 0
M  V30 9 N 3.639198 -3.670106 0.211754 0
M  V30 10 C 2.403367 -3.366116 -0.223163 0
M  V30 11 C 1.370523 -2.575721 0.235077 0
M  V30 12 N -1.030081 -0.223661 -0.263968 0
M  V30 13 C -2.113254 0.625198 0.179331 0
M  V30 14 C -1.651908 2.086363 0.195118 0
M  V30 15 N -0.298449 2.145458 0.496117 0
M  V30 16 C 0.168432 2.657202 1.712950 0
M  V30 17 C -0.315326 1.944610 2.892095 0
M  V30 18 C -1.499251 2.402858 3.480739 0
M  V30 19 C -1.907415 1.674259 4.604210 0
M  V30 20 C -1.251641 0.587800 5.142791 0
M  V30 21 C -0.089096 0.176108 4.525389 0
M  V30 22 C 0.373484 0.861452 3.397897 0
M  V30 23 C 0.633033 1.579840 -0.397684 0
M  V30 24 C 0.020816 0.350884 -1.063267 0
M  V30 25 H -0.881995 -3.088483 -2.193115 0
M  V30 26 H 0.872681 -4.494971 -3.068459 0
M  V30 27 H 3.504500 -5.379984 -2.506915 0
M  V30 28 H 5.241081 -4.964450 -0.603647 0
M  V30 29 H 4.082923 -3.311358 1.085124 0
M  V30 30 H 1.482955 -2.026806 1.158515 0
M  V30 31 H -2.980584 0.475606 -0.496586 0
M  V30 32 H -2.449975 0.334157 1.189250 0
M  V30 33 H -1.796842 2.417924 -0.875324 0
M  V30 34 H -2.256491 2.727287 0.828416 0
M  V30 35 H -0.159892 3.737530 1.772070 0
M  V30 36 H 1.274016 2.715854 1.761244 0
M  V30 37 H -2.098632 3.237351 3.155462 0
M  V30 38 H -2.837674 2.018580 5.083234 0
M  V30 39 H -1.694322 0.127619 6.017998 0
M  V30 40 H 0.424269 -0.674313 4.948496 0
M  V30 41 H 1.288706 0.537408 2.912038 0
M  V30 42 H 0.926026 2.321537 -1.174959 0
M  V30 43 H 1.563104 1.259769 0.123596 0
M  V30 44 H 0.769359 -0.386642 -1.384167 0
M  V30 45 H -0.460575 0.715803 -2.012497 0
M  V30 END ATOM
M  V30 BEGIN BOND
M  V30 1 2 1 2
M  V30 2 1 2 3
M  V30 3 2 3 4
M  V30 4 1 4 5
M  V30 5 2 5 6
M  V30 6 1 6 7
M  V30 7 2 7 8
M  V30 8 1 8 9
M  V30 9 1 9 10
M  V30 10 2 10 11
M  V30 11 1 2 12
M  V30 12 1 12 13
M  V30 13 1 13 14
M  V30 14 1 14 15
M  V30 15 1 15 16
M  V30 16 1 16 17
M  V30 17 2 17 18
M  V30 18 1 18 19
M  V30 19 2 19 20
M  V30 20 1 20 21
M  V30 21 2 21 22
M  V30 22 1 15 23
M  V30 23 1 23 24
M  V30 24 1 11 3
M  V30 25 1 24 12
M  V30 26 1 10 6
M  V30 27 1 22 17
M  V30 28 1 4 25
M  V30 29 1 5 26
M  V30 30 1 7 27
M  V30 31 1 8 28
M  V30 32 1 9 29
M  V30 33 1 11 30
M  V30 34 1 13 31
M  V30 35 1 13 32
M  V30 36 1 14 33
M  V30 37 1 14 34
M  V30 38 1 16 35
M  V30 39 1 16 36
M  V30 40 1 18 37
M  V30 41 1 19 38
M  V30 42 1 20 39
M  V30 43 1 21 40
M  V30 44 1 22 41
M  V30 45 1 23 42
M  V30 46 1 23 43
M  V30 47 1 24 44
M  V30 48 1 24 45
M  V30 END BOND
M  V30 END CTAB
M  END
>  <Dataset>  (605) 
ChEMBL_Kinases

>  <Ligand_Instance>  (605) 
nan

>  <PDB_ID>  (605) 
nan

>  <Standardized_SMILES>  (605) 
O=C(c1ccc2cc[nH]c2c1)N1CCN(Cc2ccccc2)CC1

>  <Name>  (605) 
nan

>  <Pocket>  (605) 
nan

>  <ATP_Site>  (605) 
nan

>  <Peripheral>  (605) 
nan

>  <Num_H_Atoms_ProtBoundConf>  (605) 
nan

>  <Num_Resolved_Atoms>  (605) 
nan

>  <Num_Not_Resolved_Atoms>  (605) 
nan

$$$$
CHEMBL4177303
     RDKit          3D

  0  0  0  0  0  0  0  0  0  0999 V3000
M  V30 BEGIN CTAB
M  V30 COUNTS 152 153 0 0 0
M  V30 BEGIN ATOM
M  V30 1 N 9.924234 0.474035 5.761297 0
M  V30 2 C 9.331698 0.809020 4.483633 0
M  V30 3 C 7.847692 1.049472 4.693193 0
M  V30 4 C 7.151255 1.386457 3.416424 0
M  V30 5 C 7.241759 0.362825 2.336191 0
M  V30 6 C 6.636905 -0.977005 2.679825 0 CFG=1
M  V30 7 N 6.775076 -1.897413 1.546510 0
M  V30 8 C 5.720431 -2.282894 0.685380 0
M  V30 9 O 4.548717 -1.785708 0.886359 0
M  V30 10 C 5.061622 -2.963406 -0.399806 0 CFG=1
M  V30 11 C 5.036850 -4.455002 -0.174748 0
M  V30 12 C 6.417852 -4.964551 -0.078020 0
M  V30 13 O 7.239699 -5.128025 0.836921 0
M  V30 14 O 7.295552 -5.462591 -1.062218 0
M  V30 15 N 3.705126 -2.439352 -0.531297 0
M  V30 16 C 3.178431 -2.257440 -1.862527 0
M  V30 17 O 3.952309 -2.591253 -2.838964 0
M  V30 18 C 1.893644 -1.752312 -2.350136 0 CFG=1
M  V30 19 C 1.040498 -2.844038 -3.022695 0
M  V30 20 C 1.702080 -3.458037 -4.189594 0
M  V30 21 O 2.523872 -4.388503 -4.006731 0
M  V30 22 O 1.383370 -2.974308 -5.476614 0
M  V30 23 N 1.084079 -1.075069 -1.350511 0
M  V30 24 C 0.517676 0.195116 -1.726442 0
M  V30 25 O 0.755497 0.649216 -2.909140 0
M  V30 26 C -0.337913 1.221779 -1.088520 0 CFG=1
M  V30 27 C -1.689838 1.255048 -1.802205 0
M  V30 28 C -2.581964 2.249094 -1.175612 0
M  V30 29 O -3.745505 2.253832 -1.647380 0
M  V30 30 O -3.038113 3.257158 -0.354552 0
M  V30 31 N -0.576426 0.848700 0.285654 0
M  V30 32 C -0.192473 1.792503 1.292863 0
M  V30 33 O 0.321625 2.830866 0.841602 0
M  V30 34 C -0.387083 1.574644 2.737093 0 CFG=1
M  V30 35 C -1.066823 2.772243 3.373332 0
M  V30 36 C -0.175906 3.978879 3.222777 0
M  V30 37 O 0.994472 4.275143 2.782933 0
M  V30 38 O -0.771317 5.137234 3.691215 0
M  V30 39 N -1.001888 0.318484 3.031924 0
M  V30 40 C -0.588115 -0.222653 4.296295 0
M  V30 41 O 0.229436 0.427454 5.044238 0
M  V30 42 C -0.962977 -1.523483 4.965353 0 CFG=1
M  V30 43 C -1.920098 -1.149595 6.068540 0
M  V30 44 C -2.401513 -2.324166 6.839921 0
M  V30 45 O -3.172167 -1.918895 7.756982 0
M  V30 46 O -2.143463 -3.675777 6.701001 0
M  V30 47 N -1.660115 -2.375034 4.017113 0
M  V30 48 C -0.732428 -3.225431 3.314337 0
M  V30 49 O 0.492353 -2.997678 3.697261 0
M  V30 50 C -0.531642 -4.277999 2.315833 0 CFG=1
M  V30 51 C 0.347980 -5.361887 2.902393 0
M  V30 52 C 1.670811 -4.903480 3.310363 0
M  V30 53 O 2.760322 -4.898444 2.715146 0
M  V30 54 O 2.675166 -4.356408 4.119291 0
M  V30 55 N -1.717402 -4.840795 1.723247 0
M  V30 56 C -2.140408 -4.417058 0.428645 0
M  V30 57 O -1.768499 -3.591501 -0.438314 0
M  V30 58 C -3.318962 -5.062333 -0.149462 0
M  V30 59 C -3.872255 -4.468747 -1.389992 0
M  V30 60 C -4.441141 -3.085103 -1.209662 0
M  V30 61 C -4.976900 -2.579669 -2.509788 0
M  V30 62 C -3.972496 -2.331503 -3.582849 0
M  V30 63 N -4.583463 -1.942257 -4.860786 0
M  V30 64 C -5.476793 -0.820474 -5.027517 0
M  V30 65 O -5.745956 -0.159610 -4.041663 0
M  V30 66 C -5.871483 -0.771972 -6.487836 0
M  V30 67 C -6.766477 0.436001 -6.718141 0
M  V30 68 C -6.088100 1.673555 -6.309617 0
M  V30 69 O -4.905940 1.492145 -5.847708 0
M  V30 70 N -6.484049 3.017897 -6.322874 0
M  V30 71 C -5.434800 3.846747 -5.768660 0
M  V30 72 N -5.291573 4.086566 -4.743272 0
M  V30 73 C -4.882287 4.526216 -3.639548 0
M  V30 74 C -3.842070 5.203380 -4.105353 0
M  V30 75 C -2.756353 6.034252 -3.493643 0
M  V30 76 C -1.770796 6.623516 -4.207716 0
M  V30 77 C -0.782118 7.349563 -3.527818 0
M  V30 78 C -0.876190 7.420495 -2.155168 0
M  V30 79 C 0.140177 8.159333 -1.426549 0
M  V30 80 O 1.138032 8.742600 -1.968019 0
M  V30 81 O 0.194695 8.350481 -0.061136 0
M  V30 82 C -1.868550 6.828358 -1.419560 0
M  V30 83 C -2.816291 6.127524 -2.120209 0
M  V30 84 S -3.889281 4.931573 -5.908177 0
M  V30 85 C 7.165370 -1.569610 3.911530 0
M  V30 86 O 7.318643 -2.432481 2.973953 0
M  V30 87 O 7.767329 -2.796648 4.269448 0
M  V30 88 H 10.971265 0.590113 5.733473 0
M  V30 89 H 9.667928 -0.499290 6.083648 0
M  V30 90 H 9.547480 0.072958 3.690724 0
M  V30 91 H 9.842496 1.753051 4.147692 0
M  V30 92 H 7.357941 0.300619 5.329792 0
M  V30 93 H 7.808377 2.010025 5.310633 0
M  V30 94 H 6.080217 1.567862 3.686071 0
M  V30 95 H 7.547597 2.350820 3.064063 0
M  V30 96 H 6.751141 0.790454 1.429291 0
M  V30 97 H 8.304730 0.206248 2.023578 0
M  V30 98 H 5.531591 -0.799540 2.797874 0
M  V30 99 H 7.512313 -2.459051 1.071113 0
M  V30 100 H 5.565059 -2.801779 -1.367353 0
M  V30 101 H 4.598491 -4.989887 -1.068989 0
M  V30 102 H 4.513729 -4.694328 0.751911 0
M  V30 103 H 8.053378 -4.913344 -1.463665 0
M  V30 104 H 2.897113 -2.121873 0.075818 0
M  V30 105 H 2.079827 -1.035403 -3.162126 0
M  V30 106 H 0.080997 -2.416242 -3.370728 0
M  V30 107 H 0.898051 -3.605954 -2.222356 0
M  V30 108 H 1.934757 -3.278000 -6.278421 0
M  V30 109 H 0.755347 -1.219645 -0.372738 0
M  V30 110 H 0.119583 2.217467 -1.197710 0
M  V30 111 H -1.544821 1.516790 -2.872267 0
M  V30 112 H -2.109371 0.240544 -1.792351 0
M  V30 113 H -2.929364 3.180992 0.632947 0
M  V30 114 H -1.001177 -0.049921 0.524568 0
M  V30 115 H 0.636411 1.565737 3.214754 0
M  V30 116 H -2.013542 3.040611 2.849472 0
M  V30 117 H -1.285668 2.613113 4.430766 0
M  V30 118 H -0.195556 5.877926 4.087033 0
M  V30 119 H -1.680602 -0.332864 2.583807 0
M  V30 120 H -0.065192 -1.969643 5.398993 0
M  V30 121 H -1.463287 -0.387362 6.756285 0
M  V30 122 H -2.834592 -0.701327 5.611002 0
M  V30 123 H -2.792866 -4.305003 7.158485 0
M  V30 124 H -2.540786 -2.698175 3.562829 0
M  V30 125 H 0.073086 -3.773827 1.485500 0
M  V30 126 H 0.525061 -6.109015 2.070358 0
M  V30 127 H -0.183536 -5.918051 3.703372 0
M  V30 128 H 2.624741 -4.367276 5.120949 0
M  V30 129 H -2.283247 -5.559056 2.221837 0
M  V30 130 H -4.107698 -5.067371 0.646776 0
M  V30 131 H -3.146642 -6.157439 -0.353119 0
M  V30 132 H -4.726103 -5.116573 -1.707777 0
M  V30 133 H -3.147951 -4.546120 -2.235323 0
M  V30 134 H -5.316467 -3.175900 -0.523107 0
M  V30 135 H -3.748105 -2.382032 -0.739899 0
M  V30 136 H -5.544938 -1.628389 -2.290717 0
M  V30 137 H -5.718939 -3.311187 -2.920131 0
M  V30 138 H -3.341413 -1.435645 -3.238533 0
M  V30 139 H -3.229975 -3.127865 -3.725084 0
M  V30 140 H -4.279963 -2.599185 -5.654376 0
M  V30 141 H -6.494841 -1.655812 -6.671815 0
M  V30 142 H -5.005359 -0.746765 -7.148038 0
M  V30 143 H -7.692225 0.247758 -6.111104 0
M  V30 144 H -7.066921 0.457709 -7.768908 0
M  V30 145 H -7.391837 3.249564 -6.701337 0
M  V30 146 H -4.994532 4.594153 -2.540674 0
M  V30 147 H -1.757510 6.529250 -5.272924 0
M  V30 148 H -0.017226 7.799344 -4.140209 0
M  V30 149 H 0.996838 8.304766 0.531419 0
M  V30 150 H -1.932047 6.887108 -0.340481 0
M  V30 151 H -3.606034 5.658589 -1.533084 0
M  V30 152 H 8.313847 -2.822699 5.146618 0
M  V30 END ATOM
M  V30 BEGIN BOND
M  V30 1 1 1 2
M  V30 2 1 2 3
M  V30 3 1 3 4
M  V30 4 1 4 5
M  V30 5 1 5 6
M  V30 6 1 6 7
M  V30 7 1 7 8
M  V30 8 2 8 9
M  V30 9 1 8 10
M  V30 10 1 10 11
M  V30 11 1 11 12
M  V30 12 2 12 13
M  V30 13 1 12 14
M  V30 14 1 10 15
M  V30 15 1 15 16
M  V30 16 2 16 17
M  V30 17 1 16 18
M  V30 18 1 18 19
M  V30 19 1 19 20
M  V30 20 2 20 21
M  V30 21 1 20 22
M  V30 22 1 18 23
M  V30 23 1 23 24
M  V30 24 2 24 25
M  V30 25 1 24 26
M  V30 26 1 26 27
M  V30 27 1 27 28
M  V30 28 2 28 29
M  V30 29 1 28 30
M  V30 30 1 26 31
M  V30 31 1 31 32
M  V30 32 2 32 33
M  V30 33 1 32 34
M  V30 34 1 34 35
M  V30 35 1 35 36
M  V30 36 2 36 37
M  V30 37 1 36 38
M  V30 38 1 34 39
M  V30 39 1 39 40
M  V30 40 2 40 41
M  V30 41 1 40 42
M  V30 42 1 42 43
M  V30 43 1 43 44
M  V30 44 2 44 45
M  V30 45 1 44 46
M  V30 46 1 42 47
M  V30 47 1 47 48
M  V30 48 2 48 49
M  V30 49 1 48 50
M  V30 50 1 50 51
M  V30 51 1 51 52
M  V30 52 2 52 53
M  V30 53 1 52 54
M  V30 54 1 50 55
M  V30 55 1 55 56
M  V30 56 2 56 57
M  V30 57 1 56 58
M  V30 58 1 58 59
M  V30 59 1 59 60
M  V30 60 1 60 61
M  V30 61 1 61 62
M  V30 62 1 62 63
M  V30 63 1 63 64
M  V30 64 2 64 65
M  V30 65 1 64 66
M  V30 66 1 66 67
M  V30 67 1 67 68
M  V30 68 2 68 69
M  V30 69 1 68 70
M  V30 70 1 70 71
M  V30 71 2 71 72
M  V30 72 1 72 73
M  V30 73 2 73 74
M  V30 74 1 74 75
M  V30 75 2 75 76
M  V30 76 1 76 77
M  V30 77 2 77 78
M  V30 78 1 78 79
M  V30 79 2 79 80
M  V30 80 1 79 81
M  V30 81 1 78 82
M  V30 82 2 82 83
M  V30 83 1 74 84
M  V30 84 1 6 85
M  V30 85 2 85 86
M  V30 86 1 85 87
M  V30 87 1 84 71
M  V30 88 1 83 75
M  V30 89 1 1 88
M  V30 90 1 1 89
M  V30 91 1 2 90
M  V30 92 1 2 91
M  V30 93 1 3 92
M  V30 94 1 3 93
M  V30 95 1 4 94
M  V30 96 1 4 95
M  V30 97 1 5 96
M  V30 98 1 5 97
M  V30 99 1 6 98 CFG=1
M  V30 100 1 7 99
M  V30 101 1 10 100 CFG=3
M  V30 102 1 11 101
M  V30 103 1 11 102
M  V30 104 1 14 103
M  V30 105 1 15 104
M  V30 106 1 18 105 CFG=3
M  V30 107 1 19 106
M  V30 108 1 19 107
M  V30 109 1 22 108
M  V30 110 1 23 109
M  V30 111 1 26 110 CFG=1
M  V30 112 1 27 111
M  V30 113 1 27 112
M  V30 114 1 30 113
M  V30 115 1 31 114
M  V30 116 1 34 115 CFG=1
M  V30 117 1 35 116
M  V30 118 1 35 117
M  V30 119 1 38 118
M  V30 120 1 39 119
M  V30 121 1 42 120 CFG=1
M  V30 122 1 43 121
M  V30 123 1 43 122
M  V30 124 1 46 123
M  V30 125 1 47 124
M  V30 126 1 50 125 CFG=3
M  V30 127 1 51 126
M  V30 128 1 51 127
M  V30 129 1 54 128
M  V30 130 1 55 129
M  V30 131 1 58 130
M  V30 132 1 58 131
M  V30 133 1 59 132
M  V30 134 1 59 133
M  V30 135 1 60 134
M  V30 136 1 60 135
M  V30 137 1 61 136
M  V30 138 1 61 137
M  V30 139 1 62 138
M  V30 140 1 62 139
M  V30 141 1 63 140
M  V30 142 1 66 141
M  V30 143 1 66 142
M  V30 144 1 67 143
M  V30 145 1 67 144
M  V30 146 1 70 145
M  V30 147 1 73 146
M  V30 148 1 76 147
M  V30 149 1 77 148
M  V30 150 1 81 149
M  V30 151 1 82 150
M  V30 152 1 83 151
M  V30 153 1 87 152
M  V30 END BOND
M  V30 END CTAB
M  END
>  <Dataset>  (606) 
ChEMBL_Kinases

>  <Ligand_Instance>  (606) 
nan

>  <PDB_ID>  (606) 
nan

>  <Standardized_SMILES>  (606) 
NCCCC[C@@H](NC(=O)[C@@H](CC(=O)O)NC(=O)[C@@H](CC(=O)O)NC(=O)[C@@H](CC(=O)O)NC(=O)[C@@H](CC(=O)O)NC(=O)[C@@H](CC(=O)O)NC(=O)[C@@H](CC(=O)O)NC(=O)CCCCCNC(=O)CCC(=O)Nc1ncc(-c2ccc(C(=O)O)cc2)s1)C(=O)O

>  <Name>  (606) 
nan

>  <Pocket>  (606) 
nan

>  <ATP_Site>  (606) 
nan

>  <Peripheral>  (606) 
nan

>  <Num_H_Atoms_ProtBoundConf>  (606) 
nan

>  <Num_Resolved_Atoms>  (606) 
nan

>  <Num_Not_Resolved_Atoms>  (606) 
nan

$$$$
CHEMBL419143
     RDKit          3D

  0  0  0  0  0  0  0  0  0  0999 V3000
M  V30 BEGIN CTAB
M  V30 COUNTS 39 41 0 0 0
M  V30 BEGIN ATOM
M  V30 1 C -3.327662 -2.545933 -0.765417 0
M  V30 2 O -3.364735 -1.771168 0.399555 0
M  V30 3 C -2.305402 -1.459100 1.215259 0
M  V30 4 C -1.047197 -1.930796 0.904610 0
M  V30 5 C 0.039817 -1.636140 1.702661 0
M  V30 6 N 1.392897 -2.042008 1.522268 0
M  V30 7 C 2.134523 -1.111712 0.742707 0
M  V30 8 O 2.333832 -0.070213 0.065540 0
M  V30 9 C 3.573449 -1.312133 0.415586 0
M  V30 10 C 4.044902 -0.170179 -0.402611 0
M  V30 11 C 4.012531 -0.122583 -1.794907 0
M  V30 12 C 4.463357 0.966681 -2.514111 0
M  V30 13 C 4.963027 2.043703 -1.816328 0
M  V30 14 C 5.039385 2.097790 -0.442433 0
M  V30 15 C 4.568548 0.971072 0.183158 0
M  V30 16 C -0.156866 -0.855335 2.825009 0
M  V30 17 C -1.430866 -0.402435 3.101958 0
M  V30 18 C -2.538109 -0.678327 2.325922 0
M  V30 19 C -3.829890 -0.140959 2.726883 0
M  V30 20 C -5.061537 -0.277643 2.125572 0
M  V30 21 N -5.995112 0.384671 2.830653 0
M  V30 22 C -5.320061 0.921367 3.860479 0
M  V30 23 O -4.067578 0.603807 3.779930 0
M  V30 24 H -3.489892 -3.612056 -0.445777 0
M  V30 25 H -2.367752 -2.402966 -1.266094 0
M  V30 26 H -4.193220 -2.216209 -1.408456 0
M  V30 27 H -0.830405 -2.534692 0.057953 0
M  V30 28 H 1.943826 -2.855124 1.831376 0
M  V30 29 H 4.113752 -1.247716 1.401141 0
M  V30 30 H 3.790411 -2.297035 -0.024724 0
M  V30 31 H 3.605046 -1.007336 -2.287340 0
M  V30 32 H 4.402525 0.920430 -3.575344 0
M  V30 33 H 5.319182 2.905454 -2.388260 0
M  V30 34 H 5.425316 2.926861 0.132343 0
M  V30 35 H 4.600890 0.948914 1.283879 0
M  V30 36 H 0.637010 -0.570037 3.514377 0
M  V30 37 H -1.579268 0.217817 3.996071 0
M  V30 38 H -5.297477 -0.821865 1.225018 0
M  V30 39 H -5.614231 1.542329 4.708008 0
M  V30 END ATOM
M  V30 BEGIN BOND
M  V30 1 1 1 2
M  V30 2 1 2 3
M  V30 3 2 3 4
M  V30 4 1 4 5
M  V30 5 1 5 6
M  V30 6 1 6 7
M  V30 7 2 7 8
M  V30 8 1 7 9
M  V30 9 1 9 10
M  V30 10 2 10 11
M  V30 11 1 11 12
M  V30 12 2 12 13
M  V30 13 1 13 14
M  V30 14 2 14 15
M  V30 15 2 5 16
M  V30 16 1 16 17
M  V30 17 2 17 18
M  V30 18 1 18 19
M  V30 19 2 19 20
M  V30 20 1 20 21
M  V30 21 2 21 22
M  V30 22 1 22 23
M  V30 23 1 18 3
M  V30 24 1 23 19
M  V30 25 1 15 10
M  V30 26 1 1 24
M  V30 27 1 1 25
M  V30 28 1 1 26
M  V30 29 1 4 27
M  V30 30 1 6 28
M  V30 31 1 9 29
M  V30 32 1 9 30
M  V30 33 1 11 31
M  V30 34 1 12 32
M  V30 35 1 13 33
M  V30 36 1 14 34
M  V30 37 1 15 35
M  V30 38 1 16 36
M  V30 39 1 17 37
M  V30 40 1 20 38
M  V30 41 1 22 39
M  V30 END BOND
M  V30 END CTAB
M  END
>  <Dataset>  (607) 
ChEMBL_Kinases

>  <Ligand_Instance>  (607) 
nan

>  <PDB_ID>  (607) 
nan

>  <Standardized_SMILES>  (607) 
COc1cc(NC(=O)Cc2ccccc2)ccc1-c1cnco1

>  <Name>  (607) 
nan

>  <Pocket>  (607) 
nan

>  <ATP_Site>  (607) 
nan

>  <Peripheral>  (607) 
nan

>  <Num_H_Atoms_ProtBoundConf>  (607) 
nan

>  <Num_Resolved_Atoms>  (607) 
nan

>  <Num_Not_Resolved_Atoms>  (607) 
nan

$$$$
CHEMBL419140
     RDKit          3D

  0  0  0  0  0  0  0  0  0  0999 V3000
M  V30 BEGIN CTAB
M  V30 COUNTS 64 69 0 0 0
M  V30 BEGIN ATOM
M  V30 1 O -0.000045 3.108655 5.312338 0
M  V30 2 C 0.324801 2.431354 4.301672 0
M  V30 3 N 1.646688 2.461705 3.776529 0
M  V30 4 C 2.153903 1.749133 2.642541 0
M  V30 5 C 1.116919 0.906350 2.000315 0
M  V30 6 C 1.457282 0.158731 0.892521 0
M  V30 7 C 2.826553 0.221049 0.388213 0
M  V30 8 C 3.658661 -0.727365 0.954510 0
M  V30 9 C 4.999359 -0.790876 0.570916 0
M  V30 10 C 5.422723 0.122971 -0.376630 0
M  V30 11 F 6.736145 0.040960 -0.734968 0
M  V30 12 C 4.600181 1.073551 -0.947979 0
M  V30 13 C 3.277820 1.120756 -0.555984 0
M  V30 14 Cl 2.123682 2.273494 -1.197318 0
M  V30 15 C 0.482057 -0.620496 0.305468 0
M  V30 16 C -0.818210 -0.723817 0.727361 0
M  V30 17 C -1.830927 -1.579514 0.058389 0
M  V30 18 C -2.085779 -1.097320 -1.336578 0
M  V30 19 C -2.415483 -2.209502 -2.297149 0
M  V30 20 N -1.422939 -3.240275 -2.344206 0
M  V30 21 C -0.457936 -3.065541 -3.402508 0
M  V30 22 C -1.074856 -3.049171 -4.783873 0
M  V30 23 C -0.080719 -4.127518 -5.190171 0
M  V30 24 C 0.198271 -4.392470 -3.727185 0
M  V30 25 C -0.834450 -3.596758 -1.099298 0
M  V30 26 C -1.548703 -3.037690 0.102063 0
M  V30 27 C -1.098974 0.058491 1.854435 0
M  V30 28 C -0.163591 0.855169 2.480933 0
M  V30 29 N -0.594320 1.595776 3.618239 0
M  V30 30 C -1.925702 1.563692 4.145196 0
M  V30 31 C -2.414980 0.701254 5.104695 0
M  V30 32 Cl -1.274778 -0.469207 5.731355 0
M  V30 33 C -3.726847 0.789367 5.516404 0
M  V30 34 C -4.546977 1.746118 4.962124 0
M  V30 35 C -4.100992 2.636511 3.993650 0
M  V30 36 C -2.766658 2.532184 3.588137 0
M  V30 37 Cl -2.261008 3.665635 2.378682 0
M  V30 38 H 2.345134 3.068716 4.259998 0
M  V30 39 H 2.925187 1.029287 3.023994 0
M  V30 40 H 2.696250 2.385823 1.920718 0
M  V30 41 H 3.347588 -1.454081 1.699604 0
M  V30 42 H 5.685805 -1.515986 0.987456 0
M  V30 43 H 4.951114 1.779052 -1.687363 0
M  V30 44 H 0.816073 -1.175947 -0.553041 0
M  V30 45 H -2.779681 -1.414843 0.643974 0
M  V30 46 H -2.926411 -0.373297 -1.382536 0
M  V30 47 H -1.199531 -0.549222 -1.743240 0
M  V30 48 H -3.362713 -2.671477 -1.965062 0
M  V30 49 H -2.509884 -1.764612 -3.305454 0
M  V30 50 H 0.282542 -2.261184 -3.262023 0
M  V30 51 H -2.128643 -3.399500 -4.734136 0
M  V30 52 H -0.970425 -2.095984 -5.336123 0
M  V30 53 H 0.819668 -3.712225 -5.679587 0
M  V30 54 H -0.541951 -4.968421 -5.736922 0
M  V30 55 H 1.276298 -4.471451 -3.465987 0
M  V30 56 H -0.320373 -5.296118 -3.385182 0
M  V30 57 H 0.238946 -3.427105 -1.136010 0
M  V30 58 H -0.949049 -4.717687 -1.004262 0
M  V30 59 H -2.517159 -3.579026 0.147692 0
M  V30 60 H -0.987060 -3.342760 1.007073 0
M  V30 61 H -2.131897 0.010418 2.233371 0
M  V30 62 H -4.080434 0.095377 6.273511 0
M  V30 63 H -5.581283 1.776864 5.321604 0
M  V30 64 H -4.767814 3.374624 3.578809 0
M  V30 END ATOM
M  V30 BEGIN BOND
M  V30 1 2 1 2
M  V30 2 1 2 3
M  V30 3 1 3 4
M  V30 4 1 4 5
M  V30 5 2 5 6
M  V30 6 1 6 7
M  V30 7 2 7 8
M  V30 8 1 8 9
M  V30 9 2 9 10
M  V30 10 1 10 11
M  V30 11 1 10 12
M  V30 12 2 12 13
M  V30 13 1 13 14
M  V30 14 1 6 15
M  V30 15 2 15 16
M  V30 16 1 16 17
M  V30 17 1 17 18
M  V30 18 1 18 19
M  V30 19 1 19 20
M  V30 20 1 20 21
M  V30 21 1 21 22
M  V30 22 1 22 23
M  V30 23 1 23 24
M  V30 24 1 20 25
M  V30 25 1 25 26
M  V30 26 1 16 27
M  V30 27 2 27 28
M  V30 28 1 28 29
M  V30 29 1 29 30
M  V30 30 2 30 31
M  V30 31 1 31 32
M  V30 32 1 31 33
M  V30 33 2 33 34
M  V30 34 1 34 35
M  V30 35 2 35 36
M  V30 36 1 36 37
M  V30 37 1 29 2
M  V30 38 1 36 30
M  V30 39 1 28 5
M  V30 40 1 13 7
M  V30 41 1 26 17
M  V30 42 1 24 21
M  V30 43 1 3 38
M  V30 44 1 4 39
M  V30 45 1 4 40
M  V30 46 1 8 41
M  V30 47 1 9 42
M  V30 48 1 12 43
M  V30 49 1 15 44
M  V30 50 1 17 45
M  V30 51 1 18 46
M  V30 52 1 18 47
M  V30 53 1 19 48
M  V30 54 1 19 49
M  V30 55 1 21 50
M  V30 56 1 22 51
M  V30 57 1 22 52
M  V30 58 1 23 53
M  V30 59 1 23 54
M  V30 60 1 24 55
M  V30 61 1 24 56
M  V30 62 1 25 57
M  V30 63 1 25 58
M  V30 64 1 26 59
M  V30 65 1 26 60
M  V30 66 1 27 61
M  V30 67 1 33 62
M  V30 68 1 34 63
M  V30 69 1 35 64
M  V30 END BOND
M  V30 END CTAB
M  END
>  <Dataset>  (608) 
ChEMBL_Kinases

>  <Ligand_Instance>  (608) 
nan

>  <PDB_ID>  (608) 
nan

>  <Standardized_SMILES>  (608) 
O=C1NCc2c(-c3ccc(F)cc3Cl)cc(C3CCN(C4CCC4)CC3)cc2N1c1c(Cl)cccc1Cl

>  <Name>  (608) 
nan

>  <Pocket>  (608) 
nan

>  <ATP_Site>  (608) 
nan

>  <Peripheral>  (608) 
nan

>  <Num_H_Atoms_ProtBoundConf>  (608) 
nan

>  <Num_Resolved_Atoms>  (608) 
nan

>  <Num_Not_Resolved_Atoms>  (608) 
nan

$$$$
CHEMBL419134
     RDKit          3D

  0  0  0  0  0  0  0  0  0  0999 V3000
M  V30 BEGIN CTAB
M  V30 COUNTS 64 69 0 0 0
M  V30 BEGIN ATOM
M  V30 1 O -0.234208 5.316790 1.155356 0
M  V30 2 C 0.242812 4.208668 0.787684 0
M  V30 3 N 1.290172 3.996518 -0.138388 0
M  V30 4 C 1.806136 2.708701 -0.507689 0
M  V30 5 C 1.073403 1.638184 0.182523 0
M  V30 6 C 1.497677 0.364075 -0.157199 0
M  V30 7 C 2.578819 0.097647 -1.125621 0
M  V30 8 C 3.880323 0.039925 -0.668737 0
M  V30 9 C 4.888439 -0.207098 -1.573056 0
M  V30 10 C 4.540700 -0.384756 -2.893774 0
M  V30 11 F 5.503908 -0.633527 -3.833295 0
M  V30 12 C 3.249348 -0.339275 -3.416488 0
M  V30 13 C 2.265209 -0.085389 -2.456531 0
M  V30 14 Cl 0.598991 -0.015604 -3.051321 0
M  V30 15 C 0.921795 -0.762061 0.395266 0
M  V30 16 C -0.105321 -0.702908 1.313405 0
M  V30 17 C -0.810470 -1.826380 1.938604 0
M  V30 18 C -2.073407 -2.040017 1.082253 0
M  V30 19 C -2.691873 -3.364878 1.391530 0
M  V30 20 N -1.826091 -4.403740 0.866337 0
M  V30 21 C -2.193785 -4.651476 -0.534368 0
M  V30 22 C -1.297775 -5.711430 -1.086644 0
M  V30 23 C -1.433119 -6.177627 -2.494038 0
M  V30 24 C -0.268455 -5.317785 -2.093081 0
M  V30 25 C -0.432836 -4.017114 0.849083 0
M  V30 26 C -0.091653 -3.112790 1.988555 0
M  V30 27 C -0.544983 0.577691 1.667478 0
M  V30 28 C 0.028252 1.701020 1.116419 0
M  V30 29 N -0.357056 3.053819 1.388340 0
M  V30 30 C -1.432191 3.202593 2.338169 0
M  V30 31 C -1.074692 3.355639 3.663188 0
M  V30 32 Cl 0.624580 3.372164 4.148423 0
M  V30 33 C -1.962000 3.501486 4.707131 0
M  V30 34 C -3.311585 3.487081 4.344821 0
M  V30 35 C -3.680934 3.337767 3.046437 0
M  V30 36 C -2.775798 3.193165 2.015370 0
M  V30 37 Cl -3.119478 2.993263 0.311868 0
M  V30 38 H 1.717711 4.844007 -0.574842 0
M  V30 39 H 2.872113 2.666731 -0.122028 0
M  V30 40 H 1.891313 2.551996 -1.596148 0
M  V30 41 H 4.179317 0.175734 0.348911 0
M  V30 42 H 5.949222 -0.268049 -1.295659 0
M  V30 43 H 3.023724 -0.486485 -4.458459 0
M  V30 44 H 1.261263 -1.748935 0.126450 0
M  V30 45 H -1.152320 -1.527225 2.970315 0
M  V30 46 H -1.836260 -1.989845 0.007246 0
M  V30 47 H -2.721880 -1.171773 1.322454 0
M  V30 48 H -2.911807 -3.517258 2.459801 0
M  V30 49 H -3.652706 -3.407427 0.844555 0
M  V30 50 H -3.281876 -4.919172 -0.601765 0
M  V30 51 H -2.069493 -3.692425 -1.090291 0
M  V30 52 H -1.004023 -6.500632 -0.348730 0
M  V30 53 H -2.248124 -5.706222 -3.084444 0
M  V30 54 H -1.265568 -7.228035 -2.770559 0
M  V30 55 H -0.271577 -4.271462 -2.476683 0
M  V30 56 H 0.700058 -5.833067 -2.095308 0
M  V30 57 H -0.134992 -3.633315 -0.125089 0
M  V30 58 H 0.154536 -4.962626 0.997134 0
M  V30 59 H -0.457518 -3.654507 2.918458 0
M  V30 60 H 1.002603 -3.044185 2.153262 0
M  V30 61 H -1.342013 0.811469 2.372119 0
M  V30 62 H -1.700627 3.622032 5.748768 0
M  V30 63 H -4.044917 3.596801 5.128984 0
M  V30 64 H -4.718545 3.316155 2.707254 0
M  V30 END ATOM
M  V30 BEGIN BOND
M  V30 1 2 1 2
M  V30 2 1 2 3
M  V30 3 1 3 4
M  V30 4 1 4 5
M  V30 5 2 5 6
M  V30 6 1 6 7
M  V30 7 2 7 8
M  V30 8 1 8 9
M  V30 9 2 9 10
M  V30 10 1 10 11
M  V30 11 1 10 12
M  V30 12 2 12 13
M  V30 13 1 13 14
M  V30 14 1 6 15
M  V30 15 2 15 16
M  V30 16 1 16 17
M  V30 17 1 17 18
M  V30 18 1 18 19
M  V30 19 1 19 20
M  V30 20 1 20 21
M  V30 21 1 21 22
M  V30 22 1 22 23
M  V30 23 1 23 24
M  V30 24 1 20 25
M  V30 25 1 25 26
M  V30 26 1 16 27
M  V30 27 2 27 28
M  V30 28 1 28 29
M  V30 29 1 29 30
M  V30 30 2 30 31
M  V30 31 1 31 32
M  V30 32 1 31 33
M  V30 33 2 33 34
M  V30 34 1 34 35
M  V30 35 2 35 36
M  V30 36 1 36 37
M  V30 37 1 29 2
M  V30 38 1 36 30
M  V30 39 1 28 5
M  V30 40 1 13 7
M  V30 41 1 26 17
M  V30 42 1 24 22
M  V30 43 1 3 38
M  V30 44 1 4 39
M  V30 45 1 4 40
M  V30 46 1 8 41
M  V30 47 1 9 42
M  V30 48 1 12 43
M  V30 49 1 15 44
M  V30 50 1 17 45
M  V30 51 1 18 46
M  V30 52 1 18 47
M  V30 53 1 19 48
M  V30 54 1 19 49
M  V30 55 1 21 50
M  V30 56 1 21 51
M  V30 57 1 22 52
M  V30 58 1 23 53
M  V30 59 1 23 54
M  V30 60 1 24 55
M  V30 61 1 24 56
M  V30 62 1 25 57
M  V30 63 1 25 58
M  V30 64 1 26 59
M  V30 65 1 26 60
M  V30 66 1 27 61
M  V30 67 1 33 62
M  V30 68 1 34 63
M  V30 69 1 35 64
M  V30 END BOND
M  V30 END CTAB
M  END
>  <Dataset>  (609) 
ChEMBL_Kinases

>  <Ligand_Instance>  (609) 
nan

>  <PDB_ID>  (609) 
nan

>  <Standardized_SMILES>  (609) 
O=C1NCc2c(-c3ccc(F)cc3Cl)cc(C3CCN(CC4CC4)CC3)cc2N1c1c(Cl)cccc1Cl

>  <Name>  (609) 
nan

>  <Pocket>  (609) 
nan

>  <ATP_Site>  (609) 
nan

>  <Peripheral>  (609) 
nan

>  <Num_H_Atoms_ProtBoundConf>  (609) 
nan

>  <Num_Resolved_Atoms>  (609) 
nan

>  <Num_Not_Resolved_Atoms>  (609) 
nan

$$$$
CHEMBL418710
     RDKit          3D

  0  0  0  0  0  0  0  0  0  0999 V3000
M  V30 BEGIN CTAB
M  V30 COUNTS 51 55 0 0 0
M  V30 BEGIN ATOM
M  V30 1 C 2.950531 -3.306444 3.042785 0
M  V30 2 C 3.763285 -2.855420 3.993371 0
M  V30 3 C 3.678040 -3.756876 5.176156 0
M  V30 4 C 4.539151 -1.620709 3.693239 0
M  V30 5 C 4.239788 -1.087625 2.293671 0
M  V30 6 C 2.868158 -0.538338 2.534135 0
M  V30 7 C 2.751220 -0.212957 3.888006 0
M  V30 8 C 1.575734 0.321861 4.400927 0
M  V30 9 C 0.509754 0.528825 3.535167 0
M  V30 10 C 0.610669 0.212223 2.195405 0
M  V30 11 C 1.796080 -0.324577 1.690280 0
M  V30 12 O 1.858826 -0.629397 0.340415 0
M  V30 13 C 0.842744 -0.325474 -0.584972 0
M  V30 14 C 0.973452 1.090218 -1.095632 0
M  V30 15 O -0.271789 1.682267 -1.372797 0
M  V30 16 C -1.430672 0.969931 -1.606641 0
M  V30 17 C -2.386767 1.354942 -2.524218 0
M  V30 18 C -3.534486 0.616798 -2.731469 0
M  V30 19 O -4.524393 0.955679 -3.636957 0
M  V30 20 C -4.353964 2.144139 -4.409865 0
M  V30 21 C -3.662388 -0.523789 -1.966123 0
M  V30 22 O -4.792038 -1.300729 -2.132535 0
M  V30 23 C -4.970053 -2.481344 -1.370376 0
M  V30 24 C -2.736091 -0.946137 -1.040394 0
M  V30 25 C -1.601392 -0.173724 -0.867245 0
M  V30 26 C -0.524120 -0.485391 0.075699 0
M  V30 27 C -0.510612 0.427080 1.271067 0
M  V30 28 O -1.328620 1.323634 1.554173 0
M  V30 29 O 3.986150 -0.541958 4.463777 0
M  V30 30 H 2.453965 -3.327793 2.080321 0
M  V30 31 H 2.242390 -3.829040 2.409139 0
M  V30 32 H 4.028957 -4.774020 4.975390 0
M  V30 33 H 4.364739 -3.323392 5.938219 0
M  V30 34 H 2.664208 -3.719676 5.647716 0
M  V30 35 H 5.615806 -1.724825 3.872683 0
M  V30 36 H 4.168284 -1.902182 1.557628 0
M  V30 37 H 4.985297 -0.323782 2.064875 0
M  V30 38 H 1.508439 0.568960 5.466488 0
M  V30 39 H -0.433990 0.949882 3.907043 0
M  V30 40 H 0.947761 -1.020227 -1.454939 0
M  V30 41 H 1.436197 1.675474 -0.266129 0
M  V30 42 H 1.638346 1.075809 -1.980617 0
M  V30 43 H -2.238900 2.264894 -3.104632 0
M  V30 44 H -3.633014 1.955270 -5.230741 0
M  V30 45 H -4.023590 2.993510 -3.772304 0
M  V30 46 H -5.318370 2.422441 -4.910618 0
M  V30 47 H -4.840117 -2.158649 -0.295802 0
M  V30 48 H -5.998411 -2.863221 -1.417762 0
M  V30 49 H -4.177912 -3.211204 -1.569338 0
M  V30 50 H -2.831337 -1.835963 -0.440401 0
M  V30 51 H -0.627242 -1.535680 0.439392 0
M  V30 END ATOM
M  V30 BEGIN BOND
M  V30 1 2 1 2
M  V30 2 1 2 3
M  V30 3 1 2 4
M  V30 4 1 4 5
M  V30 5 1 5 6
M  V30 6 2 6 7
M  V30 7 1 7 8
M  V30 8 2 8 9
M  V30 9 1 9 10
M  V30 10 2 10 11
M  V30 11 1 11 12
M  V30 12 1 12 13
M  V30 13 1 13 14
M  V30 14 1 14 15
M  V30 15 1 15 16
M  V30 16 2 16 17
M  V30 17 1 17 18
M  V30 18 1 18 19
M  V30 19 1 19 20
M  V30 20 2 18 21
M  V30 21 1 21 22
M  V30 22 1 22 23
M  V30 23 1 21 24
M  V30 24 2 24 25
M  V30 25 1 25 26
M  V30 26 1 26 27
M  V30 27 2 27 28
M  V30 28 1 7 29
M  V30 29 1 29 4
M  V30 30 1 11 6
M  V30 31 1 26 13
M  V30 32 1 27 10
M  V30 33 1 25 16
M  V30 34 1 1 30
M  V30 35 1 1 31
M  V30 36 1 3 32
M  V30 37 1 3 33
M  V30 38 1 3 34
M  V30 39 1 4 35
M  V30 40 1 5 36
M  V30 41 1 5 37
M  V30 42 1 8 38
M  V30 43 1 9 39
M  V30 44 1 13 40
M  V30 45 1 14 41
M  V30 46 1 14 42
M  V30 47 1 17 43
M  V30 48 1 20 44
M  V30 49 1 20 45
M  V30 50 1 20 46
M  V30 51 1 23 47
M  V30 52 1 23 48
M  V30 53 1 23 49
M  V30 54 1 24 50
M  V30 55 1 26 51
M  V30 END BOND
M  V30 END CTAB
M  END
>  <Dataset>  (610) 
ChEMBL_Kinases

>  <Ligand_Instance>  (610) 
nan

>  <PDB_ID>  (610) 
nan

>  <Standardized_SMILES>  (610) 
C=C(C)C1Cc2c(ccc3c2OC2COc4cc(OC)c(OC)cc4C2C3=O)O1

>  <Name>  (610) 
nan

>  <Pocket>  (610) 
nan

>  <ATP_Site>  (610) 
nan

>  <Peripheral>  (610) 
nan

>  <Num_H_Atoms_ProtBoundConf>  (610) 
nan

>  <Num_Resolved_Atoms>  (610) 
nan

>  <Num_Not_Resolved_Atoms>  (610) 
nan

$$$$
CHEMBL4784718
     RDKit          3D

  0  0  0  0  0  0  0  0  0  0999 V3000
M  V30 BEGIN CTAB
M  V30 COUNTS 56 59 0 0 0
M  V30 BEGIN ATOM
M  V30 1 N 6.458465 -7.945240 2.295547 0
M  V30 2 C 6.021248 -6.894830 2.089081 0
M  V30 3 C 5.449933 -5.581969 1.837988 0
M  V30 4 C 4.956779 -4.820750 2.879939 0
M  V30 5 N 4.435338 -3.603439 2.586440 0
M  V30 6 C 4.404505 -3.156373 1.300173 0
M  V30 7 N 3.876790 -1.895022 0.904337 0
M  V30 8 C 2.499004 -1.823998 0.565400 0
M  V30 9 C 1.860863 -0.672185 0.167259 0
M  V30 10 C 0.532991 -0.525888 -0.175742 0
M  V30 11 N -0.026559 0.700803 -0.594376 0
M  V30 12 C 0.224836 2.092708 -0.833791 0
M  V30 13 C 0.351270 2.923979 0.407009 0 CFG=2
M  V30 14 C 1.604913 2.717853 1.204976 0
M  V30 15 N 1.364713 1.769836 2.277129 0
M  V30 16 C 0.483738 2.420917 3.209464 0
M  V30 17 C -0.454625 3.341989 2.465898 0
M  V30 18 O -0.788946 2.851852 1.207603 0
M  V30 19 C -0.237336 -1.694122 -0.104878 0
M  V30 20 C -1.644124 -1.661134 -0.442095 0
M  V30 21 C -2.821536 -1.647132 -0.709029 0
M  V30 22 C -4.229203 -1.654702 -1.029385 0
M  V30 23 O -4.832316 -2.889417 -0.848187 0
M  V30 24 C -4.929242 -0.604673 -0.223573 0
M  V30 25 C -6.266184 -0.449622 -0.959997 0
M  V30 26 C -6.046511 -1.033151 -2.346220 0
M  V30 27 C -4.526825 -1.215783 -2.439953 0
M  V30 28 C 0.382118 -2.850348 0.289662 0
M  V30 29 N 1.684825 -2.887444 0.603487 0
M  V30 30 C 4.900918 -3.927766 0.268708 0
M  V30 31 N 5.428169 -5.153289 0.547419 0
M  V30 32 H 4.984999 -5.180774 3.891009 0
M  V30 33 H 4.422524 -1.031015 0.846267 0
M  V30 34 H 2.535829 0.169063 0.136042 0
M  V30 35 H -1.061673 0.599019 -0.836063 0
M  V30 36 H 1.256999 2.096413 -1.342858 0
M  V30 37 H -0.431264 2.558247 -1.592873 0
M  V30 38 H 0.361002 4.012249 0.031617 0
M  V30 39 H 1.851716 3.699065 1.737823 0
M  V30 40 H 2.466836 2.436196 0.599313 0
M  V30 41 H 2.286056 1.519300 2.721272 0
M  V30 42 H -0.055742 1.717414 3.869246 0
M  V30 43 H 1.103213 3.047576 3.891245 0
M  V30 44 H 0.019975 4.350526 2.293122 0
M  V30 45 H -1.363020 3.472844 3.105926 0
M  V30 46 H -4.163312 -3.612473 -0.875451 0
M  V30 47 H -5.105493 -0.867301 0.830711 0
M  V30 48 H -4.394675 0.364323 -0.295939 0
M  V30 49 H -6.550510 0.619447 -1.054183 0
M  V30 50 H -7.071638 -1.036788 -0.435987 0
M  V30 51 H -6.478499 -2.069387 -2.355930 0
M  V30 52 H -6.442144 -0.391774 -3.136669 0
M  V30 53 H -4.243532 -1.968121 -3.190516 0
M  V30 54 H -4.060089 -0.221378 -2.680243 0
M  V30 55 H -0.257221 -3.708610 0.324467 0
M  V30 56 H 4.895162 -3.611590 -0.758798 0
M  V30 END ATOM
M  V30 BEGIN BOND
M  V30 1 3 1 2
M  V30 2 1 2 3
M  V30 3 2 3 4
M  V30 4 1 4 5
M  V30 5 2 5 6
M  V30 6 1 6 7
M  V30 7 1 7 8
M  V30 8 2 8 9
M  V30 9 1 9 10
M  V30 10 1 10 11
M  V30 11 1 11 12
M  V30 12 1 12 13
M  V30 13 1 13 14
M  V30 14 1 14 15
M  V30 15 1 15 16
M  V30 16 1 16 17
M  V30 17 1 17 18
M  V30 18 2 10 19
M  V30 19 1 19 20
M  V30 20 3 20 21
M  V30 21 1 21 22
M  V30 22 1 22 23
M  V30 23 1 22 24
M  V30 24 1 24 25
M  V30 25 1 25 26
M  V30 26 1 26 27
M  V30 27 1 19 28
M  V30 28 2 28 29
M  V30 29 1 6 30
M  V30 30 2 30 31
M  V30 31 1 31 3
M  V30 32 1 29 8
M  V30 33 1 18 13
M  V30 34 1 27 22
M  V30 35 1 4 32
M  V30 36 1 7 33
M  V30 37 1 9 34
M  V30 38 1 11 35
M  V30 39 1 12 36
M  V30 40 1 12 37
M  V30 41 1 13 38 CFG=3
M  V30 42 1 14 39
M  V30 43 1 14 40
M  V30 44 1 15 41
M  V30 45 1 16 42
M  V30 46 1 16 43
M  V30 47 1 17 44
M  V30 48 1 17 45
M  V30 49 1 23 46
M  V30 50 1 24 47
M  V30 51 1 24 48
M  V30 52 1 25 49
M  V30 53 1 25 50
M  V30 54 1 26 51
M  V30 55 1 26 52
M  V30 56 1 27 53
M  V30 57 1 27 54
M  V30 58 1 28 55
M  V30 59 1 30 56
M  V30 END BOND
M  V30 END CTAB
M  END
>  <Dataset>  (611) 
ChEMBL_Kinases

>  <Ligand_Instance>  (611) 
nan

>  <PDB_ID>  (611) 
nan

>  <Standardized_SMILES>  (611) 
N#Cc1cnc(Nc2cc(NC[C@@H]3CNCCO3)c(C#CC3(O)CCCC3)cn2)cn1

>  <Name>  (611) 
nan

>  <Pocket>  (611) 
nan

>  <ATP_Site>  (611) 
nan

>  <Peripheral>  (611) 
nan

>  <Num_H_Atoms_ProtBoundConf>  (611) 
nan

>  <Num_Resolved_Atoms>  (611) 
nan

>  <Num_Not_Resolved_Atoms>  (611) 
nan

$$$$
CHEMBL4784741
     RDKit          3D

  0  0  0  0  0  0  0  0  0  0999 V3000
M  V30 BEGIN CTAB
M  V30 COUNTS 65 68 0 0 0
M  V30 BEGIN ATOM
M  V30 1 C 1.434798 -0.660726 4.791651 0
M  V30 2 O 2.173754 -0.329362 3.646810 0
M  V30 3 C 3.366382 -0.884086 3.274905 0
M  V30 4 O 3.555803 -1.714195 4.215704 0
M  V30 5 C 4.316417 -0.777568 2.238428 0
M  V30 6 S 5.790923 -1.909291 2.430774 0
M  V30 7 C 6.583781 -1.269563 0.814213 0
M  V30 8 C 5.678577 -0.331997 0.363079 0
M  V30 9 C 4.554741 -0.098938 1.085309 0
M  V30 10 N 3.629032 0.826413 0.589792 0
M  V30 11 C 3.017948 2.062059 0.864015 0
M  V30 12 N 1.647126 2.098655 0.719869 0
M  V30 13 C 0.983757 3.271279 0.930219 0
M  V30 14 N -0.441952 3.142902 0.707314 0
M  V30 15 C -1.107719 1.885816 0.713347 0
M  V30 16 C -0.499858 0.825579 1.402913 0
M  V30 17 C -1.141084 -0.420318 1.453615 0
M  V30 18 C -2.336273 -0.666163 0.864947 0
M  V30 19 N -2.988010 -1.924277 0.838398 0
M  V30 20 C -4.327652 -2.232514 0.311314 0
M  V30 21 C -4.042143 -2.849773 -1.048498 0
M  V30 22 C -2.614472 -3.298057 -1.180384 0
M  V30 23 N -2.476711 -4.091938 -2.376245 0
M  V30 24 C -1.090273 -4.433461 -2.635669 0
M  V30 25 C -2.959598 -3.332664 -3.544646 0
M  V30 26 C -2.105847 -4.024053 0.036758 0
M  V30 27 C -2.376363 -3.185269 1.286526 0
M  V30 28 C -2.911549 0.384892 0.200998 0
M  V30 29 C -2.322845 1.625851 0.121299 0
M  V30 30 O -2.810002 2.746542 -0.520859 0
M  V30 31 C -4.025188 2.696510 -1.225313 0
M  V30 32 N 1.625925 4.376459 1.270895 0
M  V30 33 C 2.974596 4.422533 1.433409 0
M  V30 34 C 3.633735 3.234006 1.218451 0
M  V30 35 C 5.089592 3.187739 1.366920 0
M  V30 36 N 6.243800 3.166739 1.480764 0
M  V30 37 H 0.692250 -1.478680 4.608602 0
M  V30 38 H 0.889807 0.201524 5.196091 0
M  V30 39 H 2.079685 -1.056449 5.628898 0
M  V30 40 H 7.525961 -1.661991 0.474492 0
M  V30 41 H 6.004073 0.128873 -0.559552 0
M  V30 42 H 3.245776 0.462849 -0.347241 0
M  V30 43 H -0.848177 4.093585 0.559711 0
M  V30 44 H 0.408920 0.802372 1.937922 0
M  V30 45 H -0.677162 -1.251431 1.990485 0
M  V30 46 H -4.873967 -1.304344 0.211780 0
M  V30 47 H -4.852003 -2.963803 0.986747 0
M  V30 48 H -4.268488 -2.046698 -1.802412 0
M  V30 49 H -4.786027 -3.647557 -1.210855 0
M  V30 50 H -1.978262 -2.395773 -1.312184 0
M  V30 51 H -0.815964 -5.439689 -2.275965 0
M  V30 52 H -0.946045 -4.420193 -3.730813 0
M  V30 53 H -0.406573 -3.642342 -2.238949 0
M  V30 54 H -2.276835 -3.469347 -4.402614 0
M  V30 55 H -2.892063 -2.257631 -3.282330 0
M  V30 56 H -4.005772 -3.580719 -3.793546 0
M  V30 57 H -2.561116 -5.018763 0.121110 0
M  V30 58 H -1.018415 -4.115459 -0.036018 0
M  V30 59 H -1.493822 -3.048971 1.920230 0
M  V30 60 H -3.128842 -3.715576 1.886092 0
M  V30 61 H -3.867975 0.333880 -0.326384 0
M  V30 62 H -4.404447 3.720492 -1.363046 0
M  V30 63 H -3.837467 2.276429 -2.269024 0
M  V30 64 H -4.805406 2.034976 -0.816385 0
M  V30 65 H 3.494146 5.332868 1.708928 0
M  V30 END ATOM
M  V30 BEGIN BOND
M  V30 1 1 1 2
M  V30 2 1 2 3
M  V30 3 2 3 4
M  V30 4 1 3 5
M  V30 5 1 5 6
M  V30 6 1 6 7
M  V30 7 2 7 8
M  V30 8 1 8 9
M  V30 9 1 9 10
M  V30 10 1 10 11
M  V30 11 2 11 12
M  V30 12 1 12 13
M  V30 13 1 13 14
M  V30 14 1 14 15
M  V30 15 2 15 16
M  V30 16 1 16 17
M  V30 17 2 17 18
M  V30 18 1 18 19
M  V30 19 1 19 20
M  V30 20 1 20 21
M  V30 21 1 21 22
M  V30 22 1 22 23
M  V30 23 1 23 24
M  V30 24 1 23 25
M  V30 25 1 22 26
M  V30 26 1 26 27
M  V30 27 1 18 28
M  V30 28 2 28 29
M  V30 29 1 29 30
M  V30 30 1 30 31
M  V30 31 2 13 32
M  V30 32 1 32 33
M  V30 33 2 33 34
M  V30 34 1 34 35
M  V30 35 3 35 36
M  V30 36 2 9 5
M  V30 37 1 34 11
M  V30 38 1 29 15
M  V30 39 1 27 19
M  V30 40 1 1 37
M  V30 41 1 1 38
M  V30 42 1 1 39
M  V30 43 1 7 40
M  V30 44 1 8 41
M  V30 45 1 10 42
M  V30 46 1 14 43
M  V30 47 1 16 44
M  V30 48 1 17 45
M  V30 49 1 20 46
M  V30 50 1 20 47
M  V30 51 1 21 48
M  V30 52 1 21 49
M  V30 53 1 22 50
M  V30 54 1 24 51
M  V30 55 1 24 52
M  V30 56 1 24 53
M  V30 57 1 25 54
M  V30 58 1 25 55
M  V30 59 1 25 56
M  V30 60 1 26 57
M  V30 61 1 26 58
M  V30 62 1 27 59
M  V30 63 1 27 60
M  V30 64 1 28 61
M  V30 65 1 31 62
M  V30 66 1 31 63
M  V30 67 1 31 64
M  V30 68 1 33 65
M  V30 END BOND
M  V30 END CTAB
M  END
>  <Dataset>  (612) 
ChEMBL_Kinases

>  <Ligand_Instance>  (612) 
nan

>  <PDB_ID>  (612) 
nan

>  <Standardized_SMILES>  (612) 
COC(=O)c1sccc1Nc1nc(Nc2ccc(N3CCC(N(C)C)CC3)cc2OC)ncc1C#N

>  <Name>  (612) 
nan

>  <Pocket>  (612) 
nan

>  <ATP_Site>  (612) 
nan

>  <Peripheral>  (612) 
nan

>  <Num_H_Atoms_ProtBoundConf>  (612) 
nan

>  <Num_Resolved_Atoms>  (612) 
nan

>  <Num_Not_Resolved_Atoms>  (612) 
nan

$$$$
CHEMBL4177437
     RDKit          3D

  0  0  0  0  0  0  0  0  0  0999 V3000
M  V30 BEGIN CTAB
M  V30 COUNTS 65 70 0 0 0
M  V30 BEGIN ATOM
M  V30 1 C 2.609292 1.959230 5.659701 0
M  V30 2 C 2.068315 1.122927 4.531137 0
M  V30 3 N 1.376936 -0.017803 4.621099 0
M  V30 4 N 1.066712 -0.471186 3.412722 0
M  V30 5 C 0.348110 -1.634082 3.011731 0
M  V30 6 C 1.138606 -2.773801 2.818183 0
M  V30 7 C 0.491744 -3.939402 2.425578 0
M  V30 8 C -0.878769 -3.975379 2.232841 0
M  V30 9 C -1.652762 -2.855837 2.423307 0
M  V30 10 C -1.018625 -1.694360 2.813139 0
M  V30 11 C 1.554295 0.373746 2.485382 0
M  V30 12 O 1.556507 0.441473 1.119312 0
M  V30 13 C 0.998800 -0.433817 0.234396 0
M  V30 14 C -0.321294 -0.241142 -0.179855 0
M  V30 15 C -0.992564 -1.046980 -1.061061 0
M  V30 16 C -0.297176 -2.126118 -1.568207 0
M  V30 17 C -0.991178 -3.001765 -2.510261 0
M  V30 18 N -0.535938 -4.103816 -3.135158 0
M  V30 19 C -1.488659 -4.629330 -3.926538 0
M  V30 20 C -1.432472 -5.756835 -4.738564 0
M  V30 21 C -2.570162 -6.069990 -5.450295 0
M  V30 22 C -2.537366 -7.246196 -6.307985 0
M  V30 23 N -3.674844 -7.586326 -7.042380 0
M  V30 24 O -1.515816 -7.970490 -6.411710 0
M  V30 25 C -3.703186 -5.293397 -5.352412 0
M  V30 26 C -3.734065 -4.163991 -4.528352 0
M  V30 27 C -2.602186 -3.826539 -3.801035 0
M  V30 28 N -2.261369 -2.838696 -2.925005 0
M  V30 29 C 1.009427 -2.383082 -1.207387 0
M  V30 30 C 1.659372 -1.541155 -0.308409 0
M  V30 31 C 2.199602 1.401940 3.180626 0
M  V30 32 C 2.912457 2.596623 2.692790 0
M  V30 33 N 2.029794 3.530925 2.601970 0
M  V30 34 N 2.245599 4.827863 2.185117 0
M  V30 35 C 1.386595 5.782009 2.755351 0
M  V30 36 C 0.393868 5.436465 3.672597 0
M  V30 37 C -0.472297 6.343732 4.257522 0
M  V30 38 C -0.365825 7.666670 3.930014 0
M  V30 39 C 0.594310 8.074223 3.029757 0
M  V30 40 C 1.428178 7.143180 2.476917 0
M  V30 41 H 3.697557 1.805573 5.708975 0
M  V30 42 H 2.429545 3.029203 5.435807 0
M  V30 43 H 2.155570 1.613794 6.605336 0
M  V30 44 H 2.207571 -2.783667 2.958642 0
M  V30 45 H 1.025634 -4.871413 2.252121 0
M  V30 46 H -1.387227 -4.883347 1.926378 0
M  V30 47 H -2.728849 -2.781952 2.298842 0
M  V30 48 H -1.481761 -0.736960 3.002620 0
M  V30 49 H -0.862081 0.614928 0.227159 0
M  V30 50 H -2.014746 -0.830071 -1.331263 0
M  V30 51 H -0.604193 -6.403642 -4.868895 0
M  V30 52 H -4.509420 -7.832231 -7.605767 0
M  V30 53 H -4.354605 -7.961582 -6.321865 0
M  V30 54 H -4.609634 -5.519697 -5.902263 0
M  V30 55 H -4.600984 -3.518851 -4.415770 0
M  V30 56 H -2.965741 -2.100977 -2.675004 0
M  V30 57 H 1.534279 -3.249239 -1.628539 0
M  V30 58 H 2.686495 -1.713685 -0.002930 0
M  V30 59 H 3.912015 2.846877 2.419116 0
M  V30 60 H 2.952851 5.199782 1.509430 0
M  V30 61 H 0.264508 4.395384 3.969687 0
M  V30 62 H -1.223412 6.029080 4.960893 0
M  V30 63 H -1.051786 8.356267 4.398660 0
M  V30 64 H 0.650287 9.118950 2.795478 0
M  V30 65 H 2.175095 7.490179 1.771367 0
M  V30 END ATOM
M  V30 BEGIN BOND
M  V30 1 1 1 2
M  V30 2 2 2 3
M  V30 3 1 3 4
M  V30 4 1 4 5
M  V30 5 2 5 6
M  V30 6 1 6 7
M  V30 7 2 7 8
M  V30 8 1 8 9
M  V30 9 2 9 10
M  V30 10 1 4 11
M  V30 11 1 11 12
M  V30 12 1 12 13
M  V30 13 2 13 14
M  V30 14 1 14 15
M  V30 15 2 15 16
M  V30 16 1 16 17
M  V30 17 2 17 18
M  V30 18 1 18 19
M  V30 19 2 19 20
M  V30 20 1 20 21
M  V30 21 1 21 22
M  V30 22 1 22 23
M  V30 23 2 22 24
M  V30 24 2 21 25
M  V30 25 1 25 26
M  V30 26 2 26 27
M  V30 27 1 27 28
M  V30 28 1 16 29
M  V30 29 2 29 30
M  V30 30 2 11 31
M  V30 31 1 31 32
M  V30 32 2 32 33
M  V30 33 1 33 34
M  V30 34 1 34 35
M  V30 35 2 35 36
M  V30 36 1 36 37
M  V30 37 2 37 38
M  V30 38 1 38 39
M  V30 39 2 39 40
M  V30 40 1 31 2
M  V30 41 1 40 35
M  V30 42 1 10 5
M  V30 43 1 30 13
M  V30 44 1 28 17
M  V30 45 1 27 19
M  V30 46 1 1 41
M  V30 47 1 1 42
M  V30 48 1 1 43
M  V30 49 1 6 44
M  V30 50 1 7 45
M  V30 51 1 8 46
M  V30 52 1 9 47
M  V30 53 1 10 48
M  V30 54 1 14 49
M  V30 55 1 15 50
M  V30 56 1 20 51
M  V30 57 1 23 52
M  V30 58 1 23 53
M  V30 59 1 25 54
M  V30 60 1 26 55
M  V30 61 1 28 56
M  V30 62 1 29 57
M  V30 63 1 30 58
M  V30 64 1 32 59
M  V30 65 1 34 60
M  V30 66 1 36 61
M  V30 67 1 37 62
M  V30 68 1 38 63
M  V30 69 1 39 64
M  V30 70 1 40 65
M  V30 END BOND
M  V30 END CTAB
M  END
>  <Dataset>  (613) 
ChEMBL_Kinases

>  <Ligand_Instance>  (613) 
nan

>  <PDB_ID>  (613) 
nan

>  <Standardized_SMILES>  (613) 
Cc1nn(-c2ccccc2)c(Oc2ccc(-c3nc4cc(C(N)=O)ccc4[nH]3)cc2)c1/C=N/Nc1ccccc1

>  <Name>  (613) 
nan

>  <Pocket>  (613) 
nan

>  <ATP_Site>  (613) 
nan

>  <Peripheral>  (613) 
nan

>  <Num_H_Atoms_ProtBoundConf>  (613) 
nan

>  <Num_Resolved_Atoms>  (613) 
nan

>  <Num_Not_Resolved_Atoms>  (613) 
nan

$$$$
CHEMBL4784755
     RDKit          3D

  0  0  0  0  0  0  0  0  0  0999 V3000
M  V30 BEGIN CTAB
M  V30 COUNTS 41 44 0 0 0
M  V30 BEGIN ATOM
M  V30 1 N 2.449468 -1.006576 4.262355 0
M  V30 2 C 1.883936 -0.722288 2.988570 0
M  V30 3 N 2.500792 0.153910 2.165914 0
M  V30 4 C 1.962684 0.426650 0.949761 0
M  V30 5 N 2.571813 1.341496 0.044865 0
M  V30 6 C 1.979537 1.618426 -1.250012 0
M  V30 7 C 2.742576 2.585488 -2.049683 0
M  V30 8 C 2.407298 3.933361 -1.887885 0
M  V30 9 C 3.111429 4.886544 -2.632332 0
M  V30 10 C 4.114250 4.511269 -3.507266 0
M  V30 11 F 4.759798 5.488056 -4.200777 0
M  V30 12 C 4.423191 3.173122 -3.646072 0
M  V30 13 C 3.741487 2.194103 -2.919326 0
M  V30 14 N 0.819000 -0.206823 0.627069 0
M  V30 15 C 0.190155 -1.082967 1.433860 0
M  V30 16 N -0.927771 -1.831248 1.359104 0
M  V30 17 C -1.069861 -2.547084 2.507029 0
M  V30 18 C -2.239427 -3.414773 2.587003 0
M  V30 19 C -3.317865 -2.856955 3.243042 0
M  V30 20 C -4.504791 -3.561379 3.399696 0
M  V30 21 O -5.621823 -3.089378 4.033849 0
M  V30 22 C -4.577008 -4.854204 2.873178 0
M  V30 23 C -3.483147 -5.414644 2.210056 0
M  V30 24 O -3.560416 -6.702439 1.687647 0
M  V30 25 C -2.316063 -4.689159 2.070103 0
M  V30 26 N -0.004606 -2.214753 3.288119 0
M  V30 27 N 0.741496 -1.338730 2.635758 0
M  V30 28 H 2.743409 -0.542225 5.154183 0
M  V30 29 H 2.684918 -2.022643 4.455702 0
M  V30 30 H 3.455930 1.800454 0.351392 0
M  V30 31 H 0.928967 1.958804 -1.054126 0
M  V30 32 H 1.836931 0.630613 -1.775777 0
M  V30 33 H 1.637118 4.306129 -1.224960 0
M  V30 34 H 2.850229 5.943830 -2.507046 0
M  V30 35 H 5.208392 2.904653 -4.333854 0
M  V30 36 H 3.976882 1.141753 -3.021592 0
M  V30 37 H -3.318613 -1.855817 3.672672 0
M  V30 38 H -6.156051 -2.274266 3.781152 0
M  V30 39 H -5.503892 -5.439137 2.980570 0
M  V30 40 H -4.137685 -7.356101 2.239367 0
M  V30 41 H -1.429832 -5.071121 1.563775 0
M  V30 END ATOM
M  V30 BEGIN BOND
M  V30 1 1 1 2
M  V30 2 2 2 3
M  V30 3 1 3 4
M  V30 4 1 4 5
M  V30 5 1 5 6
M  V30 6 1 6 7
M  V30 7 2 7 8
M  V30 8 1 8 9
M  V30 9 2 9 10
M  V30 10 1 10 11
M  V30 11 1 10 12
M  V30 12 2 12 13
M  V30 13 2 4 14
M  V30 14 1 14 15
M  V30 15 2 15 16
M  V30 16 1 16 17
M  V30 17 1 17 18
M  V30 18 2 18 19
M  V30 19 1 19 20
M  V30 20 1 20 21
M  V30 21 2 20 22
M  V30 22 1 22 23
M  V30 23 1 23 24
M  V30 24 2 23 25
M  V30 25 2 17 26
M  V30 26 1 26 27
M  V30 27 1 27 2
M  V30 28 1 13 7
M  V30 29 1 27 15
M  V30 30 1 25 18
M  V30 31 1 1 28
M  V30 32 1 1 29
M  V30 33 1 5 30
M  V30 34 1 6 31
M  V30 35 1 6 32
M  V30 36 1 8 33
M  V30 37 1 9 34
M  V30 38 1 12 35
M  V30 39 1 13 36
M  V30 40 1 19 37
M  V30 41 1 21 38
M  V30 42 1 22 39
M  V30 43 1 24 40
M  V30 44 1 25 41
M  V30 END BOND
M  V30 END CTAB
M  END
>  <Dataset>  (614) 
ChEMBL_Kinases

>  <Ligand_Instance>  (614) 
nan

>  <PDB_ID>  (614) 
nan

>  <Standardized_SMILES>  (614) 
Nc1nc(NCc2ccc(F)cc2)nc2nc(-c3cc(O)cc(O)c3)nn12

>  <Name>  (614) 
nan

>  <Pocket>  (614) 
nan

>  <ATP_Site>  (614) 
nan

>  <Peripheral>  (614) 
nan

>  <Num_H_Atoms_ProtBoundConf>  (614) 
nan

>  <Num_Resolved_Atoms>  (614) 
nan

>  <Num_Not_Resolved_Atoms>  (614) 
nan

$$$$
CHEMBL4784761
     RDKit          3D

  0  0  0  0  0  0  0  0  0  0999 V3000
M  V30 BEGIN CTAB
M  V30 COUNTS 50 53 0 0 0
M  V30 BEGIN ATOM
M  V30 1 C 2.387937 -4.825431 0.966807 0
M  V30 2 N 3.269224 -4.808688 -0.179076 0
M  V30 3 C 4.163897 -5.710559 -0.866939 0
M  V30 4 C 3.166742 -3.501648 -0.723150 0
M  V30 5 O 2.381492 -2.751919 -0.101927 0
M  V30 6 C 3.276205 -2.260774 -1.504250 0
M  V30 7 C 2.419514 -1.175140 -0.936475 0
M  V30 8 S 3.089829 0.193120 -0.003571 0
M  V30 9 C 1.363074 0.931334 0.255766 0
M  V30 10 N 1.020776 2.190205 1.008615 0
M  V30 11 C -0.360458 2.504569 1.044325 0
M  V30 12 O -1.163437 1.729586 0.461741 0
M  V30 13 C -0.474281 3.759116 1.821644 0
M  V30 14 C 0.007148 3.602297 3.248056 0
M  V30 15 O -0.820812 2.726024 3.987583 0
M  V30 16 C -2.180202 2.597235 3.744360 0
M  V30 17 C -2.992094 1.825645 4.531413 0
M  V30 18 C -4.334742 1.788940 4.169200 0
M  V30 19 C -4.925541 2.449603 3.101525 0
M  V30 20 C -4.041303 3.222116 2.335631 0
M  V30 21 C -2.712149 3.290711 2.650438 0
M  V30 22 O -1.866241 4.065642 1.867858 0
M  V30 23 N 0.728870 0.167326 -0.296233 0
M  V30 24 C 1.042934 -0.930012 -0.944755 0
M  V30 25 C 0.060796 -1.804910 -1.576242 0
M  V30 26 C -1.049167 -2.195892 -0.802757 0
M  V30 27 C -1.988195 -3.022414 -1.423360 0
M  V30 28 N -1.892584 -3.445327 -2.663218 0
M  V30 29 C -0.845384 -3.105671 -3.468633 0
M  V30 30 C 0.083882 -2.290326 -2.862716 0
M  V30 31 H 2.312600 -5.837079 1.430989 0
M  V30 32 H 1.345596 -4.614176 0.609056 0
M  V30 33 H 2.680997 -4.039282 1.697895 0
M  V30 34 H 5.169411 -5.268592 -1.016546 0
M  V30 35 H 4.308193 -6.657019 -0.306831 0
M  V30 36 H 3.718005 -5.992267 -1.857278 0
M  V30 37 H 4.321495 -1.871978 -1.541635 0
M  V30 38 H 2.973282 -2.477711 -2.521132 0
M  V30 39 H 1.886302 2.628147 1.389534 0
M  V30 40 H 0.100478 4.587925 1.366211 0
M  V30 41 H 0.082547 4.545639 3.783977 0
M  V30 42 H 1.015655 3.144386 3.203581 0
M  V30 43 H -2.632234 1.282180 5.372101 0
M  V30 44 H -4.993726 1.176952 4.789868 0
M  V30 45 H -5.989742 2.328545 2.937770 0
M  V30 46 H -4.480090 3.744828 1.500392 0
M  V30 47 H -1.111283 -1.835860 0.219005 0
M  V30 48 H -2.806727 -3.272032 -0.748450 0
M  V30 49 H -0.727689 -3.426266 -4.493569 0
M  V30 50 H 0.912722 -2.002537 -3.487335 0
M  V30 END ATOM
M  V30 BEGIN BOND
M  V30 1 1 1 2
M  V30 2 1 2 3
M  V30 3 1 2 4
M  V30 4 2 4 5
M  V30 5 1 4 6
M  V30 6 1 6 7
M  V30 7 1 7 8
M  V30 8 1 8 9
M  V30 9 1 9 10
M  V30 10 1 10 11
M  V30 11 2 11 12
M  V30 12 1 11 13
M  V30 13 1 13 14
M  V30 14 1 14 15
M  V30 15 1 15 16
M  V30 16 2 16 17
M  V30 17 1 17 18
M  V30 18 2 18 19
M  V30 19 1 19 20
M  V30 20 2 20 21
M  V30 21 1 21 22
M  V30 22 2 9 23
M  V30 23 1 23 24
M  V30 24 1 24 25
M  V30 25 2 25 26
M  V30 26 1 26 27
M  V30 27 2 27 28
M  V30 28 1 28 29
M  V30 29 2 29 30
M  V30 30 2 24 7
M  V30 31 1 30 25
M  V30 32 1 22 13
M  V30 33 1 21 16
M  V30 34 1 1 31
M  V30 35 1 1 32
M  V30 36 1 1 33
M  V30 37 1 3 34
M  V30 38 1 3 35
M  V30 39 1 3 36
M  V30 40 1 6 37
M  V30 41 1 6 38
M  V30 42 1 10 39
M  V30 43 1 13 40
M  V30 44 1 14 41
M  V30 45 1 14 42
M  V30 46 1 17 43
M  V30 47 1 18 44
M  V30 48 1 19 45
M  V30 49 1 20 46
M  V30 50 1 26 47
M  V30 51 1 27 48
M  V30 52 1 29 49
M  V30 53 1 30 50
M  V30 END BOND
M  V30 END CTAB
M  END
>  <Dataset>  (615) 
ChEMBL_Kinases

>  <Ligand_Instance>  (615) 
nan

>  <PDB_ID>  (615) 
nan

>  <Standardized_SMILES>  (615) 
CN(C)C(=O)Cc1sc(NC(=O)C2COc3ccccc3O2)nc1-c1ccncc1

>  <Name>  (615) 
nan

>  <Pocket>  (615) 
nan

>  <ATP_Site>  (615) 
nan

>  <Peripheral>  (615) 
nan

>  <Num_H_Atoms_ProtBoundConf>  (615) 
nan

>  <Num_Resolved_Atoms>  (615) 
nan

>  <Num_Not_Resolved_Atoms>  (615) 
nan

$$$$
CHEMBL4177365
     RDKit          3D

  0  0  0  0  0  0  0  0  0  0999 V3000
M  V30 BEGIN CTAB
M  V30 COUNTS 35 38 0 0 0
M  V30 BEGIN ATOM
M  V30 1 O 1.155310 -5.103610 2.717793 0
M  V30 2 C 1.221451 -3.878796 2.908415 0
M  V30 3 N 1.442059 -3.082881 4.032797 0
M  V30 4 C 1.154566 -1.736265 3.980959 0
M  V30 5 O 1.297145 -0.880529 4.910202 0
M  V30 6 C 0.643030 -1.314877 2.719161 0
M  V30 7 C 0.003562 -0.285893 2.229418 0
M  V30 8 C -0.489763 0.083411 0.921855 0
M  V30 9 C 0.035656 0.205237 -0.335755 0
M  V30 10 C 1.419672 0.059210 -0.720482 0
M  V30 11 C 1.685987 0.010608 -2.055530 0
M  V30 12 C 2.953561 -0.088587 -2.568765 0
M  V30 13 C 4.058686 -0.146134 -1.741964 0
M  V30 14 C 3.822424 -0.098658 -0.389193 0
M  V30 15 C 2.542902 0.000050 0.056393 0
M  V30 16 N -0.971585 0.491187 -1.173458 0
M  V30 17 C -2.121085 0.562599 -0.514635 0
M  V30 18 C -3.416440 0.829964 -0.943247 0
M  V30 19 C -4.477984 0.857606 -0.086320 0
M  V30 20 C -4.236102 0.610823 1.234980 0
M  V30 21 C -2.953153 0.348736 1.641938 0
M  V30 22 C -1.846374 0.308874 0.817948 0
M  V30 23 S 1.017223 -2.674348 1.576335 0
M  V30 24 H 1.831134 -3.534054 4.917864 0
M  V30 25 H -0.176562 0.445058 3.043376 0
M  V30 26 H 0.908596 0.046003 -2.812087 0
M  V30 27 H 3.138836 -0.126028 -3.619843 0
M  V30 28 H 5.072614 -0.224181 -2.105292 0
M  V30 29 H 4.656598 -0.140816 0.281782 0
M  V30 30 H 2.418174 0.052253 1.121620 0
M  V30 31 H -0.925493 0.650994 -2.224003 0
M  V30 32 H -3.630178 1.028924 -1.989275 0
M  V30 33 H -5.481175 1.065575 -0.421381 0
M  V30 34 H -5.063381 0.629786 1.920330 0
M  V30 35 H -2.795748 0.157304 2.697353 0
M  V30 END ATOM
M  V30 BEGIN BOND
M  V30 1 2 1 2
M  V30 2 1 2 3
M  V30 3 1 3 4
M  V30 4 2 4 5
M  V30 5 1 4 6
M  V30 6 2 6 7
M  V30 7 1 7 8
M  V30 8 2 8 9
M  V30 9 1 9 10
M  V30 10 2 10 11
M  V30 11 1 11 12
M  V30 12 2 12 13
M  V30 13 1 13 14
M  V30 14 2 14 15
M  V30 15 1 9 16
M  V30 16 1 16 17
M  V30 17 2 17 18
M  V30 18 1 18 19
M  V30 19 2 19 20
M  V30 20 1 20 21
M  V30 21 2 21 22
M  V30 22 1 6 23
M  V30 23 1 23 2
M  V30 24 1 22 8
M  V30 25 1 15 10
M  V30 26 1 22 17
M  V30 27 1 3 24
M  V30 28 1 7 25
M  V30 29 1 11 26
M  V30 30 1 12 27
M  V30 31 1 13 28
M  V30 32 1 14 29
M  V30 33 1 15 30
M  V30 34 1 16 31
M  V30 35 1 18 32
M  V30 36 1 19 33
M  V30 37 1 20 34
M  V30 38 1 21 35
M  V30 END BOND
M  V30 END CTAB
M  END
>  <Dataset>  (616) 
ChEMBL_Kinases

>  <Ligand_Instance>  (616) 
nan

>  <PDB_ID>  (616) 
nan

>  <Standardized_SMILES>  (616) 
O=C1NC(=O)/C(=C/c2c(-c3ccccc3)[nH]c3ccccc23)S1

>  <Name>  (616) 
nan

>  <Pocket>  (616) 
nan

>  <ATP_Site>  (616) 
nan

>  <Peripheral>  (616) 
nan

>  <Num_H_Atoms_ProtBoundConf>  (616) 
nan

>  <Num_Resolved_Atoms>  (616) 
nan

>  <Num_Not_Resolved_Atoms>  (616) 
nan

$$$$
CHEMBL4784779
     RDKit          3D

  0  0  0  0  0  0  0  0  0  0999 V3000
M  V30 BEGIN CTAB
M  V30 COUNTS 55 58 0 0 0
M  V30 BEGIN ATOM
M  V30 1 C 4.891494 1.632806 6.109988 0
M  V30 2 C 4.893170 0.580905 5.019827 0
M  V30 3 C 3.581117 0.718854 4.262825 0
M  V30 4 S 3.558574 -0.512418 2.951619 0
M  V30 5 O 4.775216 -0.394631 2.088063 0
M  V30 6 O 3.632660 -1.847493 3.635931 0
M  V30 7 N 2.081911 -0.385453 2.074410 0
M  V30 8 C 1.752622 0.811157 1.381440 0
M  V30 9 C 2.756969 1.650865 0.886340 0
M  V30 10 C 2.403703 2.800075 0.216915 0
M  V30 11 C 1.068952 3.172683 0.005796 0
M  V30 12 F 0.873324 4.336173 -0.672022 0
M  V30 13 C 0.056204 2.367549 0.479977 0
M  V30 14 C -1.313531 2.780892 0.307628 0
M  V30 15 O -1.331178 4.053306 0.149360 0
M  V30 16 C -2.603511 2.180574 0.268995 0
M  V30 17 N -3.669596 2.927799 0.643312 0
M  V30 18 N -4.782633 2.219313 0.523286 0
M  V30 19 C -4.540762 0.986134 0.070782 0
M  V30 20 N -5.275905 -0.103790 -0.241982 0
M  V30 21 C -4.685934 -1.229706 -0.716947 0
M  V30 22 C -3.296649 -1.242771 -0.878460 0
M  V30 23 C -2.748138 -2.486284 -1.401423 0
M  V30 24 C -1.508416 -3.024617 -1.131293 0
M  V30 25 C -1.083054 -4.215156 -1.676748 0
M  V30 26 C -1.889062 -4.942268 -2.534955 0
M  V30 27 S -1.460134 -6.463790 -3.279036 0
M  V30 28 N -0.729460 -6.124028 -4.815702 0
M  V30 29 O -2.670389 -7.312449 -3.529114 0
M  V30 30 O -0.473634 -7.181602 -2.395206 0
M  V30 31 C -3.159812 -4.460596 -2.857384 0
M  V30 32 C -3.519218 -3.264327 -2.276188 0
M  V30 33 C -2.529261 -0.143485 -0.564698 0
M  V30 34 C -3.173900 0.974507 -0.085434 0
M  V30 35 C 0.457241 1.228928 1.143378 0
M  V30 36 F -0.450482 0.384659 1.685937 0
M  V30 37 H 4.246750 1.248886 6.937454 0
M  V30 38 H 4.495164 2.583932 5.714543 0
M  V30 39 H 5.914156 1.763223 6.478850 0
M  V30 40 H 5.776714 0.693268 4.368161 0
M  V30 41 H 4.969040 -0.408298 5.509218 0
M  V30 42 H 2.761936 0.507516 4.990518 0
M  V30 43 H 3.418943 1.727001 3.883678 0
M  V30 44 H 1.426986 -1.198015 2.057230 0
M  V30 45 H 3.800815 1.419390 1.012386 0
M  V30 46 H 3.208302 3.435445 -0.156429 0
M  V30 47 H -5.731873 2.604325 0.764328 0
M  V30 48 H -5.398186 -2.006344 -0.915576 0
M  V30 49 H -0.883568 -2.455751 -0.461348 0
M  V30 50 H -0.109317 -4.626834 -1.459498 0
M  V30 51 H -0.523308 -7.041350 -5.316109 0
M  V30 52 H -1.471696 -5.668824 -5.419938 0
M  V30 53 H -3.857700 -4.957395 -3.515663 0
M  V30 54 H -4.511154 -2.876438 -2.519321 0
M  V30 55 H -1.475424 -0.156989 -0.694456 0
M  V30 END ATOM
M  V30 BEGIN BOND
M  V30 1 1 1 2
M  V30 2 1 2 3
M  V30 3 1 3 4
M  V30 4 2 4 5
M  V30 5 2 4 6
M  V30 6 1 4 7
M  V30 7 1 7 8
M  V30 8 2 8 9
M  V30 9 1 9 10
M  V30 10 2 10 11
M  V30 11 1 11 12
M  V30 12 1 11 13
M  V30 13 1 13 14
M  V30 14 2 14 15
M  V30 15 1 14 16
M  V30 16 2 16 17
M  V30 17 1 17 18
M  V30 18 1 18 19
M  V30 19 2 19 20
M  V30 20 1 20 21
M  V30 21 2 21 22
M  V30 22 1 22 23
M  V30 23 2 23 24
M  V30 24 1 24 25
M  V30 25 2 25 26
M  V30 26 1 26 27
M  V30 27 1 27 28
M  V30 28 2 27 29
M  V30 29 2 27 30
M  V30 30 1 26 31
M  V30 31 2 31 32
M  V30 32 1 22 33
M  V30 33 2 33 34
M  V30 34 2 13 35
M  V30 35 1 35 36
M  V30 36 1 35 8
M  V30 37 1 34 16
M  V30 38 1 34 19
M  V30 39 1 32 23
M  V30 40 1 1 37
M  V30 41 1 1 38
M  V30 42 1 1 39
M  V30 43 1 2 40
M  V30 44 1 2 41
M  V30 45 1 3 42
M  V30 46 1 3 43
M  V30 47 1 7 44
M  V30 48 1 9 45
M  V30 49 1 10 46
M  V30 50 1 18 47
M  V30 51 1 21 48
M  V30 52 1 24 49
M  V30 53 1 25 50
M  V30 54 1 28 51
M  V30 55 1 28 52
M  V30 56 1 31 53
M  V30 57 1 32 54
M  V30 58 1 33 55
M  V30 END BOND
M  V30 END CTAB
M  END
>  <Dataset>  (617) 
ChEMBL_Kinases

>  <Ligand_Instance>  (617) 
nan

>  <PDB_ID>  (617) 
nan

>  <Standardized_SMILES>  (617) 
CCCS(=O)(=O)Nc1ccc(F)c(C(=O)c2n[nH]c3ncc(-c4ccc(S(N)(=O)=O)cc4)cc23)c1F

>  <Name>  (617) 
nan

>  <Pocket>  (617) 
nan

>  <ATP_Site>  (617) 
nan

>  <Peripheral>  (617) 
nan

>  <Num_H_Atoms_ProtBoundConf>  (617) 
nan

>  <Num_Resolved_Atoms>  (617) 
nan

>  <Num_Not_Resolved_Atoms>  (617) 
nan

$$$$
CHEMBL4784781
     RDKit          3D

  0  0  0  0  0  0  0  0  0  0999 V3000
M  V30 BEGIN CTAB
M  V30 COUNTS 60 63 0 0 0
M  V30 BEGIN ATOM
M  V30 1 C 5.423772 -2.487284 1.558563 0
M  V30 2 O 5.898006 -1.145367 1.667389 0
M  V30 3 C 5.470025 -0.163835 0.799357 0
M  V30 4 O 4.671601 -0.668287 -0.005138 0
M  V30 5 C 5.794849 1.244023 0.709005 0
M  V30 6 C 6.678980 1.790007 1.558210 0
M  V30 7 C 6.975031 3.165151 1.414450 0
M  V30 8 S 5.926874 3.624012 0.014837 0
M  V30 9 C 5.223591 2.022070 -0.241101 0
M  V30 10 N 4.262413 1.817622 -1.275471 0
M  V30 11 C 2.964162 2.154286 -0.792578 0
M  V30 12 N 2.241416 1.220344 -0.124738 0
M  V30 13 C 1.015288 1.499595 0.346911 0
M  V30 14 N 0.278888 0.494273 1.024050 0
M  V30 15 C -0.914972 -0.170697 0.626152 0
M  V30 16 C -1.485448 0.224518 -0.556312 0
M  V30 17 C -2.663815 -0.409780 -0.903153 0
M  V30 18 C -3.229965 -1.380007 -0.108591 0
M  V30 19 N -4.445010 -2.070027 -0.425374 0
M  V30 20 C -5.615514 -2.090482 0.428223 0
M  V30 21 C -5.714499 -3.490234 0.967446 0
M  V30 22 N -5.483471 -4.518373 0.048563 0
M  V30 23 C -4.956175 -5.683974 0.703230 0
M  V30 24 C -5.060669 -4.284976 -1.257759 0
M  V30 25 C -4.705343 -2.873544 -1.618522 0
M  V30 26 C -2.590157 -1.736392 1.090423 0
M  V30 27 C -1.403183 -1.133139 1.490054 0
M  V30 28 O -0.730056 -1.438756 2.644699 0
M  V30 29 C -1.076310 -2.378778 3.613356 0
M  V30 30 N 0.455314 2.708155 0.178585 0
M  V30 31 C 1.079166 3.709706 -0.468135 0
M  V30 32 C 2.326375 3.363403 -0.926403 0
M  V30 33 N 3.039499 4.320609 -1.640140 0 CHG=1 VAL=4
M  V30 34 O 3.918125 4.230067 -2.552430 0
M  V30 35 O 3.911421 4.919283 -2.504133 0 CHG=-1 VAL=1
M  V30 36 H 5.524502 -3.025818 2.509699 0
M  V30 37 H 5.965723 -3.046510 0.792271 0
M  V30 38 H 4.321417 -2.382147 1.332467 0
M  V30 39 H 7.221945 1.309909 2.370708 0
M  V30 40 H 7.682583 3.800183 2.023289 0
M  V30 41 H 4.601485 1.469278 -2.197850 0
M  V30 42 H 0.801801 0.310220 1.918542 0
M  V30 43 H -1.037350 0.991631 -1.179271 0
M  V30 44 H -3.164415 -0.152681 -1.809289 0
M  V30 45 H -5.512045 -1.346107 1.246998 0
M  V30 46 H -6.514791 -1.888484 -0.197363 0
M  V30 47 H -5.083158 -3.551087 1.903633 0
M  V30 48 H -6.800064 -3.582620 1.307882 0
M  V30 49 H -5.725322 -6.480776 0.838598 0
M  V30 50 H -4.073071 -6.125935 0.209160 0
M  V30 51 H -4.625092 -5.392853 1.743094 0
M  V30 52 H -4.112994 -4.876337 -1.451235 0
M  V30 53 H -5.802702 -4.680169 -1.978731 0
M  V30 54 H -5.543070 -2.382427 -2.144357 0
M  V30 55 H -3.822104 -2.796879 -2.280133 0
M  V30 56 H -2.988634 -2.484235 1.737353 0
M  V30 57 H -2.022288 -2.920315 3.446683 0
M  V30 58 H -0.288176 -3.195101 3.578319 0
M  V30 59 H -1.148909 -1.960308 4.653590 0
M  V30 60 H 0.621193 4.661411 -0.592715 0
M  V30 END ATOM
M  V30 BEGIN BOND
M  V30 1 1 1 2
M  V30 2 1 2 3
M  V30 3 2 3 4
M  V30 4 1 3 5
M  V30 5 1 5 6
M  V30 6 2 6 7
M  V30 7 1 7 8
M  V30 8 1 8 9
M  V30 9 1 9 10
M  V30 10 1 10 11
M  V30 11 2 11 12
M  V30 12 1 12 13
M  V30 13 1 13 14
M  V30 14 1 14 15
M  V30 15 2 15 16
M  V30 16 1 16 17
M  V30 17 2 17 18
M  V30 18 1 18 19
M  V30 19 1 19 20
M  V30 20 1 20 21
M  V30 21 1 21 22
M  V30 22 1 22 23
M  V30 23 1 22 24
M  V30 24 1 24 25
M  V30 25 1 18 26
M  V30 26 2 26 27
M  V30 27 1 27 28
M  V30 28 1 28 29
M  V30 29 2 13 30
M  V30 30 1 30 31
M  V30 31 2 31 32
M  V30 32 1 32 33
M  V30 33 2 33 34
M  V30 34 1 33 35
M  V30 35 2 9 5
M  V30 36 1 32 11
M  V30 37 1 27 15
M  V30 38 1 25 19
M  V30 39 1 1 36
M  V30 40 1 1 37
M  V30 41 1 1 38
M  V30 42 1 6 39
M  V30 43 1 7 40
M  V30 44 1 10 41
M  V30 45 1 14 42
M  V30 46 1 16 43
M  V30 47 1 17 44
M  V30 48 1 20 45
M  V30 49 1 20 46
M  V30 50 1 21 47
M  V30 51 1 21 48
M  V30 52 1 23 49
M  V30 53 1 23 50
M  V30 54 1 23 51
M  V30 55 1 24 52
M  V30 56 1 24 53
M  V30 57 1 25 54
M  V30 58 1 25 55
M  V30 59 1 26 56
M  V30 60 1 29 57
M  V30 61 1 29 58
M  V30 62 1 29 59
M  V30 63 1 31 60
M  V30 END BOND
M  V30 END CTAB
M  END
>  <Dataset>  (618) 
ChEMBL_Kinases

>  <Ligand_Instance>  (618) 
nan

>  <PDB_ID>  (618) 
nan

>  <Standardized_SMILES>  (618) 
COC(=O)c1ccsc1Nc1nc(Nc2ccc(N3CCN(C)CC3)cc2OC)ncc1[N+](=O)[O-]

>  <Name>  (618) 
nan

>  <Pocket>  (618) 
nan

>  <ATP_Site>  (618) 
nan

>  <Peripheral>  (618) 
nan

>  <Num_H_Atoms_ProtBoundConf>  (618) 
nan

>  <Num_Resolved_Atoms>  (618) 
nan

>  <Num_Not_Resolved_Atoms>  (618) 
nan

$$$$
CHEMBL419296
     RDKit          3D

  0  0  0  0  0  0  0  0  0  0999 V3000
M  V30 BEGIN CTAB
M  V30 COUNTS 54 57 0 0 0
M  V30 BEGIN ATOM
M  V30 1 C 0.402625 -2.698525 0.746824 0
M  V30 2 C 1.418711 -1.996990 0.108326 0
M  V30 3 C 1.282342 -0.615784 -0.030196 0
M  V30 4 C 2.373279 0.119555 -0.713589 0
M  V30 5 N 3.407297 0.589760 0.152306 0
M  V30 6 C 2.984111 1.500162 1.168029 0
M  V30 7 C 4.173163 1.884796 2.017012 0
M  V30 8 C 4.811114 0.711466 2.705441 0
M  V30 9 C 4.217067 -0.554301 2.114161 0
M  V30 10 C 4.341197 -0.400305 0.596198 0
M  V30 11 C 0.185239 0.045132 0.443624 0
M  V30 12 C -0.822334 -0.621433 1.072335 0
M  V30 13 O -1.991405 -0.149380 1.612538 0
M  V30 14 C -2.442238 1.165261 1.649261 0
M  V30 15 C -3.770422 1.211830 2.339043 0
M  V30 16 C -4.862157 0.474412 1.672469 0
M  V30 17 N -4.727159 -0.911163 1.424728 0
M  V30 18 C -4.056621 -1.517249 0.300347 0
M  V30 19 N -3.490412 -1.368882 -0.710443 0
M  V30 20 C -2.980972 -2.257651 -1.527280 0
M  V30 21 C -2.319553 -2.000367 -2.716157 0
M  V30 22 C -1.845229 -3.053387 -3.457090 0
M  V30 23 C -1.970116 -4.384190 -3.116731 0
M  V30 24 C -2.623431 -4.673915 -1.939042 0
M  V30 25 C -3.097927 -3.579868 -1.201698 0
M  V30 26 S -4.004217 -3.415635 0.379701 0
M  V30 27 C -0.709112 -2.004690 1.223411 0
M  V30 28 H 0.519876 -3.769196 0.848410 0
M  V30 29 H 2.272719 -2.557061 -0.253521 0
M  V30 30 H 1.937887 0.976570 -1.273515 0
M  V30 31 H 2.852852 -0.577564 -1.450210 0
M  V30 32 H 2.124367 1.156343 1.772723 0
M  V30 33 H 2.649589 2.428543 0.660978 0
M  V30 34 H 3.863955 2.606188 2.798637 0
M  V30 35 H 4.893608 2.375030 1.311704 0
M  V30 36 H 5.899261 0.683166 2.431367 0
M  V30 37 H 4.704362 0.734813 3.813770 0
M  V30 38 H 3.128426 -0.642308 2.379971 0
M  V30 39 H 4.748219 -1.474603 2.448884 0
M  V30 40 H 5.374352 0.031550 0.451925 0
M  V30 41 H 4.321564 -1.350394 0.068262 0
M  V30 42 H 0.038071 1.099793 0.360469 0
M  V30 43 H -1.680470 1.809090 2.140941 0
M  V30 44 H -2.606123 1.599118 0.629491 0
M  V30 45 H -3.577767 0.818304 3.380285 0
M  V30 46 H -4.111688 2.271874 2.462888 0
M  V30 47 H -5.049530 1.023983 0.688830 0
M  V30 48 H -5.803996 0.689409 2.254219 0
M  V30 49 H -5.186962 -1.481808 2.186250 0
M  V30 50 H -2.118854 -1.032714 -3.157573 0
M  V30 51 H -1.311458 -2.907722 -4.411533 0
M  V30 52 H -1.617402 -5.246750 -3.659525 0
M  V30 53 H -2.830179 -5.632820 -1.487647 0
M  V30 54 H -1.426560 -2.652942 1.698697 0
M  V30 END ATOM
M  V30 BEGIN BOND
M  V30 1 2 1 2
M  V30 2 1 2 3
M  V30 3 1 3 4
M  V30 4 1 4 5
M  V30 5 1 5 6
M  V30 6 1 6 7
M  V30 7 1 7 8
M  V30 8 1 8 9
M  V30 9 1 9 10
M  V30 10 2 3 11
M  V30 11 1 11 12
M  V30 12 1 12 13
M  V30 13 1 13 14
M  V30 14 1 14 15
M  V30 15 1 15 16
M  V30 16 1 16 17
M  V30 17 1 17 18
M  V30 18 2 18 19
M  V30 19 1 19 20
M  V30 20 2 20 21
M  V30 21 1 21 22
M  V30 22 2 22 23
M  V30 23 1 23 24
M  V30 24 2 24 25
M  V30 25 1 25 26
M  V30 26 2 12 27
M  V30 27 1 27 1
M  V30 28 1 10 5
M  V30 29 1 26 18
M  V30 30 1 25 20
M  V30 31 1 1 28
M  V30 32 1 2 29
M  V30 33 1 4 30
M  V30 34 1 4 31
M  V30 35 1 6 32
M  V30 36 1 6 33
M  V30 37 1 7 34
M  V30 38 1 7 35
M  V30 39 1 8 36
M  V30 40 1 8 37
M  V30 41 1 9 38
M  V30 42 1 9 39
M  V30 43 1 10 40
M  V30 44 1 10 41
M  V30 45 1 11 42
M  V30 46 1 14 43
M  V30 47 1 14 44
M  V30 48 1 15 45
M  V30 49 1 15 46
M  V30 50 1 16 47
M  V30 51 1 16 48
M  V30 52 1 17 49
M  V30 53 1 21 50
M  V30 54 1 22 51
M  V30 55 1 23 52
M  V30 56 1 24 53
M  V30 57 1 27 54
M  V30 END BOND
M  V30 END CTAB
M  END
>  <Dataset>  (619) 
ChEMBL_Kinases

>  <Ligand_Instance>  (619) 
nan

>  <PDB_ID>  (619) 
nan

>  <Standardized_SMILES>  (619) 
c1cc(CN2CCCCC2)cc(OCCCNc2nc3ccccc3s2)c1

>  <Name>  (619) 
ZOLANTIDINE

>  <Pocket>  (619) 
nan

>  <ATP_Site>  (619) 
nan

>  <Peripheral>  (619) 
nan

>  <Num_H_Atoms_ProtBoundConf>  (619) 
nan

>  <Num_Resolved_Atoms>  (619) 
nan

>  <Num_Not_Resolved_Atoms>  (619) 
nan

$$$$
CHEMBL4783892
     RDKit          3D

  0  0  0  0  0  0  0  0  0  0999 V3000
M  V30 BEGIN CTAB
M  V30 COUNTS 41 44 0 0 0
M  V30 BEGIN ATOM
M  V30 1 C 2.496767 -6.968015 2.034051 0
M  V30 2 O 1.276412 -6.354490 1.745600 0
M  V30 3 C 1.109659 -5.258260 0.908616 0
M  V30 4 C 2.180984 -4.688784 0.288563 0
M  V30 5 C 1.950383 -3.591477 -0.538613 0
M  V30 6 C 0.681342 -3.044254 -0.766305 0
M  V30 7 C 0.630917 -1.862982 -1.688511 0
M  V30 8 N 0.800617 -0.624579 -0.932302 0
M  V30 9 C 2.075173 -0.166323 -0.754609 0
M  V30 10 N 2.354099 0.960554 -0.074584 0
M  V30 11 C 1.388179 1.722908 0.483886 0
M  V30 12 C 1.769671 2.851918 1.156106 0
M  V30 13 C 0.714275 3.589588 1.705977 0
M  V30 14 C -0.608870 3.168451 1.555378 0
M  V30 15 C -1.625075 4.018647 2.171232 0
M  V30 16 C -1.381893 4.736757 3.331196 0
M  V30 17 N -2.487946 5.442214 3.687327 0
M  V30 18 N -3.428219 5.181215 2.769821 0
M  V30 19 C -2.935411 4.327514 1.846143 0
M  V30 20 C -0.916823 2.013559 0.860959 0
M  V30 21 C 0.099542 1.263640 0.306737 0
M  V30 22 C -0.184062 0.116115 -0.385908 0
M  V30 23 O -1.342938 -0.307912 -0.551925 0
M  V30 24 C -0.379949 -3.646901 -0.121807 0
M  V30 25 C -0.140953 -4.733132 0.695245 0
M  V30 26 F -1.240163 -5.255839 1.281986 0
M  V30 27 H 3.234563 -6.940877 1.201709 0
M  V30 28 H 2.278656 -8.051275 2.190731 0
M  V30 29 H 2.946630 -6.617878 2.985425 0
M  V30 30 H 3.202413 -5.047675 0.407410 0
M  V30 31 H 2.809655 -3.160360 -1.016772 0
M  V30 32 H -0.363561 -1.842761 -2.203843 0
M  V30 33 H 1.455706 -1.931898 -2.403275 0
M  V30 34 H 2.886574 -0.746838 -1.186323 0
M  V30 35 H 2.807025 3.141274 1.247969 0
M  V30 36 H 0.948581 4.487156 2.246742 0
M  V30 37 H -0.439797 4.748384 3.896432 0
M  V30 38 H -4.390778 5.575444 2.768058 0
M  V30 39 H -3.395941 3.897363 0.968191 0
M  V30 40 H -1.945055 1.706809 0.756223 0
M  V30 41 H -1.337555 -3.203052 -0.317856 0
M  V30 END ATOM
M  V30 BEGIN BOND
M  V30 1 1 1 2
M  V30 2 1 2 3
M  V30 3 2 3 4
M  V30 4 1 4 5
M  V30 5 2 5 6
M  V30 6 1 6 7
M  V30 7 1 7 8
M  V30 8 1 8 9
M  V30 9 2 9 10
M  V30 10 1 10 11
M  V30 11 2 11 12
M  V30 12 1 12 13
M  V30 13 2 13 14
M  V30 14 1 14 15
M  V30 15 1 15 16
M  V30 16 2 16 17
M  V30 17 1 17 18
M  V30 18 1 18 19
M  V30 19 1 14 20
M  V30 20 2 20 21
M  V30 21 1 21 22
M  V30 22 2 22 23
M  V30 23 1 6 24
M  V30 24 2 24 25
M  V30 25 1 25 26
M  V30 26 1 25 3
M  V30 27 1 22 8
M  V30 28 1 21 11
M  V30 29 2 19 15
M  V30 30 1 1 27
M  V30 31 1 1 28
M  V30 32 1 1 29
M  V30 33 1 4 30
M  V30 34 1 5 31
M  V30 35 1 7 32
M  V30 36 1 7 33
M  V30 37 1 9 34
M  V30 38 1 12 35
M  V30 39 1 13 36
M  V30 40 1 16 37
M  V30 41 1 18 38
M  V30 42 1 19 39
M  V30 43 1 20 40
M  V30 44 1 24 41
M  V30 END BOND
M  V30 END CTAB
M  END
>  <Dataset>  (620) 
ChEMBL_Kinases

>  <Ligand_Instance>  (620) 
nan

>  <PDB_ID>  (620) 
nan

>  <Standardized_SMILES>  (620) 
COc1ccc(Cn2cnc3ccc(-c4cn[nH]c4)cc3c2=O)cc1F

>  <Name>  (620) 
nan

>  <Pocket>  (620) 
nan

>  <ATP_Site>  (620) 
nan

>  <Peripheral>  (620) 
nan

>  <Num_H_Atoms_ProtBoundConf>  (620) 
nan

>  <Num_Resolved_Atoms>  (620) 
nan

>  <Num_Not_Resolved_Atoms>  (620) 
nan

$$$$
CHEMBL4206797
     RDKit          3D

  0  0  0  0  0  0  0  0  0  0999 V3000
M  V30 BEGIN CTAB
M  V30 COUNTS 68 72 0 0 0
M  V30 BEGIN ATOM
M  V30 1 C 3.078682 -0.054474 5.731184 0
M  V30 2 C 3.449880 -1.066778 4.680581 0
M  V30 3 N 2.338618 -1.773302 4.123623 0
M  V30 4 C 1.463133 -0.977379 3.327971 0
M  V30 5 C 1.845287 -1.240072 1.866340 0
M  V30 6 N 3.290694 -1.319795 1.742453 0
M  V30 7 C 3.699996 -1.140659 0.395609 0
M  V30 8 C 3.117104 0.130220 -0.175606 0
M  V30 9 C 1.995914 -0.007244 -0.984954 0
M  V30 10 N 1.488367 1.171398 -1.379655 0
M  V30 11 C 1.991529 2.374864 -1.044205 0
M  V30 12 N 1.093269 3.304895 -1.698491 0
M  V30 13 C -0.197889 3.436408 -1.054617 0
M  V30 14 N -0.670231 4.352394 -0.159985 0
M  V30 15 C -1.931024 4.265682 0.307922 0
M  V30 16 N -2.827440 3.297296 -0.046791 0
M  V30 17 C -2.408687 2.357439 -0.934325 0
M  V30 18 C -3.371039 1.315497 -1.325820 0
M  V30 19 C -4.674512 1.479302 -1.762968 0
M  V30 20 C -5.462328 0.405988 -2.066290 0
M  V30 21 F -6.729023 0.621708 -2.490166 0
M  V30 22 C -4.935052 -0.873967 -1.928536 0
M  V30 23 N -5.492340 -2.074539 -2.158884 0
M  V30 24 C -4.565876 -3.005094 -1.874144 0
M  V30 25 C -4.814993 -4.461408 -2.010991 0
M  V30 26 N -3.393333 -2.438238 -1.456079 0
M  V30 27 C -2.204539 -3.116415 -1.057536 0
M  V30 28 C -0.990731 -2.870971 -1.890445 0
M  V30 29 C -1.863882 -2.941162 0.409083 0
M  V30 30 C -3.653402 -1.126729 -1.501415 0
M  V30 31 C -2.905102 0.009315 -1.210155 0
M  V30 32 C -1.105515 2.432320 -1.429504 0
M  V30 33 F -0.889268 1.418963 -2.304223 0
M  V30 34 C 3.108385 2.463219 -0.238840 0
M  V30 35 N 3.654525 1.309387 0.183465 0
M  V30 36 C 3.615584 -2.664912 2.229725 0
M  V30 37 C 2.793100 -2.974996 3.470720 0
M  V30 38 H 3.926894 0.028216 6.457010 0
M  V30 39 H 2.176580 -0.338686 6.320223 0
M  V30 40 H 2.973841 0.971176 5.266931 0
M  V30 41 H 4.090748 -1.830248 5.193091 0
M  V30 42 H 3.989346 -0.570982 3.856986 0
M  V30 43 H 0.408251 -1.248671 3.435039 0
M  V30 44 H 1.642637 0.112558 3.461081 0
M  V30 45 H 1.473996 -0.406284 1.241235 0
M  V30 46 H 1.430442 -2.205641 1.495740 0
M  V30 47 H 3.312068 -2.015668 -0.208051 0
M  V30 48 H 4.785778 -1.127956 0.218935 0
M  V30 49 H 1.644376 -1.001763 -1.213846 0
M  V30 50 H 1.203332 3.896820 -2.545784 0
M  V30 51 H -2.180918 5.047919 1.011673 0
M  V30 52 H -4.978952 2.519604 -1.834295 0
M  V30 53 H -5.890555 -4.648711 -1.830708 0
M  V30 54 H -4.628765 -4.825213 -3.062848 0
M  V30 55 H -4.259001 -5.059668 -1.276852 0
M  V30 56 H -2.412547 -4.230788 -1.149641 0
M  V30 57 H -1.137867 -3.073055 -2.964331 0
M  V30 58 H -0.528076 -1.884056 -1.794630 0
M  V30 59 H -0.221447 -3.625948 -1.555061 0
M  V30 60 H -2.663381 -3.405048 1.052032 0
M  V30 61 H -0.920646 -3.474732 0.596233 0
M  V30 62 H -1.777649 -1.911227 0.746822 0
M  V30 63 H -1.892369 -0.164087 -0.868674 0
M  V30 64 H 3.340465 3.499526 -0.098499 0
M  V30 65 H 4.686745 -2.686932 2.425430 0
M  V30 66 H 3.263193 -3.376210 1.445252 0
M  V30 67 H 1.953314 -3.664017 3.233725 0
M  V30 68 H 3.435083 -3.499254 4.196500 0
M  V30 END ATOM
M  V30 BEGIN BOND
M  V30 1 1 1 2
M  V30 2 1 2 3
M  V30 3 1 3 4
M  V30 4 1 4 5
M  V30 5 1 5 6
M  V30 6 1 6 7
M  V30 7 1 7 8
M  V30 8 2 8 9
M  V30 9 1 9 10
M  V30 10 2 10 11
M  V30 11 1 11 12
M  V30 12 1 12 13
M  V30 13 2 13 14
M  V30 14 1 14 15
M  V30 15 2 15 16
M  V30 16 1 16 17
M  V30 17 1 17 18
M  V30 18 2 18 19
M  V30 19 1 19 20
M  V30 20 1 20 21
M  V30 21 2 20 22
M  V30 22 1 22 23
M  V30 23 2 23 24
M  V30 24 1 24 25
M  V30 25 1 24 26
M  V30 26 1 26 27
M  V30 27 1 27 28
M  V30 28 1 27 29
M  V30 29 1 26 30
M  V30 30 2 30 31
M  V30 31 2 17 32
M  V30 32 1 32 33
M  V30 33 1 11 34
M  V30 34 2 34 35
M  V30 35 1 6 36
M  V30 36 1 36 37
M  V30 37 1 37 3
M  V30 38 1 35 8
M  V30 39 1 32 13
M  V30 40 1 31 18
M  V30 41 1 30 22
M  V30 42 1 1 38
M  V30 43 1 1 39
M  V30 44 1 1 40
M  V30 45 1 2 41
M  V30 46 1 2 42
M  V30 47 1 4 43
M  V30 48 1 4 44
M  V30 49 1 5 45
M  V30 50 1 5 46
M  V30 51 1 7 47
M  V30 52 1 7 48
M  V30 53 1 9 49
M  V30 54 1 12 50
M  V30 55 1 15 51
M  V30 56 1 19 52
M  V30 57 1 25 53
M  V30 58 1 25 54
M  V30 59 1 25 55
M  V30 60 1 27 56
M  V30 61 1 28 57
M  V30 62 1 28 58
M  V30 63 1 28 59
M  V30 64 1 29 60
M  V30 65 1 29 61
M  V30 66 1 29 62
M  V30 67 1 31 63
M  V30 68 1 34 64
M  V30 69 1 36 65
M  V30 70 1 36 66
M  V30 71 1 37 67
M  V30 72 1 37 68
M  V30 END BOND
M  V30 END CTAB
M  END
>  <Dataset>  (621) 
ChEMBL_Kinases

>  <Ligand_Instance>  (621) 
nan

>  <PDB_ID>  (621) 
nan

>  <Standardized_SMILES>  (621) 
CCN1CCN(Cc2cnc(Nc3ncnc(-c4cc(F)c5nc(C)n(C(C)C)c5c4)c3F)cn2)CC1

>  <Name>  (621) 
nan

>  <Pocket>  (621) 
nan

>  <ATP_Site>  (621) 
nan

>  <Peripheral>  (621) 
nan

>  <Num_H_Atoms_ProtBoundConf>  (621) 
nan

>  <Num_Resolved_Atoms>  (621) 
nan

>  <Num_Not_Resolved_Atoms>  (621) 
nan

$$$$
CHEMBL4206793
     RDKit          3D

  0  0  0  0  0  0  0  0  0  0999 V3000
M  V30 BEGIN CTAB
M  V30 COUNTS 37 40 0 0 0
M  V30 BEGIN ATOM
M  V30 1 C 0.529546 -5.660503 3.753740 0
M  V30 2 C 1.106465 -4.291495 3.565137 0
M  V30 3 C 2.038978 -3.611915 4.335069 0
M  V30 4 C 2.416714 -2.344936 3.953876 0
M  V30 5 C 1.863821 -1.776720 2.819332 0
M  V30 6 C 0.934639 -2.458737 2.056030 0
M  V30 7 C 0.384525 -1.835306 0.857942 0
M  V30 8 N 0.787279 -0.567766 0.527624 0
M  V30 9 C 0.282023 0.000309 -0.607051 0
M  V30 10 N 0.781355 1.295883 -0.831484 0
M  V30 11 C 0.382440 2.647304 -0.690192 0
M  V30 12 C -0.927148 3.074298 -0.660146 0
M  V30 13 C -1.297855 4.385642 -0.504573 0
M  V30 14 N -0.293346 5.280000 -0.377445 0
M  V30 15 C 1.022231 4.916559 -0.400210 0
M  V30 16 C 1.381039 3.599648 -0.556239 0
M  V30 17 C -0.611896 -0.710655 -1.380552 0
M  V30 18 C -1.207700 -0.257034 -2.559464 0
M  V30 19 C -2.010110 -1.306272 -2.955939 0
M  V30 20 C -1.871489 -2.313687 -2.031917 0
M  V30 21 N -1.011007 -1.972957 -1.044598 0
M  V30 22 N -0.481497 -2.455955 0.062814 0
M  V30 23 N 0.605375 -3.682022 2.471864 0
M  V30 24 H -0.576167 -5.661384 3.621046 0
M  V30 25 H 0.799681 -6.102224 4.743020 0
M  V30 26 H 0.971717 -6.355150 3.007891 0
M  V30 27 H 2.378064 -4.203809 5.199400 0
M  V30 28 H 3.146067 -1.870841 4.597539 0
M  V30 29 H 2.216804 -0.786917 2.604264 0
M  V30 30 H 1.740163 1.104372 -1.232278 0
M  V30 31 H -1.719065 2.341249 -0.765479 0
M  V30 32 H -2.352918 4.704371 -0.485365 0
M  V30 33 H 1.808354 5.652299 -0.294081 0
M  V30 34 H 2.438165 3.355762 -0.566475 0
M  V30 35 H -1.107633 0.667971 -3.082401 0
M  V30 36 H -2.662335 -1.440081 -3.800576 0
M  V30 37 H -2.287631 -3.315727 -1.907151 0
M  V30 END ATOM
M  V30 BEGIN BOND
M  V30 1 1 1 2
M  V30 2 2 2 3
M  V30 3 1 3 4
M  V30 4 2 4 5
M  V30 5 1 5 6
M  V30 6 1 6 7
M  V30 7 1 7 8
M  V30 8 2 8 9
M  V30 9 1 9 10
M  V30 10 1 10 11
M  V30 11 2 11 12
M  V30 12 1 12 13
M  V30 13 2 13 14
M  V30 14 1 14 15
M  V30 15 2 15 16
M  V30 16 1 9 17
M  V30 17 2 17 18
M  V30 18 1 18 19
M  V30 19 2 19 20
M  V30 20 1 20 21
M  V30 21 1 21 22
M  V30 22 2 6 23
M  V30 23 1 23 2
M  V30 24 2 22 7
M  V30 25 1 16 11
M  V30 26 1 21 17
M  V30 27 1 1 24
M  V30 28 1 1 25
M  V30 29 1 1 26
M  V30 30 1 3 27
M  V30 31 1 4 28
M  V30 32 1 5 29
M  V30 33 1 10 30
M  V30 34 1 12 31
M  V30 35 1 13 32
M  V30 36 1 15 33
M  V30 37 1 16 34
M  V30 38 1 18 35
M  V30 39 1 19 36
M  V30 40 1 20 37
M  V30 END BOND
M  V30 END CTAB
M  END
>  <Dataset>  (622) 
ChEMBL_Kinases

>  <Ligand_Instance>  (622) 
nan

>  <PDB_ID>  (622) 
nan

>  <Standardized_SMILES>  (622) 
Cc1cccc(-c2nc(Nc3ccncc3)c3cccn3n2)n1

>  <Name>  (622) 
nan

>  <Pocket>  (622) 
nan

>  <ATP_Site>  (622) 
nan

>  <Peripheral>  (622) 
nan

>  <Num_H_Atoms_ProtBoundConf>  (622) 
nan

>  <Num_Resolved_Atoms>  (622) 
nan

>  <Num_Not_Resolved_Atoms>  (622) 
nan

$$$$
CHEMBL4206737
     RDKit          3D

  0  0  0  0  0  0  0  0  0  0999 V3000
M  V30 BEGIN CTAB
M  V30 COUNTS 65 69 0 0 0
M  V30 BEGIN ATOM
M  V30 1 O 0.270207 -3.598442 6.223147 0
M  V30 2 C 0.810205 -3.114038 5.181612 0
M  V30 3 C 1.685198 -3.756711 4.192958 0
M  V30 4 N 2.119407 -2.890112 3.120333 0
M  V30 5 C 3.270529 -2.019298 2.966229 0
M  V30 6 C 3.109645 -1.422577 1.633853 0
M  V30 7 C 3.902638 -0.514920 0.947744 0
M  V30 8 C 3.560571 -0.078877 -0.315601 0
M  V30 9 C 2.413539 -0.532498 -0.942190 0
M  V30 10 C 1.947271 -0.147024 -2.270687 0
M  V30 11 N 0.633912 0.161495 -2.456051 0
M  V30 12 C 0.163571 0.522401 -3.668447 0
M  V30 13 N -1.205149 0.849442 -3.886209 0
M  V30 14 C -1.768228 1.237907 -5.139264 0
M  V30 15 C -3.260489 1.521362 -5.037652 0
M  V30 16 C -4.049523 0.282703 -4.698509 0
M  V30 17 O -3.163082 -0.792856 -4.705087 0
M  V30 18 C -2.535130 -0.922691 -5.938126 0
M  V30 19 C -1.606056 0.208380 -6.233515 0
M  V30 20 N 1.045118 0.564293 -4.683634 0
M  V30 21 C 2.346897 0.264831 -4.529072 0
M  V30 22 C 2.827326 -0.100012 -3.307857 0
M  V30 23 Cl 4.527268 -0.482874 -3.144296 0
M  V30 24 C 1.605796 -1.438607 -0.278084 0
M  V30 25 C 1.963454 -1.869818 0.996292 0
M  V30 26 C 1.311953 -2.814122 1.934200 0
M  V30 27 O 0.219422 -3.410866 1.647465 0
M  V30 28 N 0.509611 -1.734860 4.954031 0
M  V30 29 C -0.332493 -0.914739 5.805582 0 CFG=1
M  V30 30 C 0.397007 0.235520 6.444623 0
M  V30 31 O -0.479700 0.973319 7.244813 0
M  V30 32 C -1.517550 -0.488653 5.043005 0
M  V30 33 C -2.790723 -0.547693 5.596790 0
M  V30 34 C -3.913243 -0.144897 4.876717 0
M  V30 35 C -3.763135 0.325512 3.580216 0
M  V30 36 C -2.520897 0.404467 2.983177 0
M  V30 37 C -1.460700 -0.007703 3.747612 0
M  V30 38 H 1.296989 -4.730316 3.820354 0
M  V30 39 H 2.634373 -4.029875 4.740272 0
M  V30 40 H 4.164275 -2.667004 3.074609 0
M  V30 41 H 3.255516 -1.299422 3.802844 0
M  V30 42 H 4.808932 -0.129239 1.391476 0
M  V30 43 H 4.159861 0.631039 -0.879478 0
M  V30 44 H -1.843225 0.799655 -3.060599 0
M  V30 45 H -1.296567 2.188682 -5.465044 0
M  V30 46 H -3.650638 1.960438 -5.956306 0
M  V30 47 H -3.378450 2.278648 -4.227538 0
M  V30 48 H -4.872093 0.159019 -5.400594 0
M  V30 49 H -4.434680 0.370569 -3.663342 0
M  V30 50 H -1.996321 -1.874866 -5.993825 0
M  V30 51 H -3.353788 -0.929204 -6.698171 0
M  V30 52 H -0.572522 -0.157033 -6.272907 0
M  V30 53 H -1.802297 0.697354 -7.209646 0
M  V30 54 H 2.951887 0.340163 -5.438746 0
M  V30 55 H 0.681566 -1.831759 -0.730989 0
M  V30 56 H 0.880466 -1.197334 4.139269 0
M  V30 57 H -0.673412 -1.596392 6.639065 0
M  V30 58 H 1.162031 -0.166055 7.137527 0
M  V30 59 H 0.879299 0.838005 5.676005 0
M  V30 60 H -0.605613 0.560848 8.131851 0
M  V30 61 H -2.950428 -0.908861 6.605952 0
M  V30 62 H -4.912358 -0.193343 5.317090 0
M  V30 63 H -4.623866 0.647157 2.994171 0
M  V30 64 H -2.388687 0.768003 1.976086 0
M  V30 65 H -0.475762 0.056576 3.269283 0
M  V30 END ATOM
M  V30 BEGIN BOND
M  V30 1 2 1 2
M  V30 2 1 2 3
M  V30 3 1 3 4
M  V30 4 1 4 5
M  V30 5 1 5 6
M  V30 6 2 6 7
M  V30 7 1 7 8
M  V30 8 2 8 9
M  V30 9 1 9 10
M  V30 10 2 10 11
M  V30 11 1 11 12
M  V30 12 1 12 13
M  V30 13 1 13 14
M  V30 14 1 14 15
M  V30 15 1 15 16
M  V30 16 1 16 17
M  V30 17 1 17 18
M  V30 18 1 18 19
M  V30 19 2 12 20
M  V30 20 1 20 21
M  V30 21 2 21 22
M  V30 22 1 22 23
M  V30 23 1 9 24
M  V30 24 2 24 25
M  V30 25 1 25 26
M  V30 26 2 26 27
M  V30 27 1 2 28
M  V30 28 1 28 29
M  V30 29 1 29 30
M  V30 30 1 30 31
M  V30 31 1 29 32
M  V30 32 2 32 33
M  V30 33 1 33 34
M  V30 34 2 34 35
M  V30 35 1 35 36
M  V30 36 2 36 37
M  V30 37 1 26 4
M  V30 38 1 37 32
M  V30 39 1 25 6
M  V30 40 1 22 10
M  V30 41 1 19 14
M  V30 42 1 3 38
M  V30 43 1 3 39
M  V30 44 1 5 40
M  V30 45 1 5 41
M  V30 46 1 7 42
M  V30 47 1 8 43
M  V30 48 1 13 44
M  V30 49 1 14 45
M  V30 50 1 15 46
M  V30 51 1 15 47
M  V30 52 1 16 48
M  V30 53 1 16 49
M  V30 54 1 18 50
M  V30 55 1 18 51
M  V30 56 1 19 52
M  V30 57 1 19 53
M  V30 58 1 21 54
M  V30 59 1 24 55
M  V30 60 1 28 56
M  V30 61 1 29 57 CFG=1
M  V30 62 1 30 58
M  V30 63 1 30 59
M  V30 64 1 31 60
M  V30 65 1 33 61
M  V30 66 1 34 62
M  V30 67 1 35 63
M  V30 68 1 36 64
M  V30 69 1 37 65
M  V30 END BOND
M  V30 END CTAB
M  END
>  <Dataset>  (623) 
ChEMBL_Kinases

>  <Ligand_Instance>  (623) 
nan

>  <PDB_ID>  (623) 
nan

>  <Standardized_SMILES>  (623) 
O=C(CN1Cc2ccc(-c3nc(NC4CCOCC4)ncc3Cl)cc2C1=O)N[C@@H](CO)c1ccccc1

>  <Name>  (623) 
nan

>  <Pocket>  (623) 
nan

>  <ATP_Site>  (623) 
nan

>  <Peripheral>  (623) 
nan

>  <Num_H_Atoms_ProtBoundConf>  (623) 
nan

>  <Num_Resolved_Atoms>  (623) 
nan

>  <Num_Not_Resolved_Atoms>  (623) 
nan

$$$$
CHEMBL4206693
     RDKit          3D

  0  0  0  0  0  0  0  0  0  0999 V3000
M  V30 BEGIN CTAB
M  V30 COUNTS 67 71 0 0 0
M  V30 BEGIN ATOM
M  V30 1 C 4.225344 -1.487828 2.070652 0
M  V30 2 C 4.854860 -1.015370 0.763376 0
M  V30 3 C 5.184566 -2.257843 -0.022813 0
M  V30 4 N 3.968013 -0.156925 0.006738 0
M  V30 5 C 4.221879 0.471191 -1.266440 0
M  V30 6 O 5.373520 0.194067 -1.711980 0
M  V30 7 C 3.163860 1.322455 -1.874314 0
M  V30 8 N 1.996117 1.366575 -1.018697 0
M  V30 9 C 1.717759 2.315623 0.042328 0
M  V30 10 C 0.387367 1.845135 0.541613 0
M  V30 11 C -0.369994 2.381800 1.560513 0
M  V30 12 C -1.586398 1.831458 1.907282 0
M  V30 13 C -2.059231 0.727131 1.228960 0
M  V30 14 C -3.306737 -0.001190 1.435109 0
M  V30 15 N -4.111761 -0.391446 0.426277 0
M  V30 16 C -5.268004 -1.070860 0.678824 0
M  V30 17 N -6.129586 -1.490566 -0.371469 0
M  V30 18 C -7.346773 -2.208649 -0.064451 0
M  V30 19 C -8.069200 -2.531753 -1.357747 0
M  V30 20 C -7.553104 -3.802282 -1.976847 0
M  V30 21 O -6.213524 -4.018148 -1.660066 0
M  V30 22 C -5.994086 -4.267174 -0.320127 0
M  V30 23 C -7.007084 -3.549675 0.572006 0
M  V30 24 N -5.583244 -1.340756 1.959193 0
M  V30 25 C -4.804809 -0.965983 2.971765 0
M  V30 26 C -3.646795 -0.287935 2.753302 0
M  V30 27 Cl -2.706098 0.152161 4.158482 0
M  V30 28 C -1.292993 0.184618 0.198512 0
M  V30 29 C -0.062507 0.733560 -0.159363 0
M  V30 30 C 0.952135 0.405121 -1.167747 0
M  V30 31 O 0.855621 -0.540725 -1.964095 0
M  V30 32 C 6.085838 -0.287841 1.155602 0
M  V30 33 C 6.045286 1.084634 1.411015 0
M  V30 34 C 7.200148 1.757636 1.777152 0
M  V30 35 C 8.414901 1.105786 1.900990 0
M  V30 36 C 8.416376 -0.249907 1.640789 0
M  V30 37 C 7.284180 -0.947877 1.274505 0
M  V30 38 H 3.624714 -2.402705 1.915123 0
M  V30 39 H 5.050589 -1.753014 2.761709 0
M  V30 40 H 3.605411 -0.660866 2.518522 0
M  V30 41 H 5.659644 -2.995513 0.635048 0
M  V30 42 H 5.855351 -2.094095 -0.879667 0
M  V30 43 H 4.241324 -2.701240 -0.397895 0
M  V30 44 H 3.019965 0.031097 0.441829 0
M  V30 45 H 3.607038 2.323717 -2.070552 0
M  V30 46 H 2.942730 0.906639 -2.880837 0
M  V30 47 H 1.643382 3.356072 -0.358524 0
M  V30 48 H 2.485432 2.341083 0.818181 0
M  V30 49 H -0.031339 3.244964 2.112291 0
M  V30 50 H -2.243091 2.179953 2.683972 0
M  V30 51 H -5.867419 -1.272578 -1.343798 0
M  V30 52 H -8.012564 -1.673773 0.646452 0
M  V30 53 H -7.950266 -1.710228 -2.075387 0
M  V30 54 H -9.148667 -2.703317 -1.096730 0
M  V30 55 H -7.606713 -3.701238 -3.076210 0
M  V30 56 H -8.171211 -4.696252 -1.736722 0
M  V30 57 H -6.112167 -5.358607 -0.066914 0
M  V30 58 H -4.987430 -3.952169 -0.044919 0
M  V30 59 H -6.565335 -3.472388 1.563998 0
M  V30 60 H -7.953656 -4.120805 0.634499 0
M  V30 61 H -5.134118 -1.224757 3.977679 0
M  V30 62 H -1.569942 -0.674123 -0.392337 0
M  V30 63 H 5.110130 1.639686 1.325915 0
M  V30 64 H 7.185282 2.829284 1.980037 0
M  V30 65 H 9.338795 1.594197 2.184291 0
M  V30 66 H 9.372649 -0.779256 1.735166 0
M  V30 67 H 7.386404 -2.008206 1.091725 0
M  V30 END ATOM
M  V30 BEGIN BOND
M  V30 1 1 1 2
M  V30 2 1 2 3
M  V30 3 1 2 4
M  V30 4 1 4 5
M  V30 5 2 5 6
M  V30 6 1 5 7
M  V30 7 1 7 8
M  V30 8 1 8 9
M  V30 9 1 9 10
M  V30 10 2 10 11
M  V30 11 1 11 12
M  V30 12 2 12 13
M  V30 13 1 13 14
M  V30 14 2 14 15
M  V30 15 1 15 16
M  V30 16 1 16 17
M  V30 17 1 17 18
M  V30 18 1 18 19
M  V30 19 1 19 20
M  V30 20 1 20 21
M  V30 21 1 21 22
M  V30 22 1 22 23
M  V30 23 2 16 24
M  V30 24 1 24 25
M  V30 25 2 25 26
M  V30 26 1 26 27
M  V30 27 1 13 28
M  V30 28 2 28 29
M  V30 29 1 29 30
M  V30 30 2 30 31
M  V30 31 1 2 32
M  V30 32 2 32 33
M  V30 33 1 33 34
M  V30 34 2 34 35
M  V30 35 1 35 36
M  V30 36 2 36 37
M  V30 37 1 30 8
M  V30 38 1 37 32
M  V30 39 1 29 10
M  V30 40 1 26 14
M  V30 41 1 23 18
M  V30 42 1 1 38
M  V30 43 1 1 39
M  V30 44 1 1 40
M  V30 45 1 3 41
M  V30 46 1 3 42
M  V30 47 1 3 43
M  V30 48 1 4 44
M  V30 49 1 7 45
M  V30 50 1 7 46
M  V30 51 1 9 47
M  V30 52 1 9 48
M  V30 53 1 11 49
M  V30 54 1 12 50
M  V30 55 1 17 51
M  V30 56 1 18 52
M  V30 57 1 19 53
M  V30 58 1 19 54
M  V30 59 1 20 55
M  V30 60 1 20 56
M  V30 61 1 22 57
M  V30 62 1 22 58
M  V30 63 1 23 59
M  V30 64 1 23 60
M  V30 65 1 25 61
M  V30 66 1 28 62
M  V30 67 1 33 63
M  V30 68 1 34 64
M  V30 69 1 35 65
M  V30 70 1 36 66
M  V30 71 1 37 67
M  V30 END BOND
M  V30 END CTAB
M  END
>  <Dataset>  (624) 
ChEMBL_Kinases

>  <Ligand_Instance>  (624) 
nan

>  <PDB_ID>  (624) 
nan

>  <Standardized_SMILES>  (624) 
CC(C)(NC(=O)CN1Cc2ccc(-c3nc(NC4CCOCC4)ncc3Cl)cc2C1=O)c1ccccc1

>  <Name>  (624) 
nan

>  <Pocket>  (624) 
nan

>  <ATP_Site>  (624) 
nan

>  <Peripheral>  (624) 
nan

>  <Num_H_Atoms_ProtBoundConf>  (624) 
nan

>  <Num_Resolved_Atoms>  (624) 
nan

>  <Num_Not_Resolved_Atoms>  (624) 
nan

$$$$
CHEMBL4206684
     RDKit          3D

  0  0  0  0  0  0  0  0  0  0999 V3000
M  V30 BEGIN CTAB
M  V30 COUNTS 53 56 0 0 0
M  V30 BEGIN ATOM
M  V30 1 H 2.823278 -1.349049 3.530949 0 MASS=2
M  V30 2 C 3.630028 -1.647125 2.797826 0
M  V30 3 H 4.477202 -2.029652 3.421208 0 MASS=2
M  V30 4 O 3.114806 -2.727980 2.081577 0
M  V30 5 C 4.012977 -0.512932 1.927313 0
M  V30 6 C 5.271593 -0.383287 1.386931 0
M  V30 7 C 5.579734 0.688047 0.575833 0
M  V30 8 C 4.651386 1.671341 0.269183 0
M  V30 9 C 4.945260 2.831045 -0.591580 0
M  V30 10 C 3.360717 1.582521 0.794882 0
M  V30 11 N 2.328676 2.548799 0.512074 0
M  V30 12 C 1.077966 2.322574 1.160152 0
M  V30 13 N 0.517516 3.000654 2.178137 0
M  V30 14 C -0.678238 2.615739 2.674898 0
M  V30 15 C -1.308478 1.523980 2.122878 0
M  V30 16 C -0.752879 0.797126 1.064248 0
M  V30 17 C -1.367335 -0.374577 0.453887 0
M  V30 18 C -0.609097 -0.945662 -0.572788 0
M  V30 19 C -1.106222 -2.076644 -1.228065 0
M  V30 20 C -0.348767 -2.702120 -2.299293 0
M  V30 21 N 0.242155 -3.190726 -3.165099 0
M  V30 22 C -2.340164 -2.638554 -0.873201 0
M  V30 23 C -3.016878 -2.012665 0.147584 0
M  V30 24 C -2.578613 -0.893277 0.833031 0
M  V30 25 C -4.279633 -2.756278 0.358303 0 CFG=1
M  V30 26 C -4.662521 -2.815209 1.817597 0
M  V30 27 C -5.381129 -2.194590 -0.496771 0
M  V30 28 O -5.063623 -2.274838 -1.854312 0
M  V30 29 C -3.917943 -4.127957 -0.204113 0
M  V30 30 N -3.094484 -3.753521 -1.336739 0
M  V30 31 N 0.435685 1.251508 0.635718 0
M  V30 32 C 3.136432 0.478386 1.597269 0
M  V30 33 H 3.307848 -2.676154 1.105957 0
M  V30 34 H 6.041394 -1.120914 1.590844 0
M  V30 35 H 6.595113 0.763780 0.160366 0
M  V30 36 H 4.312902 2.793593 -1.496957 0
M  V30 37 H 6.013228 2.875803 -0.891012 0
M  V30 38 H 4.661485 3.780094 -0.061385 0
M  V30 39 H 2.628664 3.318968 -0.152452 0
M  V30 40 H -1.102697 3.180276 3.492180 0
M  V30 41 H -2.272098 1.190520 2.504267 0
M  V30 42 H 0.361435 -0.573472 -0.913036 0
M  V30 43 H -3.136254 -0.426782 1.630820 0
M  V30 44 H -5.765435 -2.795178 1.916073 0
M  V30 45 H -4.305989 -1.927597 2.402968 0
M  V30 46 H -4.199404 -3.716390 2.276555 0
M  V30 47 H -6.316768 -2.755474 -0.266864 0
M  V30 48 H -5.507082 -1.106607 -0.272051 0
M  V30 49 H -5.817916 -2.654933 -2.379482 0
M  V30 50 H -3.369617 -4.724795 0.556260 0
M  V30 51 H -4.838928 -4.629419 -0.558047 0
M  V30 52 H -2.935629 -4.080279 -2.334889 0
M  V30 53 H 2.132406 0.365901 2.037969 0
M  V30 END ATOM
M  V30 BEGIN BOND
M  V30 1 1 1 2
M  V30 2 1 2 3
M  V30 3 1 2 4
M  V30 4 1 2 5
M  V30 5 2 5 6
M  V30 6 1 6 7
M  V30 7 2 7 8
M  V30 8 1 8 9
M  V30 9 1 8 10
M  V30 10 1 10 11
M  V30 11 1 11 12
M  V30 12 2 12 13
M  V30 13 1 13 14
M  V30 14 2 14 15
M  V30 15 1 15 16
M  V30 16 1 16 17
M  V30 17 2 17 18
M  V30 18 1 18 19
M  V30 19 1 19 20
M  V30 20 3 20 21
M  V30 21 2 19 22
M  V30 22 1 22 23
M  V30 23 2 23 24
M  V30 24 1 23 25
M  V30 25 1 25 26 CFG=1
M  V30 26 1 25 27
M  V30 27 1 27 28
M  V30 28 1 25 29
M  V30 29 1 29 30
M  V30 30 2 16 31
M  V30 31 2 10 32
M  V30 32 1 32 5
M  V30 33 1 31 12
M  V30 34 1 24 17
M  V30 35 1 30 22
M  V30 36 1 4 33
M  V30 37 1 6 34
M  V30 38 1 7 35
M  V30 39 1 9 36
M  V30 40 1 9 37
M  V30 41 1 9 38
M  V30 42 1 11 39
M  V30 43 1 14 40
M  V30 44 1 15 41
M  V30 45 1 18 42
M  V30 46 1 24 43
M  V30 47 1 26 44
M  V30 48 1 26 45
M  V30 49 1 26 46
M  V30 50 1 27 47
M  V30 51 1 27 48
M  V30 52 1 28 49
M  V30 53 1 29 50
M  V30 54 1 29 51
M  V30 55 1 30 52
M  V30 56 1 32 53
M  V30 END BOND
M  V30 END CTAB
M  END
>  <Dataset>  (625) 
ChEMBL_Kinases

>  <Ligand_Instance>  (625) 
nan

>  <PDB_ID>  (625) 
nan

>  <Standardized_SMILES>  (625) 
[2H]C([2H])(O)c1ccc(C)c(Nc2nccc(-c3cc(C#N)c4c(c3)[C@@](C)(CO)CN4)n2)c1

>  <Name>  (625) 
nan

>  <Pocket>  (625) 
nan

>  <ATP_Site>  (625) 
nan

>  <Peripheral>  (625) 
nan

>  <Num_H_Atoms_ProtBoundConf>  (625) 
nan

>  <Num_Resolved_Atoms>  (625) 
nan

>  <Num_Not_Resolved_Atoms>  (625) 
nan

$$$$
CHEMBL4206671
     RDKit          3D

  0  0  0  0  0  0  0  0  0  0999 V3000
M  V30 BEGIN CTAB
M  V30 COUNTS 46 49 0 0 0
M  V30 BEGIN ATOM
M  V30 1 C 2.772915 -4.210753 1.733342 0
M  V30 2 N 3.209869 -3.900517 0.373650 0
M  V30 3 C 2.360462 -4.405613 -0.704254 0
M  V30 4 C 2.845739 -3.693360 -1.948973 0
M  V30 5 C 3.770986 -2.604231 -1.450454 0 CFG=1
M  V30 6 O 4.784977 -2.284852 -2.319769 0
M  V30 7 C 3.033596 -1.369786 -1.164416 0
M  V30 8 C 2.413072 -0.364115 -0.920367 0
M  V30 9 C 1.654178 0.820237 -0.622374 0
M  V30 10 C 2.016559 2.079236 -1.047310 0
M  V30 11 C 1.223399 3.158210 -0.711263 0
M  V30 12 C 0.073298 3.041989 0.036384 0
M  V30 13 C -0.328328 1.781947 0.486378 0
M  V30 14 N -1.488339 1.487948 1.267853 0
M  V30 15 C -1.204171 1.005479 2.499792 0
M  V30 16 C -2.410526 0.760892 3.155485 0
M  V30 17 C -2.761797 0.252329 4.469033 0
M  V30 18 N -1.637763 -0.074204 5.281134 0
M  V30 19 O -3.912577 0.077707 4.943938 0
M  V30 20 C -3.417100 1.112446 2.276287 0
M  V30 21 C -4.795297 1.129425 2.264486 0
M  V30 22 C -5.458390 1.576833 1.131267 0
M  V30 23 C -4.786365 2.013798 -0.005933 0
M  V30 24 N -3.423623 2.004894 -0.014509 0
M  V30 25 C -2.822584 1.560577 1.112206 0
M  V30 26 C 0.496437 0.723032 0.127174 0
M  V30 27 C 4.332835 -3.180692 -0.178070 0
M  V30 28 O 5.408028 -3.216296 0.491951 0
M  V30 29 H 3.370180 -3.682794 2.493773 0
M  V30 30 H 2.835503 -5.296738 1.943230 0
M  V30 31 H 1.734968 -3.836841 1.859169 0
M  V30 32 H 1.311866 -4.128383 -0.568659 0
M  V30 33 H 2.489491 -5.500394 -0.737483 0
M  V30 34 H 2.012936 -3.210206 -2.505200 0
M  V30 35 H 3.329298 -4.395519 -2.647621 0
M  V30 36 H 5.485551 -2.992190 -2.307445 0
M  V30 37 H 2.911561 2.163868 -1.628226 0
M  V30 38 H 1.506910 4.159051 -1.046173 0
M  V30 39 H -0.577303 3.851605 0.323708 0
M  V30 40 H -0.306443 0.776172 3.067718 0
M  V30 41 H -1.058107 0.292929 6.070647 0
M  V30 42 H -1.131997 -0.972074 5.126719 0
M  V30 43 H -5.314076 0.788054 3.152801 0
M  V30 44 H -6.539047 1.588069 1.127333 0
M  V30 45 H -5.337396 2.351854 -0.861064 0
M  V30 46 H 0.214912 -0.285490 0.462007 0
M  V30 END ATOM
M  V30 BEGIN BOND
M  V30 1 1 1 2
M  V30 2 1 2 3
M  V30 3 1 3 4
M  V30 4 1 4 5
M  V30 5 1 5 6
M  V30 6 1 5 7 CFG=1
M  V30 7 3 7 8
M  V30 8 1 8 9
M  V30 9 2 9 10
M  V30 10 1 10 11
M  V30 11 2 11 12
M  V30 12 1 12 13
M  V30 13 1 13 14
M  V30 14 1 14 15
M  V30 15 2 15 16
M  V30 16 1 16 17
M  V30 17 1 17 18
M  V30 18 2 17 19
M  V30 19 1 16 20
M  V30 20 2 20 21
M  V30 21 1 21 22
M  V30 22 2 22 23
M  V30 23 1 23 24
M  V30 24 2 24 25
M  V30 25 2 13 26
M  V30 26 1 5 27
M  V30 27 2 27 28
M  V30 28 1 27 2
M  V30 29 1 26 9
M  V30 30 1 25 14
M  V30 31 1 25 20
M  V30 32 1 1 29
M  V30 33 1 1 30
M  V30 34 1 1 31
M  V30 35 1 3 32
M  V30 36 1 3 33
M  V30 37 1 4 34
M  V30 38 1 4 35
M  V30 39 1 6 36
M  V30 40 1 10 37
M  V30 41 1 11 38
M  V30 42 1 12 39
M  V30 43 1 15 40
M  V30 44 1 18 41
M  V30 45 1 18 42
M  V30 46 1 21 43
M  V30 47 1 22 44
M  V30 48 1 23 45
M  V30 49 1 26 46
M  V30 END BOND
M  V30 END CTAB
M  END
>  <Dataset>  (626) 
ChEMBL_Kinases

>  <Ligand_Instance>  (626) 
nan

>  <PDB_ID>  (626) 
nan

>  <Standardized_SMILES>  (626) 
CN1CC[C@@](O)(C#Cc2cccc(-n3cc(C(N)=O)c4cccnc43)c2)C1=O

>  <Name>  (626) 
nan

>  <Pocket>  (626) 
nan

>  <ATP_Site>  (626) 
nan

>  <Peripheral>  (626) 
nan

>  <Num_H_Atoms_ProtBoundConf>  (626) 
nan

>  <Num_Resolved_Atoms>  (626) 
nan

>  <Num_Not_Resolved_Atoms>  (626) 
nan

$$$$
CHEMBL4206654
     RDKit          3D

  0  0  0  0  0  0  0  0  0  0999 V3000
M  V30 BEGIN CTAB
M  V30 COUNTS 32 34 0 0 0
M  V30 BEGIN ATOM
M  V30 1 O 2.555058 -3.487261 1.807278 0
M  V30 2 C 2.460160 -2.239558 1.552172 0
M  V30 3 N 3.641063 -1.433909 1.680312 0
M  V30 4 C 3.291566 -0.092066 1.347611 0
M  V30 5 C 3.962960 1.130126 1.277822 0
M  V30 6 C 3.294251 2.280823 0.905429 0
M  V30 7 C 1.938124 2.287423 0.584474 0
M  V30 8 F 1.400280 3.471817 0.236548 0
M  V30 9 C 1.252569 1.080611 0.648039 0
M  V30 10 C 1.954223 -0.044021 1.023342 0
M  V30 11 C 1.359794 -1.363306 1.129294 0
M  V30 12 N 0.241219 -1.952558 0.975175 0
M  V30 13 N -0.887780 -1.241598 0.576397 0
M  V30 14 C -1.207512 -1.083131 -0.852302 0
M  V30 15 C -2.493954 -1.847614 -1.055779 0
M  V30 16 C -3.075774 -2.388872 0.208216 0
M  V30 17 C -3.134654 -1.392807 1.323535 0
M  V30 18 C -1.855693 -0.598025 1.475342 0
M  V30 19 H 4.607104 -1.691037 1.956035 0
M  V30 20 H 5.011834 1.144545 1.522318 0
M  V30 21 H 3.913503 3.180384 0.883590 0
M  V30 22 H 0.214601 1.098194 0.400022 0
M  V30 23 H -0.388647 -1.440823 -1.488707 0
M  V30 24 H -1.358508 -0.001028 -1.035257 0
M  V30 25 H -3.261781 -1.235036 -1.567679 0
M  V30 26 H -2.250553 -2.714888 -1.708040 0
M  V30 27 H -4.153772 -2.628481 -0.031912 0
M  V30 28 H -2.574009 -3.334691 0.494155 0
M  V30 29 H -3.273248 -1.951320 2.294949 0
M  V30 30 H -3.982923 -0.694143 1.232806 0
M  V30 31 H -2.021602 0.442634 1.108437 0
M  V30 32 H -1.480014 -0.604682 2.503751 0
M  V30 END ATOM
M  V30 BEGIN BOND
M  V30 1 2 1 2
M  V30 2 1 2 3
M  V30 3 1 3 4
M  V30 4 2 4 5
M  V30 5 1 5 6
M  V30 6 2 6 7
M  V30 7 1 7 8
M  V30 8 1 7 9
M  V30 9 2 9 10
M  V30 10 1 10 11
M  V30 11 2 11 12 CFG=2
M  V30 12 1 12 13
M  V30 13 1 13 14
M  V30 14 1 14 15
M  V30 15 1 15 16
M  V30 16 1 16 17
M  V30 17 1 17 18
M  V30 18 1 11 2
M  V30 19 1 18 13
M  V30 20 1 10 4
M  V30 21 1 3 19
M  V30 22 1 5 20
M  V30 23 1 6 21
M  V30 24 1 9 22
M  V30 25 1 14 23
M  V30 26 1 14 24
M  V30 27 1 15 25
M  V30 28 1 15 26
M  V30 29 1 16 27
M  V30 30 1 16 28
M  V30 31 1 17 29
M  V30 32 1 17 30
M  V30 33 1 18 31
M  V30 34 1 18 32
M  V30 END BOND
M  V30 END CTAB
M  END
>  <Dataset>  (627) 
ChEMBL_Kinases

>  <Ligand_Instance>  (627) 
nan

>  <PDB_ID>  (627) 
nan

>  <Standardized_SMILES>  (627) 
O=C1Nc2ccc(F)cc2C1=NN1CCCCC1

>  <Name>  (627) 
nan

>  <Pocket>  (627) 
nan

>  <ATP_Site>  (627) 
nan

>  <Peripheral>  (627) 
nan

>  <Num_H_Atoms_ProtBoundConf>  (627) 
nan

>  <Num_Resolved_Atoms>  (627) 
nan

>  <Num_Not_Resolved_Atoms>  (627) 
nan

$$$$
CHEMBL4206553
     RDKit          3D

  0  0  0  0  0  0  0  0  0  0999 V3000
M  V30 BEGIN CTAB
M  V30 COUNTS 15 16 0 0 0
M  V30 BEGIN ATOM
M  V30 1 Br -1.114434 -0.412894 3.352083 0
M  V30 2 C 0.194855 -0.689162 1.977956 0
M  V30 3 C 0.480180 -2.002908 1.629078 0
M  V30 4 C 1.442722 -2.079409 0.623866 0
M  V30 5 N 2.055506 -1.041770 0.026749 0
M  V30 6 C 1.749548 0.214065 0.394825 0
M  V30 7 N 2.166300 1.430185 0.008842 0
M  V30 8 C 1.505556 2.374890 0.734039 0
M  V30 9 C 0.637742 1.736538 1.612440 0
M  V30 10 C 0.809516 0.391371 1.380575 0
M  V30 11 H 0.040947 -2.880904 2.051795 0
M  V30 12 H 1.771813 -3.048755 0.243003 0
M  V30 13 H 2.893327 1.589628 -0.741823 0
M  V30 14 H 1.674696 3.451046 0.600323 0
M  V30 15 H -0.017514 2.266915 2.315570 0
M  V30 END ATOM
M  V30 BEGIN BOND
M  V30 1 1 1 2
M  V30 2 2 2 3
M  V30 3 1 3 4
M  V30 4 2 4 5
M  V30 5 1 5 6
M  V30 6 1 6 7
M  V30 7 1 7 8
M  V30 8 2 8 9
M  V30 9 1 9 10
M  V30 10 1 10 2
M  V30 11 2 10 6
M  V30 12 1 3 11
M  V30 13 1 4 12
M  V30 14 1 7 13
M  V30 15 1 8 14
M  V30 16 1 9 15
M  V30 END BOND
M  V30 END CTAB
M  END
>  <Dataset>  (628) 
ChEMBL_Kinases

>  <Ligand_Instance>  (628) 
nan

>  <PDB_ID>  (628) 
nan

>  <Standardized_SMILES>  (628) 
Brc1ccnc2[nH]ccc12

>  <Name>  (628) 
nan

>  <Pocket>  (628) 
nan

>  <ATP_Site>  (628) 
nan

>  <Peripheral>  (628) 
nan

>  <Num_H_Atoms_ProtBoundConf>  (628) 
nan

>  <Num_Resolved_Atoms>  (628) 
nan

>  <Num_Not_Resolved_Atoms>  (628) 
nan

$$$$
CHEMBL4206546
     RDKit          3D

  0  0  0  0  0  0  0  0  0  0999 V3000
M  V30 BEGIN CTAB
M  V30 COUNTS 39 41 0 0 0
M  V30 BEGIN ATOM
M  V30 1 O 1.373259 -5.616460 -0.112132 0
M  V30 2 C 1.502776 -4.679288 0.717659 0
M  V30 3 N 1.353789 -4.816294 2.096531 0
M  V30 4 C 1.532079 -3.661620 2.905703 0
M  V30 5 S 1.611282 -3.564374 4.531679 0
M  V30 6 S 1.652535 -2.309885 1.730197 0
M  V30 7 C 1.830061 -3.335690 0.272775 0
M  V30 8 C 2.186426 -2.933665 -0.910859 0
M  V30 9 C 2.495147 -1.555078 -1.263442 0
M  V30 10 C 3.527127 -1.182093 -2.101370 0
M  V30 11 C 3.761873 0.163065 -2.403192 0
M  V30 12 C 2.929751 1.141192 -1.840843 0
M  V30 13 C 1.870811 0.797039 -0.985411 0
M  V30 14 O 1.248812 1.930894 -0.599424 0
M  V30 15 C 0.136537 2.133262 0.227375 0
M  V30 16 C -1.121516 1.520573 -0.332449 0
M  V30 17 O -2.262792 1.686960 0.464052 0
M  V30 18 C -2.414769 1.172063 1.719266 0
M  V30 19 C -1.707970 0.402065 2.612751 0
M  V30 20 C -2.157415 0.043857 3.855994 0
M  V30 21 C -3.414258 0.467124 4.286097 0
M  V30 22 C -4.163290 1.240246 3.429474 0
M  V30 23 C -3.682654 1.594668 2.161761 0
M  V30 24 C 1.733268 -0.541556 -0.759199 0
M  V30 25 H 1.115542 -5.734072 2.581560 0
M  V30 26 H 2.270338 -3.667315 -1.728736 0
M  V30 27 H 4.138236 -1.999138 -2.505486 0
M  V30 28 H 4.591058 0.348016 -3.066652 0
M  V30 29 H 3.253294 2.124741 -2.179577 0
M  V30 30 H -0.060156 3.258618 0.188661 0
M  V30 31 H 0.382326 1.848232 1.252096 0
M  V30 32 H -1.374670 2.010113 -1.328196 0
M  V30 33 H -0.992061 0.433805 -0.504563 0
M  V30 34 H -0.771709 0.110512 2.200410 0
M  V30 35 H -1.461283 -0.560823 4.410556 0
M  V30 36 H -3.678419 0.135506 5.277127 0
M  V30 37 H -5.113234 1.507276 3.864914 0
M  V30 38 H -4.451248 2.204588 1.674922 0
M  V30 39 H 0.918081 -0.757869 -0.093914 0
M  V30 END ATOM
M  V30 BEGIN BOND
M  V30 1 2 1 2
M  V30 2 1 2 3
M  V30 3 1 3 4
M  V30 4 2 4 5
M  V30 5 1 4 6
M  V30 6 1 6 7
M  V30 7 2 7 8
M  V30 8 1 8 9
M  V30 9 2 9 10
M  V30 10 1 10 11
M  V30 11 2 11 12
M  V30 12 1 12 13
M  V30 13 1 13 14
M  V30 14 1 14 15
M  V30 15 1 15 16
M  V30 16 1 16 17
M  V30 17 1 17 18
M  V30 18 2 18 19
M  V30 19 1 19 20
M  V30 20 2 20 21
M  V30 21 1 21 22
M  V30 22 2 22 23
M  V30 23 2 13 24
M  V30 24 1 7 2
M  V30 25 1 24 9
M  V30 26 1 23 18
M  V30 27 1 3 25
M  V30 28 1 8 26
M  V30 29 1 10 27
M  V30 30 1 11 28
M  V30 31 1 12 29
M  V30 32 1 15 30
M  V30 33 1 15 31
M  V30 34 1 16 32
M  V30 35 1 16 33
M  V30 36 1 19 34
M  V30 37 1 20 35
M  V30 38 1 21 36
M  V30 39 1 22 37
M  V30 40 1 23 38
M  V30 41 1 24 39
M  V30 END BOND
M  V30 END CTAB
M  END
>  <Dataset>  (629) 
ChEMBL_Kinases

>  <Ligand_Instance>  (629) 
nan

>  <PDB_ID>  (629) 
nan

>  <Standardized_SMILES>  (629) 
O=C1NC(=S)S/C1=C\c1cccc(OCCOc2ccccc2)c1

>  <Name>  (629) 
nan

>  <Pocket>  (629) 
nan

>  <ATP_Site>  (629) 
nan

>  <Peripheral>  (629) 
nan

>  <Num_H_Atoms_ProtBoundConf>  (629) 
nan

>  <Num_Resolved_Atoms>  (629) 
nan

>  <Num_Not_Resolved_Atoms>  (629) 
nan

$$$$
CHEMBL4206514
     RDKit          3D

  0  0  0  0  0  0  0  0  0  0999 V3000
M  V30 BEGIN CTAB
M  V30 COUNTS 66 69 0 0 0
M  V30 BEGIN ATOM
M  V30 1 C 2.836741 -1.501522 6.135255 0
M  V30 2 C 2.165614 -1.569643 4.786876 0
M  V30 3 N 0.883251 -0.817109 4.875162 0
M  V30 4 C 0.025507 -1.584812 5.775695 0
M  V30 5 C -1.269256 -0.929921 6.027933 0
M  V30 6 C 0.325144 -0.703094 3.535463 0 CFG=1
M  V30 7 C -0.623815 0.434677 3.447486 0
M  V30 8 C 1.360213 -0.676659 2.443297 0
M  V30 9 N 0.622461 -0.544881 1.170879 0
M  V30 10 C 1.564795 -0.524316 0.132164 0
M  V30 11 O 2.758900 -0.621199 0.520561 0
M  V30 12 C 1.262429 -0.404240 -1.291363 0
M  V30 13 C 2.313103 -0.429667 -2.184894 0
M  V30 14 C 2.144310 -0.321136 -3.545411 0
M  V30 15 N 3.184573 -0.355223 -4.504424 0
M  V30 16 C 4.590091 -0.601977 -4.280079 0
M  V30 17 C 4.862228 -1.995693 -3.818236 0
M  V30 18 O 6.243808 -2.217973 -3.602795 0
M  V30 19 N 0.869807 -0.186242 -3.947738 0
M  V30 20 C -0.152711 -0.159286 -3.108739 0
M  V30 21 C -1.476875 -0.003734 -3.703970 0
M  V30 22 C -1.755809 0.119456 -5.056649 0
M  V30 23 N -3.078988 0.243878 -5.229947 0
M  V30 24 N -3.694349 0.208411 -4.046860 0
M  V30 25 C -4.991324 0.291625 -3.688853 0
M  V30 26 C -5.394794 0.226985 -2.348461 0
M  V30 27 C -4.377588 0.073774 -1.434574 0
M  V30 28 C -4.732823 -0.002584 0.012582 0
M  V30 29 C -3.989550 -0.139266 1.089195 0
M  V30 30 C -4.550283 -0.182792 2.330486 0
M  V30 31 C -5.956979 -0.071436 2.357256 0
M  V30 32 S -6.400260 0.095411 0.518278 0
M  V30 33 N -3.088527 -0.007738 -1.807441 0
M  V30 34 C -2.726774 0.058657 -3.122724 0
M  V30 35 C -0.024982 -0.265582 -1.740005 0
M  V30 36 H 3.927250 -1.370581 6.007793 0
M  V30 37 H 2.619613 -2.393735 6.760057 0
M  V30 38 H 2.458110 -0.600193 6.657131 0
M  V30 39 H 1.881205 -2.599849 4.521802 0
M  V30 40 H 2.852876 -1.133674 4.066827 0
M  V30 41 H 0.587919 -1.618249 6.744259 0
M  V30 42 H -0.088491 -2.622432 5.457126 0
M  V30 43 H -1.186199 0.058222 6.526434 0
M  V30 44 H -1.945336 -0.970187 5.165133 0
M  V30 45 H -1.814681 -1.571645 6.807099 0
M  V30 46 H -0.274332 -1.649087 3.398838 0
M  V30 47 H -0.300674 1.184747 2.659239 0
M  V30 48 H -1.616212 0.078995 3.105027 0
M  V30 49 H -0.756671 0.942710 4.408512 0
M  V30 50 H 2.066218 0.128969 2.618003 0
M  V30 51 H 1.826857 -1.709866 2.465183 0
M  V30 52 H -0.395208 -0.469102 0.919170 0
M  V30 53 H 3.312735 -0.532670 -1.791292 0
M  V30 54 H 2.930744 -0.182045 -5.515168 0
M  V30 55 H 4.866265 0.085121 -3.421528 0
M  V30 56 H 5.211890 -0.334933 -5.133302 0
M  V30 57 H 4.504689 -2.711344 -4.618609 0
M  V30 58 H 4.351063 -2.319241 -2.908814 0
M  V30 59 H 6.383986 -3.178139 -3.805526 0
M  V30 60 H -1.016313 0.116958 -5.865147 0
M  V30 61 H -5.768246 0.412235 -4.432481 0
M  V30 62 H -6.444338 0.297674 -2.101826 0
M  V30 63 H -2.918759 -0.215447 0.949400 0
M  V30 64 H -4.012573 -0.292601 3.262241 0
M  V30 65 H -6.560500 -0.095121 3.369608 0
M  V30 66 H -0.853394 -0.244938 -1.053355 0
M  V30 END ATOM
M  V30 BEGIN BOND
M  V30 1 1 1 2
M  V30 2 1 2 3
M  V30 3 1 3 4
M  V30 4 1 4 5
M  V30 5 1 3 6
M  V30 6 1 6 7
M  V30 7 1 6 8
M  V30 8 1 8 9
M  V30 9 1 9 10
M  V30 10 2 10 11
M  V30 11 1 10 12
M  V30 12 2 12 13
M  V30 13 1 13 14
M  V30 14 1 14 15
M  V30 15 1 15 16
M  V30 16 1 16 17
M  V30 17 1 17 18
M  V30 18 2 14 19
M  V30 19 1 19 20
M  V30 20 1 20 21
M  V30 21 1 21 22
M  V30 22 2 22 23
M  V30 23 1 23 24
M  V30 24 1 24 25
M  V30 25 2 25 26
M  V30 26 1 26 27
M  V30 27 1 27 28
M  V30 28 2 28 29
M  V30 29 1 29 30
M  V30 30 2 30 31
M  V30 31 1 31 32
M  V30 32 2 27 33
M  V30 33 1 33 34
M  V30 34 2 20 35
M  V30 35 1 35 12
M  V30 36 2 34 21
M  V30 37 1 34 24
M  V30 38 1 32 28
M  V30 39 1 1 36
M  V30 40 1 1 37
M  V30 41 1 1 38
M  V30 42 1 2 39
M  V30 43 1 2 40
M  V30 44 1 4 41
M  V30 45 1 4 42
M  V30 46 1 5 43
M  V30 47 1 5 44
M  V30 48 1 5 45
M  V30 49 1 6 46 CFG=3
M  V30 50 1 7 47
M  V30 51 1 7 48
M  V30 52 1 7 49
M  V30 53 1 8 50
M  V30 54 1 8 51
M  V30 55 1 9 52
M  V30 56 1 13 53
M  V30 57 1 15 54
M  V30 58 1 16 55
M  V30 59 1 16 56
M  V30 60 1 17 57
M  V30 61 1 17 58
M  V30 62 1 18 59
M  V30 63 1 22 60
M  V30 64 1 25 61
M  V30 65 1 26 62
M  V30 66 1 29 63
M  V30 67 1 30 64
M  V30 68 1 31 65
M  V30 69 1 35 66
M  V30 END BOND
M  V30 END CTAB
M  END
>  <Dataset>  (630) 
ChEMBL_Kinases

>  <Ligand_Instance>  (630) 
nan

>  <PDB_ID>  (630) 
nan

>  <Standardized_SMILES>  (630) 
CCN(CC)[C@@H](C)CNC(=O)c1cc(NCCO)nc(-c2cnn3ccc(-c4cccs4)nc23)c1

>  <Name>  (630) 
nan

>  <Pocket>  (630) 
nan

>  <ATP_Site>  (630) 
nan

>  <Peripheral>  (630) 
nan

>  <Num_H_Atoms_ProtBoundConf>  (630) 
nan

>  <Num_Resolved_Atoms>  (630) 
nan

>  <Num_Not_Resolved_Atoms>  (630) 
nan

$$$$
CHEMBL4204389
     RDKit          3D

  0  0  0  0  0  0  0  0  0  0999 V3000
M  V30 BEGIN CTAB
M  V30 COUNTS 18 19 0 0 0
M  V30 BEGIN ATOM
M  V30 1 C -1.176755 2.057079 0.780739 0
M  V30 2 C -0.092929 1.084780 1.097913 0
M  V30 3 C 0.197745 0.802718 2.437610 0
M  V30 4 N 1.161132 -0.061732 2.733513 0
M  V30 5 C 1.845700 -0.655665 1.746691 0
M  V30 6 N 2.843649 -1.548200 1.879514 0
M  V30 7 C 3.259371 -1.898061 0.642628 0
M  V30 8 C 2.526743 -1.228191 -0.316796 0
M  V30 9 C 1.630334 -0.440765 0.405643 0
M  V30 10 C 0.629014 0.457441 0.115004 0
M  V30 11 Cl 0.277610 0.799400 -1.564297 0
M  V30 12 H -1.994444 1.885502 1.491918 0
M  V30 13 H -1.535932 1.871848 -0.249045 0
M  V30 14 H -0.790606 3.089832 0.903883 0
M  V30 15 H -0.398508 1.322027 3.180153 0
M  V30 16 H 3.257924 -1.932654 2.754760 0
M  V30 17 H 4.031132 -2.580893 0.313151 0
M  V30 18 H 2.516796 -1.201073 -1.393525 0
M  V30 END ATOM
M  V30 BEGIN BOND
M  V30 1 1 1 2
M  V30 2 2 2 3
M  V30 3 1 3 4
M  V30 4 2 4 5
M  V30 5 1 5 6
M  V30 6 1 6 7
M  V30 7 2 7 8
M  V30 8 1 8 9
M  V30 9 2 9 10
M  V30 10 1 10 11
M  V30 11 1 10 2
M  V30 12 1 9 5
M  V30 13 1 1 12
M  V30 14 1 1 13
M  V30 15 1 1 14
M  V30 16 1 3 15
M  V30 17 1 6 16
M  V30 18 1 7 17
M  V30 19 1 8 18
M  V30 END BOND
M  V30 END CTAB
M  END
>  <Dataset>  (631) 
ChEMBL_Kinases

>  <Ligand_Instance>  (631) 
nan

>  <PDB_ID>  (631) 
nan

>  <Standardized_SMILES>  (631) 
Cc1cnc2[nH]ccc2c1Cl

>  <Name>  (631) 
nan

>  <Pocket>  (631) 
nan

>  <ATP_Site>  (631) 
nan

>  <Peripheral>  (631) 
nan

>  <Num_H_Atoms_ProtBoundConf>  (631) 
nan

>  <Num_Resolved_Atoms>  (631) 
nan

>  <Num_Not_Resolved_Atoms>  (631) 
nan

$$$$
CHEMBL4783896
     RDKit          3D

  0  0  0  0  0  0  0  0  0  0999 V3000
M  V30 BEGIN CTAB
M  V30 COUNTS 58 63 0 0 0
M  V30 BEGIN ATOM
M  V30 1 C 4.984182 1.806291 6.537093 0
M  V30 2 C 5.397126 3.215106 6.201344 0
M  V30 3 C 5.959722 3.284231 4.798533 0
M  V30 4 C 4.905479 2.837201 3.854587 0
M  V30 5 O 3.813321 2.503379 4.375515 0
M  V30 6 N 5.044536 2.764080 2.446919 0
M  V30 7 C 4.118175 2.360138 1.485089 0
M  V30 8 C 4.497935 2.379149 0.161230 0
M  V30 9 N 3.702438 2.016401 -0.853841 0
M  V30 10 C 2.448922 1.601814 -0.610933 0
M  V30 11 C 1.952526 1.539611 0.682071 0
M  V30 12 C 0.596374 1.096864 1.016209 0
M  V30 13 C 0.037318 1.685769 2.140408 0
M  V30 14 N -1.209560 1.293151 2.466823 0
M  V30 15 C -1.893029 0.380436 1.754075 0
M  V30 16 N -3.112718 -0.173558 1.856377 0
M  V30 17 N -3.311520 -1.036414 0.885384 0
M  V30 18 C -2.242571 -1.126797 0.059541 0
M  V30 19 C -2.124907 -1.976858 -1.106088 0
M  V30 20 C -3.169618 -2.817178 -1.487372 0
M  V30 21 C -2.852617 -3.533696 -2.614407 0
M  V30 22 C -3.502220 -4.472234 -3.386605 0
M  V30 23 C -4.828026 -4.910086 -3.054745 0
M  V30 24 C -5.715148 -4.940209 -4.137402 0
M  V30 25 C -7.013687 -5.352952 -3.913322 0
M  V30 26 N -7.455908 -5.728687 -2.682896 0
M  V30 27 C -6.616839 -5.708810 -1.617026 0
M  V30 28 C -5.330333 -5.296915 -1.854067 0
M  V30 29 C -2.859095 -4.985923 -4.474228 0
M  V30 30 C -1.585618 -4.574103 -4.793342 0
M  V30 31 N -0.966043 -3.657268 -4.028780 0
M  V30 32 C -1.578407 -3.135882 -2.951942 0
M  V30 33 N -1.221067 -2.229931 -2.030139 0
M  V30 34 C -1.374572 -0.228276 0.631503 0
M  V30 35 C -0.104873 0.161538 0.286316 0
M  V30 36 C 2.834862 1.929934 1.666405 0
M  V30 37 H 5.455101 1.420670 7.461318 0
M  V30 38 H 5.247530 1.071393 5.724705 0
M  V30 39 H 3.871856 1.774734 6.724341 0
M  V30 40 H 6.172783 3.532727 6.924706 0
M  V30 41 H 4.511337 3.885187 6.251671 0
M  V30 42 H 6.841739 2.587541 4.789311 0
M  V30 43 H 6.266327 4.300707 4.553427 0
M  V30 44 H 6.000998 3.071159 2.165564 0
M  V30 45 H 5.495639 2.697624 -0.164719 0
M  V30 46 H 1.771869 1.298203 -1.414052 0
M  V30 47 H 0.482615 2.427764 2.792970 0
M  V30 48 H -3.837684 0.017580 2.582577 0
M  V30 49 H -4.138476 -2.951257 -1.019513 0
M  V30 50 H -5.515811 -4.671282 -5.180400 0
M  V30 51 H -7.820368 -5.430922 -4.650225 0
M  V30 52 H -6.931212 -6.001417 -0.615948 0
M  V30 53 H -4.649860 -5.276271 -1.030360 0
M  V30 54 H -3.284857 -5.715248 -5.127026 0
M  V30 55 H -0.956403 -4.891123 -5.619175 0
M  V30 56 H -0.290519 -1.784619 -2.078431 0
M  V30 57 H 0.380291 -0.251465 -0.564175 0
M  V30 58 H 2.447177 1.881151 2.672411 0
M  V30 END ATOM
M  V30 BEGIN BOND
M  V30 1 1 1 2
M  V30 2 1 2 3
M  V30 3 1 3 4
M  V30 4 2 4 5
M  V30 5 1 4 6
M  V30 6 1 6 7
M  V30 7 2 7 8
M  V30 8 1 8 9
M  V30 9 2 9 10
M  V30 10 1 10 11
M  V30 11 1 11 12
M  V30 12 2 12 13
M  V30 13 1 13 14
M  V30 14 2 14 15
M  V30 15 1 15 16
M  V30 16 1 16 17
M  V30 17 2 17 18
M  V30 18 1 18 19
M  V30 19 2 19 20
M  V30 20 1 20 21
M  V30 21 2 21 22
M  V30 22 1 22 23
M  V30 23 2 23 24
M  V30 24 1 24 25
M  V30 25 2 25 26
M  V30 26 1 26 27
M  V30 27 2 27 28
M  V30 28 1 22 29
M  V30 29 2 29 30
M  V30 30 1 30 31
M  V30 31 2 31 32
M  V30 32 1 32 33
M  V30 33 1 18 34
M  V30 34 2 34 35
M  V30 35 2 11 36
M  V30 36 1 36 7
M  V30 37 1 35 12
M  V30 38 1 34 15
M  V30 39 1 33 19
M  V30 40 1 32 21
M  V30 41 1 28 23
M  V30 42 1 1 37
M  V30 43 1 1 38
M  V30 44 1 1 39
M  V30 45 1 2 40
M  V30 46 1 2 41
M  V30 47 1 3 42
M  V30 48 1 3 43
M  V30 49 1 6 44
M  V30 50 1 8 45
M  V30 51 1 10 46
M  V30 52 1 13 47
M  V30 53 1 16 48
M  V30 54 1 20 49
M  V30 55 1 24 50
M  V30 56 1 25 51
M  V30 57 1 27 52
M  V30 58 1 28 53
M  V30 59 1 29 54
M  V30 60 1 30 55
M  V30 61 1 33 56
M  V30 62 1 35 57
M  V30 63 1 36 58
M  V30 END BOND
M  V30 END CTAB
M  END
>  <Dataset>  (632) 
ChEMBL_Kinases

>  <Ligand_Instance>  (632) 
nan

>  <PDB_ID>  (632) 
nan

>  <Standardized_SMILES>  (632) 
CCCC(=O)Nc1cncc(-c2cnc3[nH]nc(-c4cc5c(-c6ccncc6)ccnc5[nH]4)c3c2)c1

>  <Name>  (632) 
nan

>  <Pocket>  (632) 
nan

>  <ATP_Site>  (632) 
nan

>  <Peripheral>  (632) 
nan

>  <Num_H_Atoms_ProtBoundConf>  (632) 
nan

>  <Num_Resolved_Atoms>  (632) 
nan

>  <Num_Not_Resolved_Atoms>  (632) 
nan

$$$$
CHEMBL4783920
     RDKit          3D

  0  0  0  0  0  0  0  0  0  0999 V3000
M  V30 BEGIN CTAB
M  V30 COUNTS 50 53 0 0 0
M  V30 BEGIN ATOM
M  V30 1 C 4.534469 -0.126782 5.538384 0
M  V30 2 C 3.179822 0.008890 6.165938 0
M  V30 3 C 2.098218 0.361345 5.169698 0
M  V30 4 S 1.982859 -0.896322 3.933416 0
M  V30 5 O 1.620750 -2.166950 4.658702 0
M  V30 6 O 3.337549 -1.174826 3.312857 0
M  V30 7 N 0.790887 -0.600925 2.751365 0
M  V30 8 C 0.820638 0.511432 1.901337 0
M  V30 9 C 1.957683 1.307622 1.904614 0
M  V30 10 C 2.021048 2.406496 1.076721 0
M  V30 11 C 0.965471 2.747866 0.223894 0
M  V30 12 F 1.130979 3.863151 -0.560248 0
M  V30 13 C -0.174335 1.972542 0.200980 0
M  V30 14 C -1.251391 2.383390 -0.670210 0
M  V30 15 O -1.211497 3.646659 -0.878502 0
M  V30 16 C -2.345988 1.734056 -1.354654 0
M  V30 17 N -3.451760 2.433319 -1.675314 0
M  V30 18 N -4.295296 1.616442 -2.327191 0
M  V30 19 C -3.800960 0.377153 -2.464891 0
M  V30 20 N -4.236458 -0.746343 -3.029488 0
M  V30 21 C -3.502228 -1.873622 -3.037176 0
M  V30 22 C -2.253839 -1.791031 -2.415695 0
M  V30 23 C -1.462734 -3.016672 -2.429048 0
M  V30 24 C -2.102137 -4.219221 -2.112578 0
M  V30 25 C -1.420800 -5.403219 -2.106335 0
M  V30 26 C -0.069353 -5.388175 -2.423208 0
M  V30 27 C 0.535899 -4.198912 -2.729841 0
M  V30 28 C -0.120588 -2.982582 -2.746408 0
M  V30 29 F 0.464521 -1.812068 -3.045593 0
M  V30 30 C -1.784318 -0.641718 -1.825987 0
M  V30 31 C -2.572990 0.471283 -1.847052 0
M  V30 32 C -0.178038 0.892474 1.049661 0
M  V30 33 F -1.266893 0.098790 1.140429 0
M  V30 34 H 5.357192 0.215963 6.209602 0
M  V30 35 H 4.735698 -1.192595 5.304927 0
M  V30 36 H 4.657807 0.435213 4.598303 0
M  V30 37 H 3.219289 0.829544 6.905923 0
M  V30 38 H 2.902629 -0.912635 6.713760 0
M  V30 39 H 2.199959 1.377410 4.800316 0
M  V30 40 H 1.133443 0.331787 5.732642 0
M  V30 41 H -0.033107 -1.259150 2.611034 0
M  V30 42 H 2.829410 1.146989 2.509650 0
M  V30 43 H 2.913073 3.053648 1.062674 0
M  V30 44 H -5.218168 1.982230 -2.659508 0
M  V30 45 H -3.867818 -2.772878 -3.496916 0
M  V30 46 H -3.152740 -4.217865 -1.868033 0
M  V30 47 H -1.966068 -6.312103 -1.852685 0
M  V30 48 H 0.478559 -6.331156 -2.419705 0
M  V30 49 H 1.586268 -4.218519 -2.971884 0
M  V30 50 H -0.813095 -0.590864 -1.359410 0
M  V30 END ATOM
M  V30 BEGIN BOND
M  V30 1 1 1 2
M  V30 2 1 2 3
M  V30 3 1 3 4
M  V30 4 2 4 5
M  V30 5 2 4 6
M  V30 6 1 4 7
M  V30 7 1 7 8
M  V30 8 2 8 9
M  V30 9 1 9 10
M  V30 10 2 10 11
M  V30 11 1 11 12
M  V30 12 1 11 13
M  V30 13 1 13 14
M  V30 14 2 14 15
M  V30 15 1 14 16
M  V30 16 2 16 17
M  V30 17 1 17 18
M  V30 18 1 18 19
M  V30 19 2 19 20
M  V30 20 1 20 21
M  V30 21 2 21 22
M  V30 22 1 22 23
M  V30 23 2 23 24
M  V30 24 1 24 25
M  V30 25 2 25 26
M  V30 26 1 26 27
M  V30 27 2 27 28
M  V30 28 1 28 29
M  V30 29 1 22 30
M  V30 30 2 30 31
M  V30 31 2 13 32
M  V30 32 1 32 33
M  V30 33 1 32 8
M  V30 34 1 31 16
M  V30 35 1 31 19
M  V30 36 1 28 23
M  V30 37 1 1 34
M  V30 38 1 1 35
M  V30 39 1 1 36
M  V30 40 1 2 37
M  V30 41 1 2 38
M  V30 42 1 3 39
M  V30 43 1 3 40
M  V30 44 1 7 41
M  V30 45 1 9 42
M  V30 46 1 10 43
M  V30 47 1 18 44
M  V30 48 1 21 45
M  V30 49 1 24 46
M  V30 50 1 25 47
M  V30 51 1 26 48
M  V30 52 1 27 49
M  V30 53 1 30 50
M  V30 END BOND
M  V30 END CTAB
M  END
>  <Dataset>  (633) 
ChEMBL_Kinases

>  <Ligand_Instance>  (633) 
nan

>  <PDB_ID>  (633) 
nan

>  <Standardized_SMILES>  (633) 
CCCS(=O)(=O)Nc1ccc(F)c(C(=O)c2n[nH]c3ncc(-c4ccccc4F)cc23)c1F

>  <Name>  (633) 
nan

>  <Pocket>  (633) 
nan

>  <ATP_Site>  (633) 
nan

>  <Peripheral>  (633) 
nan

>  <Num_H_Atoms_ProtBoundConf>  (633) 
nan

>  <Num_Resolved_Atoms>  (633) 
nan

>  <Num_Not_Resolved_Atoms>  (633) 
nan

$$$$
CHEMBL4206280
     RDKit          3D

  0  0  0  0  0  0  0  0  0  0999 V3000
M  V30 BEGIN CTAB
M  V30 COUNTS 68 72 0 0 0
M  V30 BEGIN ATOM
M  V30 1 C 2.906635 -2.744177 4.330547 0
M  V30 2 C 4.193676 -2.912931 3.550581 0
M  V30 3 N 4.063739 -2.328727 2.226668 0
M  V30 4 C 3.962632 -0.924733 2.355254 0
M  V30 5 C 4.666814 -0.089708 1.351061 0
M  V30 6 N 5.096722 -0.791946 0.166764 0
M  V30 7 C 3.986843 -1.285170 -0.620061 0
M  V30 8 C 3.098186 -0.168275 -1.039373 0
M  V30 9 N 3.277985 0.520826 -2.179245 0
M  V30 10 C 2.495573 1.527798 -2.589250 0
M  V30 11 C 1.413146 1.910229 -1.800815 0
M  V30 12 N 0.501409 2.958181 -2.069814 0
M  V30 13 C -0.878484 3.199079 -1.867803 0
M  V30 14 C -1.757237 2.251754 -1.399695 0
M  V30 15 C -3.100496 2.480550 -1.185978 0
M  V30 16 C -4.053361 1.498874 -0.695929 0
M  V30 17 C -5.364526 1.898799 -0.544982 0
M  V30 18 C -6.278513 0.974189 -0.080258 0
M  V30 19 F -7.562208 1.327768 0.078850 0
M  V30 20 C -5.971155 -0.331499 0.246028 0
M  V30 21 N -6.607698 -1.424910 0.703728 0
M  V30 22 C -5.744859 -2.452546 0.832163 0
M  V30 23 C -5.992296 -3.845786 1.297315 0
M  V30 24 N -4.512463 -2.038221 0.454072 0
M  V30 25 C -3.268900 -2.774870 0.418637 0
M  V30 26 C -2.570320 -2.713685 -0.900874 0
M  V30 27 C -2.356833 -2.359717 1.570432 0
M  V30 28 C -4.637574 -0.728472 0.089225 0
M  V30 29 C -3.709715 0.205802 -0.381007 0
M  V30 30 N -3.532538 3.740517 -1.471850 0
M  V30 31 C -2.644145 4.666380 -1.935217 0
M  V30 32 N -1.342834 4.412396 -2.132932 0
M  V30 33 C 1.218585 1.198711 -0.610676 0
M  V30 34 N 2.054256 0.198235 -0.274392 0
M  V30 35 C 5.911853 -1.898177 0.626914 0
M  V30 36 C 5.078473 -2.869396 1.405779 0
M  V30 37 H 2.076919 -2.989931 3.631724 0
M  V30 38 H 2.904739 -3.519294 5.107348 0
M  V30 39 H 2.813682 -1.746950 4.793056 0
M  V30 40 H 5.072696 -2.453361 4.068169 0
M  V30 41 H 4.385504 -4.013760 3.466865 0
M  V30 42 H 4.228639 -0.593999 3.403562 0
M  V30 43 H 2.867256 -0.650883 2.289701 0
M  V30 44 H 5.624171 0.262792 1.835970 0
M  V30 45 H 4.076610 0.806145 1.045299 0
M  V30 46 H 3.397718 -2.028620 -0.032558 0
M  V30 47 H 4.328644 -1.787457 -1.547059 0
M  V30 48 H 2.630991 2.082972 -3.496671 0
M  V30 49 H 1.076122 3.712486 -2.539398 0
M  V30 50 H -1.437044 1.259687 -1.183750 0
M  V30 51 H -5.734947 2.895667 -0.766932 0
M  V30 52 H -5.231046 -4.194921 2.009361 0
M  V30 53 H -7.031329 -3.886324 1.689985 0
M  V30 54 H -5.989695 -4.568136 0.439599 0
M  V30 55 H -3.525816 -3.835935 0.607374 0
M  V30 56 H -2.360777 -3.723419 -1.320135 0
M  V30 57 H -3.181722 -2.209212 -1.676672 0
M  V30 58 H -1.555027 -2.247078 -0.773332 0
M  V30 59 H -1.362136 -2.788575 1.387357 0
M  V30 60 H -2.802633 -2.838038 2.487983 0
M  V30 61 H -2.304668 -1.264730 1.678310 0
M  V30 62 H -2.716377 -0.138521 -0.482289 0
M  V30 63 H -3.027759 5.657814 -2.150813 0
M  V30 64 H 0.467478 1.334682 0.137430 0
M  V30 65 H 6.767878 -1.491389 1.189083 0
M  V30 66 H 6.331685 -2.385300 -0.289124 0
M  V30 67 H 5.771029 -3.574894 1.948093 0
M  V30 68 H 4.581618 -3.549521 0.653363 0
M  V30 END ATOM
M  V30 BEGIN BOND
M  V30 1 1 1 2
M  V30 2 1 2 3
M  V30 3 1 3 4
M  V30 4 1 4 5
M  V30 5 1 5 6
M  V30 6 1 6 7
M  V30 7 1 7 8
M  V30 8 2 8 9
M  V30 9 1 9 10
M  V30 10 2 10 11
M  V30 11 1 11 12
M  V30 12 1 12 13
M  V30 13 2 13 14
M  V30 14 1 14 15
M  V30 15 1 15 16
M  V30 16 2 16 17
M  V30 17 1 17 18
M  V30 18 1 18 19
M  V30 19 2 18 20
M  V30 20 1 20 21
M  V30 21 2 21 22
M  V30 22 1 22 23
M  V30 23 1 22 24
M  V30 24 1 24 25
M  V30 25 1 25 26
M  V30 26 1 25 27
M  V30 27 1 24 28
M  V30 28 2 28 29
M  V30 29 2 15 30
M  V30 30 1 30 31
M  V30 31 2 31 32
M  V30 32 1 11 33
M  V30 33 2 33 34
M  V30 34 1 6 35
M  V30 35 1 35 36
M  V30 36 1 36 3
M  V30 37 1 34 8
M  V30 38 1 32 13
M  V30 39 1 29 16
M  V30 40 1 28 20
M  V30 41 1 1 37
M  V30 42 1 1 38
M  V30 43 1 1 39
M  V30 44 1 2 40
M  V30 45 1 2 41
M  V30 46 1 4 42
M  V30 47 1 4 43
M  V30 48 1 5 44
M  V30 49 1 5 45
M  V30 50 1 7 46
M  V30 51 1 7 47
M  V30 52 1 10 48
M  V30 53 1 12 49
M  V30 54 1 14 50
M  V30 55 1 17 51
M  V30 56 1 23 52
M  V30 57 1 23 53
M  V30 58 1 23 54
M  V30 59 1 25 55
M  V30 60 1 26 56
M  V30 61 1 26 57
M  V30 62 1 26 58
M  V30 63 1 27 59
M  V30 64 1 27 60
M  V30 65 1 27 61
M  V30 66 1 29 62
M  V30 67 1 31 63
M  V30 68 1 33 64
M  V30 69 1 35 65
M  V30 70 1 35 66
M  V30 71 1 36 67
M  V30 72 1 36 68
M  V30 END BOND
M  V30 END CTAB
M  END
>  <Dataset>  (634) 
ChEMBL_Kinases

>  <Ligand_Instance>  (634) 
nan

>  <PDB_ID>  (634) 
nan

>  <Standardized_SMILES>  (634) 
CCN1CCN(Cc2ncc(Nc3cc(-c4cc(F)c5nc(C)n(C(C)C)c5c4)ncn3)cn2)CC1

>  <Name>  (634) 
nan

>  <Pocket>  (634) 
nan

>  <ATP_Site>  (634) 
nan

>  <Peripheral>  (634) 
nan

>  <Num_H_Atoms_ProtBoundConf>  (634) 
nan

>  <Num_Resolved_Atoms>  (634) 
nan

>  <Num_Not_Resolved_Atoms>  (634) 
nan

$$$$
CHEMBL4783933
     RDKit          3D

  0  0  0  0  0  0  0  0  0  0999 V3000
M  V30 BEGIN CTAB
M  V30 COUNTS 51 54 0 0 0
M  V30 BEGIN ATOM
M  V30 1 C -4.989489 -1.021208 6.256936 0
M  V30 2 C -3.920584 -1.123495 5.234182 0
M  V30 3 C -3.207994 -0.004784 4.879359 0
M  V30 4 C -2.216491 -0.085595 3.934076 0
M  V30 5 C -1.454403 1.120921 3.608073 0
M  V30 6 C -1.870552 -1.243378 3.290895 0
M  V30 7 C -0.914892 -1.521775 2.244707 0
M  V30 8 O -0.475944 -2.654796 1.915505 0
M  V30 9 N -0.253488 -0.679350 1.356897 0
M  V30 10 C 0.692609 -0.911792 0.321782 0
M  V30 11 C 2.044327 -0.350621 0.700723 0
M  V30 12 C 3.005349 -0.066753 -0.369639 0
M  V30 13 N 2.405908 0.275237 -1.656759 0
M  V30 14 C 3.214726 0.104789 -2.816285 0
M  V30 15 N 4.543423 0.015189 -2.633077 0
M  V30 16 C 5.389852 -0.109313 -3.665354 0
M  V30 17 N 4.966602 -0.152412 -4.939938 0
M  V30 18 C 3.650546 -0.069058 -5.198149 0
M  V30 19 N 2.931508 -0.092081 -6.334816 0
M  V30 20 N 1.642070 0.018408 -5.976763 0
M  V30 21 C 1.548863 0.108525 -4.656895 0
M  V30 22 C 2.803629 0.058092 -4.120161 0
M  V30 23 C 1.064711 0.746901 -1.390350 0
M  V30 24 C 0.306955 -0.500817 -1.039583 0
M  V30 25 C -2.583449 -2.400191 3.636602 0
M  V30 26 C -2.396049 -3.765551 3.080479 0
M  V30 27 C -3.580760 -2.290027 4.596183 0
M  V30 28 H -5.761676 -0.267252 5.951715 0
M  V30 29 H -4.593169 -0.746257 7.256149 0
M  V30 30 H -5.494273 -2.011612 6.370807 0
M  V30 31 H -3.417895 0.941750 5.335668 0
M  V30 32 H -1.565890 1.812371 4.492971 0
M  V30 33 H -1.760200 1.636393 2.701006 0
M  V30 34 H -0.372058 0.854270 3.569457 0
M  V30 35 H -0.430654 0.343154 1.355162 0
M  V30 36 H 0.861614 -2.012398 0.303883 0
M  V30 37 H 1.832722 0.616434 1.243757 0
M  V30 38 H 2.564124 -0.979214 1.478867 0
M  V30 39 H 3.654431 0.798735 -0.121827 0
M  V30 40 H 3.684208 -0.923155 -0.560840 0
M  V30 41 H 6.445101 -0.174372 -3.419044 0
M  V30 42 H 3.313845 -0.179972 -7.308898 0
M  V30 43 H 0.619487 0.195181 -4.146060 0
M  V30 44 H 0.622027 1.364524 -2.183939 0
M  V30 45 H 1.147459 1.452509 -0.517351 0
M  V30 46 H 0.623158 -1.293389 -1.750162 0
M  V30 47 H -0.778222 -0.430235 -1.221917 0
M  V30 48 H -3.196970 -4.449373 3.429031 0
M  V30 49 H -1.426741 -4.202546 3.329264 0
M  V30 50 H -2.503777 -3.728411 1.974601 0
M  V30 51 H -4.165928 -3.148906 4.903731 0
M  V30 END ATOM
M  V30 BEGIN BOND
M  V30 1 1 1 2
M  V30 2 2 2 3
M  V30 3 1 3 4
M  V30 4 1 4 5
M  V30 5 2 4 6
M  V30 6 1 6 7
M  V30 7 2 7 8
M  V30 8 1 7 9
M  V30 9 1 9 10
M  V30 10 1 10 11
M  V30 11 1 11 12
M  V30 12 1 12 13
M  V30 13 1 13 14
M  V30 14 2 14 15
M  V30 15 1 15 16
M  V30 16 2 16 17
M  V30 17 1 17 18
M  V30 18 1 18 19
M  V30 19 1 19 20
M  V30 20 2 20 21
M  V30 21 1 21 22
M  V30 22 1 13 23
M  V30 23 1 23 24
M  V30 24 1 6 25
M  V30 25 1 25 26
M  V30 26 2 25 27
M  V30 27 1 27 2
M  V30 28 1 24 10
M  V30 29 1 22 14
M  V30 30 2 22 18
M  V30 31 1 1 28
M  V30 32 1 1 29
M  V30 33 1 1 30
M  V30 34 1 3 31
M  V30 35 1 5 32
M  V30 36 1 5 33
M  V30 37 1 5 34
M  V30 38 1 9 35
M  V30 39 1 10 36
M  V30 40 1 11 37
M  V30 41 1 11 38
M  V30 42 1 12 39
M  V30 43 1 12 40
M  V30 44 1 16 41
M  V30 45 1 19 42
M  V30 46 1 21 43
M  V30 47 1 23 44
M  V30 48 1 23 45
M  V30 49 1 24 46
M  V30 50 1 24 47
M  V30 51 1 26 48
M  V30 52 1 26 49
M  V30 53 1 26 50
M  V30 54 1 27 51
M  V30 END BOND
M  V30 END CTAB
M  END
>  <Dataset>  (635) 
ChEMBL_Kinases

>  <Ligand_Instance>  (635) 
nan

>  <PDB_ID>  (635) 
nan

>  <Standardized_SMILES>  (635) 
Cc1cc(C)c(C(=O)NC2CCN(c3ncnc4[nH]ncc34)CC2)c(C)c1

>  <Name>  (635) 
nan

>  <Pocket>  (635) 
nan

>  <ATP_Site>  (635) 
nan

>  <Peripheral>  (635) 
nan

>  <Num_H_Atoms_ProtBoundConf>  (635) 
nan

>  <Num_Resolved_Atoms>  (635) 
nan

>  <Num_Not_Resolved_Atoms>  (635) 
nan

$$$$
CHEMBL4206220
     RDKit          3D

  0  0  0  0  0  0  0  0  0  0999 V3000
M  V30 BEGIN CTAB
M  V30 COUNTS 55 59 0 0 0
M  V30 BEGIN ATOM
M  V30 1 N 1.832959 -0.885587 5.958521 0
M  V30 2 C 2.449335 -0.660884 4.678302 0 CFG=1
M  V30 3 C 2.549703 -1.990277 3.968632 0
M  V30 4 C 3.062181 -1.875462 2.576450 0
M  V30 5 N 2.371154 -0.901239 1.777612 0
M  V30 6 C 2.843633 -0.801340 0.440144 0
M  V30 7 C 2.042927 0.248892 -0.266169 0
M  V30 8 C 2.499506 1.527423 -0.607244 0
M  V30 9 C 1.504911 2.223361 -1.263538 0
M  V30 10 N 0.475327 1.371664 -1.310608 0
M  V30 11 N -0.730248 1.516436 -1.823913 0
M  V30 12 C -1.668009 0.557397 -1.791426 0
M  V30 13 C -2.988971 0.769957 -2.375673 0
M  V30 14 C -3.262179 1.984599 -2.968658 0
M  V30 15 C -4.498367 2.240260 -3.537844 0
M  V30 16 C -5.518029 1.282649 -3.535970 0
M  V30 17 C -5.174074 0.088638 -2.924665 0
M  V30 18 N -3.959489 -0.173495 -2.361034 0
M  V30 19 N -1.393134 -0.625275 -1.210920 0
M  V30 20 C -0.176650 -0.825402 -0.671160 0
M  V30 21 N 0.045618 -2.063026 -0.076182 0
M  V30 22 C -1.005326 -3.029611 -0.085606 0
M  V30 23 C -1.695461 -3.668267 0.929273 0
M  V30 24 C -2.696922 -4.584230 0.688694 0
M  V30 25 N -3.034036 -4.885077 -0.598700 0
M  V30 26 C -2.375905 -4.275947 -1.603591 0
M  V30 27 C -1.370367 -3.356049 -1.399415 0
M  V30 28 F -0.878544 -2.898150 -2.570262 0
M  V30 29 C 0.750708 0.191489 -0.731631 0
M  V30 30 C 2.274973 0.358696 2.469463 0
M  V30 31 C 1.609732 0.256930 3.800877 0 CFG=2
M  V30 32 O 1.701348 1.535569 4.393804 0
M  V30 33 H 1.334421 -1.780204 6.035059 0
M  V30 34 H 1.157544 -0.116377 6.226480 0
M  V30 35 H 3.431131 -0.180914 4.779783 0
M  V30 36 H 1.555705 -2.461947 4.054223 0
M  V30 37 H 3.246197 -2.630072 4.551903 0
M  V30 38 H 4.149013 -1.622645 2.629904 0
M  V30 39 H 2.956008 -2.851917 2.083948 0
M  V30 40 H 2.768010 -1.757818 -0.064916 0
M  V30 41 H 3.909762 -0.448466 0.493195 0
M  V30 42 H 3.503837 1.892376 -0.373539 0
M  V30 43 H 1.532224 3.227087 -1.656713 0
M  V30 44 H -2.574774 2.807884 -3.041575 0
M  V30 45 H -4.740044 3.198206 -4.015596 0
M  V30 46 H -6.481467 1.429184 -3.958254 0
M  V30 47 H -5.959959 -0.672882 -2.913444 0
M  V30 48 H 0.697350 -2.684119 0.432831 0
M  V30 49 H -1.317935 -3.328739 1.899675 0
M  V30 50 H -3.140338 -4.995804 1.585065 0
M  V30 51 H -2.765660 -4.626739 -2.559031 0
M  V30 52 H 1.720300 1.104085 1.873575 0
M  V30 53 H 3.298057 0.749179 2.615989 0
M  V30 54 H 0.569765 -0.062367 3.780460 0
M  V30 55 H 1.507627 2.217431 3.680659 0
M  V30 END ATOM
M  V30 BEGIN BOND
M  V30 1 1 1 2
M  V30 2 1 2 3
M  V30 3 1 3 4
M  V30 4 1 4 5
M  V30 5 1 5 6
M  V30 6 1 6 7
M  V30 7 1 7 8
M  V30 8 2 8 9
M  V30 9 1 9 10
M  V30 10 1 10 11
M  V30 11 2 11 12
M  V30 12 1 12 13
M  V30 13 2 13 14
M  V30 14 1 14 15
M  V30 15 2 15 16
M  V30 16 1 16 17
M  V30 17 2 17 18
M  V30 18 1 12 19
M  V30 19 2 19 20
M  V30 20 1 20 21
M  V30 21 1 21 22
M  V30 22 2 22 23
M  V30 23 1 23 24
M  V30 24 2 24 25
M  V30 25 1 25 26
M  V30 26 2 26 27
M  V30 27 1 27 28
M  V30 28 1 20 29
M  V30 29 1 5 30
M  V30 30 1 30 31
M  V30 31 1 31 32
M  V30 32 1 31 2
M  V30 33 2 29 7
M  V30 34 1 29 10
M  V30 35 1 18 13
M  V30 36 1 27 22
M  V30 37 1 1 33
M  V30 38 1 1 34
M  V30 39 1 2 35 CFG=1
M  V30 40 1 3 36
M  V30 41 1 3 37
M  V30 42 1 4 38
M  V30 43 1 4 39
M  V30 44 1 6 40
M  V30 45 1 6 41
M  V30 46 1 8 42
M  V30 47 1 9 43
M  V30 48 1 14 44
M  V30 49 1 15 45
M  V30 50 1 16 46
M  V30 51 1 17 47
M  V30 52 1 21 48
M  V30 53 1 23 49
M  V30 54 1 24 50
M  V30 55 1 26 51
M  V30 56 1 30 52
M  V30 57 1 30 53
M  V30 58 1 31 54 CFG=3
M  V30 59 1 32 55
M  V30 END BOND
M  V30 END CTAB
M  END
>  <Dataset>  (636) 
ChEMBL_Kinases

>  <Ligand_Instance>  (636) 
nan

>  <PDB_ID>  (636) 
nan

>  <Standardized_SMILES>  (636) 
N[C@H]1CCN(Cc2ccn3nc(-c4ccccn4)nc(Nc4ccncc4F)c23)C[C@@H]1O

>  <Name>  (636) 
nan

>  <Pocket>  (636) 
nan

>  <ATP_Site>  (636) 
nan

>  <Peripheral>  (636) 
nan

>  <Num_H_Atoms_ProtBoundConf>  (636) 
nan

>  <Num_Resolved_Atoms>  (636) 
nan

>  <Num_Not_Resolved_Atoms>  (636) 
nan

$$$$
CHEMBL4783935
     RDKit          3D

  0  0  0  0  0  0  0  0  0  0999 V3000
M  V30 BEGIN CTAB
M  V30 COUNTS 55 58 0 0 0
M  V30 BEGIN ATOM
M  V30 1 C 0.029672 -3.770606 1.542973 0
M  V30 2 C 0.447058 -2.828582 0.449659 0 CFG=1
M  V30 3 C 1.788673 -2.237075 0.901768 0
M  V30 4 C 2.309426 -1.547992 -0.344134 0 CFG=1
M  V30 5 C 3.235349 -0.451578 -0.089707 0
M  V30 6 C 4.589382 -0.684207 0.042822 0
M  V30 7 C 5.401786 0.406029 0.282459 0
M  V30 8 N 4.911537 1.658942 0.386644 0
M  V30 9 C 3.591813 1.886898 0.257645 0
M  V30 10 C 2.732415 0.829302 0.016604 0
M  V30 11 N 1.366930 1.191734 -0.105458 0
M  V30 12 C 0.323067 1.320378 0.843995 0
M  V30 13 O 0.733773 1.053903 1.997541 0
M  V30 14 C -1.020380 1.715889 0.439181 0
M  V30 15 C -1.374961 1.998169 -0.934401 0
M  V30 16 S -3.204740 2.422575 -0.673598 0
M  V30 17 C -3.092737 2.135940 1.166273 0
M  V30 18 C -4.299018 2.331950 1.934730 0
M  V30 19 C -5.504117 2.711875 1.388733 0
M  V30 20 F -5.614039 2.923547 0.075752 0
M  V30 21 C -6.578580 2.860605 2.257583 0
M  V30 22 C -6.454594 2.637538 3.626320 0
M  V30 23 C -5.238559 2.260406 4.132738 0
M  V30 24 C -4.163401 2.110052 3.274289 0
M  V30 25 F -3.007183 1.738364 3.849342 0
M  V30 26 N -1.954290 1.821615 1.361820 0
M  V30 27 C 2.912920 -2.687828 -1.147670 0
M  V30 28 C 1.829204 -3.647796 -1.536146 0 CFG=1
M  V30 29 O 2.314396 -4.941010 -1.327358 0
M  V30 30 C 0.504678 -3.437518 -0.900961 0 CFG=1
M  V30 31 C -0.196390 -4.794592 -0.929069 0
M  V30 32 O -0.269782 -2.639503 -1.769613 0
M  V30 33 H 0.071667 -4.832335 1.248781 0
M  V30 34 H -1.018660 -3.612628 1.891084 0
M  V30 35 H 0.653939 -3.702222 2.463061 0
M  V30 36 H -0.248886 -1.961893 0.497088 0
M  V30 37 H 2.479334 -3.070347 1.198390 0
M  V30 38 H 1.631422 -1.517127 1.702176 0
M  V30 39 H 1.462053 -1.172921 -0.986678 0
M  V30 40 H 5.001451 -1.676117 -0.036831 0
M  V30 41 H 6.461193 0.292130 0.395060 0
M  V30 42 H 3.248809 2.907680 0.349361 0
M  V30 43 H 1.216017 1.377105 -1.140513 0
M  V30 44 H -0.653338 1.929345 -1.738745 0
M  V30 45 H -7.506561 3.160819 1.782430 0
M  V30 46 H -7.369531 2.789924 4.182739 0
M  V30 47 H -5.232849 2.108252 5.208221 0
M  V30 48 H 3.527639 -2.331903 -2.000288 0
M  V30 49 H 3.623294 -3.182021 -0.440451 0
M  V30 50 H 1.736550 -3.550953 -2.652655 0
M  V30 51 H 1.963467 -5.574523 -2.030707 0
M  V30 52 H 0.479698 -5.610123 -0.628584 0
M  V30 53 H -1.171794 -4.784026 -0.409224 0
M  V30 54 H -0.428030 -4.987376 -2.001180 0
M  V30 55 H -1.031110 -2.287098 -1.216040 0
M  V30 END ATOM
M  V30 BEGIN BOND
M  V30 1 1 1 2
M  V30 2 1 2 3
M  V30 3 1 3 4
M  V30 4 1 4 5
M  V30 5 2 5 6
M  V30 6 1 6 7
M  V30 7 2 7 8
M  V30 8 1 8 9
M  V30 9 2 9 10
M  V30 10 1 10 11
M  V30 11 1 11 12
M  V30 12 2 12 13
M  V30 13 1 12 14
M  V30 14 2 14 15
M  V30 15 1 15 16
M  V30 16 1 16 17
M  V30 17 1 17 18
M  V30 18 2 18 19
M  V30 19 1 19 20
M  V30 20 1 19 21
M  V30 21 2 21 22
M  V30 22 1 22 23
M  V30 23 2 23 24
M  V30 24 1 24 25
M  V30 25 2 17 26
M  V30 26 1 4 27
M  V30 27 1 27 28
M  V30 28 1 28 29
M  V30 29 1 28 30
M  V30 30 1 30 31
M  V30 31 1 30 32 CFG=3
M  V30 32 1 30 2
M  V30 33 1 10 5
M  V30 34 1 26 14
M  V30 35 1 24 18
M  V30 36 1 1 33
M  V30 37 1 1 34
M  V30 38 1 1 35
M  V30 39 1 2 36 CFG=3
M  V30 40 1 3 37
M  V30 41 1 3 38
M  V30 42 1 4 39 CFG=3
M  V30 43 1 6 40
M  V30 44 1 7 41
M  V30 45 1 9 42
M  V30 46 1 11 43
M  V30 47 1 15 44
M  V30 48 1 21 45
M  V30 49 1 22 46
M  V30 50 1 23 47
M  V30 51 1 27 48
M  V30 52 1 27 49
M  V30 53 1 28 50 CFG=3
M  V30 54 1 29 51
M  V30 55 1 31 52
M  V30 56 1 31 53
M  V30 57 1 31 54
M  V30 58 1 32 55
M  V30 END BOND
M  V30 END CTAB
M  END
>  <Dataset>  (637) 
ChEMBL_Kinases

>  <Ligand_Instance>  (637) 
nan

>  <PDB_ID>  (637) 
nan

>  <Standardized_SMILES>  (637) 
C[C@H]1C[C@@H](c2ccncc2NC(=O)c2csc(-c3c(F)cccc3F)n2)C[C@@H](O)[C@]1(C)O

>  <Name>  (637) 
nan

>  <Pocket>  (637) 
nan

>  <ATP_Site>  (637) 
nan

>  <Peripheral>  (637) 
nan

>  <Num_H_Atoms_ProtBoundConf>  (637) 
nan

>  <Num_Resolved_Atoms>  (637) 
nan

>  <Num_Not_Resolved_Atoms>  (637) 
nan

$$$$
CHEMBL4206171
     RDKit          3D

  0  0  0  0  0  0  0  0  0  0999 V3000
M  V30 BEGIN CTAB
M  V30 COUNTS 80 84 0 0 0
M  V30 BEGIN ATOM
M  V30 1 C -1.548204 2.276212 4.483060 0
M  V30 2 C -0.268521 1.538321 4.140699 0
M  V30 3 C 0.874334 2.526474 4.056866 0
M  V30 4 C 2.181667 1.846017 3.717552 0 CFG=2
M  V30 5 C 3.232513 2.932105 3.663944 0
M  V30 6 O 4.285867 3.162950 4.344615 0
M  V30 7 N 3.006344 3.903999 2.643309 0
M  V30 8 C 3.427595 5.316197 2.681445 0
M  V30 9 C 2.314079 3.512647 1.440608 0
M  V30 10 C 2.023346 4.349254 0.389068 0
M  V30 11 N 1.367046 3.848982 -0.663237 0
M  V30 12 C 0.963063 2.591071 -0.785554 0
M  V30 13 N 0.289359 2.201699 -1.972476 0
M  V30 14 C -0.347184 0.972927 -2.278535 0
M  V30 15 C -0.528842 -0.078217 -1.417452 0
M  V30 16 C -1.148938 -1.257628 -1.703298 0
M  V30 17 C -1.654213 -1.448615 -2.965487 0
M  V30 18 C -2.336729 -2.653563 -3.415762 0
M  V30 19 O -2.770508 -2.791663 -4.600525 0
M  V30 20 N -2.570582 -3.757739 -2.582134 0
M  V30 21 C -3.232420 -5.005191 -2.918633 0
M  V30 22 C -4.447134 -5.087571 -2.021583 0
M  V30 23 C -4.762289 -6.485227 -1.591770 0
M  V30 24 N -3.626464 -7.203112 -1.058310 0
M  V30 25 C -3.851893 -7.639668 0.307011 0
M  V30 26 C -2.387898 -6.482776 -1.195616 0
M  V30 27 C -2.264154 -6.120846 -2.682482 0
M  V30 28 C -1.502479 -0.416159 -3.889591 0
M  V30 29 C -0.865826 0.749781 -3.536056 0
M  V30 30 O -0.758799 1.719355 -4.508382 0
M  V30 31 C -1.245125 1.605748 -5.812499 0
M  V30 32 N 1.247110 1.775585 0.238555 0
M  V30 33 C 1.897246 2.207204 1.314842 0
M  V30 34 N 2.168468 1.296851 2.367821 0
M  V30 35 C 2.436152 -0.091959 2.260248 0
M  V30 36 C 3.757029 -0.480462 2.929669 0
M  V30 37 C 4.760513 0.109949 1.999106 0
M  V30 38 C 4.157504 -0.081916 0.609150 0
M  V30 39 C 2.746075 -0.611654 0.873672 0
M  V30 40 H -2.429484 1.617498 4.241151 0
M  V30 41 H -1.588447 2.423262 5.580935 0
M  V30 42 H -1.612668 3.236249 3.911612 0
M  V30 43 H -0.130084 0.754317 4.902521 0
M  V30 44 H -0.456105 1.044908 3.159428 0
M  V30 45 H 0.628118 3.217146 3.218335 0
M  V30 46 H 0.957507 3.108772 4.975139 0
M  V30 47 H 2.516402 1.158702 4.489398 0
M  V30 48 H 3.837672 5.486828 3.686808 0
M  V30 49 H 2.602816 6.012990 2.523673 0
M  V30 50 H 4.285145 5.442501 1.977053 0
M  V30 51 H 2.340172 5.370748 0.465279 0
M  V30 52 H 0.251121 2.926648 -2.749824 0
M  V30 53 H -0.168564 0.006253 -0.404624 0
M  V30 54 H -1.263705 -2.055635 -0.980041 0
M  V30 55 H -2.253447 -3.741434 -1.587697 0
M  V30 56 H -3.525594 -5.000331 -4.001229 0
M  V30 57 H -4.420091 -4.373013 -1.173867 0
M  V30 58 H -5.319340 -4.760555 -2.659986 0
M  V30 59 H -5.246439 -7.081161 -2.392815 0
M  V30 60 H -5.524235 -6.426854 -0.781112 0
M  V30 61 H -3.141699 -8.453317 0.564831 0
M  V30 62 H -3.623420 -6.794483 0.999042 0
M  V30 63 H -4.914536 -7.925214 0.432150 0
M  V30 64 H -2.464481 -5.551424 -0.623094 0
M  V30 65 H -1.571418 -7.152719 -0.864910 0
M  V30 66 H -1.206646 -5.834387 -2.825551 0
M  V30 67 H -2.460499 -7.033494 -3.283304 0
M  V30 68 H -1.893229 -0.551486 -4.885052 0
M  V30 69 H -1.318180 2.649209 -6.233344 0
M  V30 70 H -0.555162 1.045683 -6.501158 0
M  V30 71 H -2.276459 1.183305 -5.874882 0
M  V30 72 H 1.590489 -0.667601 2.668536 0
M  V30 73 H 3.805445 -1.591510 2.800750 0
M  V30 74 H 3.834668 -0.236313 3.973894 0
M  V30 75 H 5.748646 -0.427204 2.032768 0
M  V30 76 H 4.979421 1.164810 2.175734 0
M  V30 77 H 4.755839 -0.808604 0.036558 0
M  V30 78 H 4.114385 0.882912 0.094677 0
M  V30 79 H 2.101817 -0.312404 0.073687 0
M  V30 80 H 2.768577 -1.731506 0.940486 0
M  V30 END ATOM
M  V30 BEGIN BOND
M  V30 1 1 1 2
M  V30 2 1 2 3
M  V30 3 1 3 4
M  V30 4 1 4 5
M  V30 5 2 5 6
M  V30 6 1 5 7
M  V30 7 1 7 8
M  V30 8 1 7 9
M  V30 9 2 9 10
M  V30 10 1 10 11
M  V30 11 2 11 12
M  V30 12 1 12 13
M  V30 13 1 13 14
M  V30 14 2 14 15
M  V30 15 1 15 16
M  V30 16 2 16 17
M  V30 17 1 17 18
M  V30 18 2 18 19
M  V30 19 1 18 20
M  V30 20 1 20 21
M  V30 21 1 21 22
M  V30 22 1 22 23
M  V30 23 1 23 24
M  V30 24 1 24 25
M  V30 25 1 24 26
M  V30 26 1 26 27
M  V30 27 1 17 28
M  V30 28 2 28 29
M  V30 29 1 29 30
M  V30 30 1 30 31
M  V30 31 1 12 32
M  V30 32 2 32 33
M  V30 33 1 33 34
M  V30 34 1 34 35
M  V30 35 1 35 36
M  V30 36 1 36 37
M  V30 37 1 37 38
M  V30 38 1 38 39
M  V30 39 1 34 4
M  V30 40 1 39 35
M  V30 41 1 33 9
M  V30 42 1 29 14
M  V30 43 1 27 21
M  V30 44 1 1 40
M  V30 45 1 1 41
M  V30 46 1 1 42
M  V30 47 1 2 43
M  V30 48 1 2 44
M  V30 49 1 3 45
M  V30 50 1 3 46
M  V30 51 1 4 47 CFG=1
M  V30 52 1 8 48
M  V30 53 1 8 49
M  V30 54 1 8 50
M  V30 55 1 10 51
M  V30 56 1 13 52
M  V30 57 1 15 53
M  V30 58 1 16 54
M  V30 59 1 20 55
M  V30 60 1 21 56
M  V30 61 1 22 57
M  V30 62 1 22 58
M  V30 63 1 23 59
M  V30 64 1 23 60
M  V30 65 1 25 61
M  V30 66 1 25 62
M  V30 67 1 25 63
M  V30 68 1 26 64
M  V30 69 1 26 65
M  V30 70 1 27 66
M  V30 71 1 27 67
M  V30 72 1 28 68
M  V30 73 1 31 69
M  V30 74 1 31 70
M  V30 75 1 31 71
M  V30 76 1 35 72
M  V30 77 1 36 73
M  V30 78 1 36 74
M  V30 79 1 37 75
M  V30 80 1 37 76
M  V30 81 1 38 77
M  V30 82 1 38 78
M  V30 83 1 39 79
M  V30 84 1 39 80
M  V30 END BOND
M  V30 END CTAB
M  END
>  <Dataset>  (638) 
ChEMBL_Kinases

>  <Ligand_Instance>  (638) 
nan

>  <PDB_ID>  (638) 
nan

>  <Standardized_SMILES>  (638) 
CCC[C@@H]1C(=O)N(C)c2cnc(Nc3ccc(C(=O)NC4CCN(C)CC4)cc3OC)nc2N1C1CCCC1

>  <Name>  (638) 
nan

>  <Pocket>  (638) 
nan

>  <ATP_Site>  (638) 
nan

>  <Peripheral>  (638) 
nan

>  <Num_H_Atoms_ProtBoundConf>  (638) 
nan

>  <Num_Resolved_Atoms>  (638) 
nan

>  <Num_Not_Resolved_Atoms>  (638) 
nan

$$$$
CHEMBL4206154
     RDKit          3D

  0  0  0  0  0  0  0  0  0  0999 V3000
M  V30 BEGIN CTAB
M  V30 COUNTS 31 33 0 0 0
M  V30 BEGIN ATOM
M  V30 1 C -2.830031 -2.698560 0.274163 0
M  V30 2 C -1.613880 -3.365352 0.841740 0
M  V30 3 C -1.716492 -4.870266 0.826944 0
M  V30 4 N -1.397903 -2.847404 2.176063 0
M  V30 5 C -0.868712 -1.586617 2.498500 0
M  V30 6 O -1.095537 -1.041817 3.609360 0
M  V30 7 C -0.043458 -0.928608 1.495667 0
M  V30 8 C 0.593486 0.281140 1.531404 0
M  V30 9 C 1.324927 0.719568 0.477611 0
M  V30 10 C 2.085628 1.892870 0.207747 0
M  V30 11 C 2.725540 2.022829 -1.006169 0
M  V30 12 C 3.444039 3.213230 -1.166433 0
M  V30 13 N 3.494837 4.158249 -0.186483 0
M  V30 14 C 2.857351 4.004544 0.994914 0
M  V30 15 C 2.125045 2.836849 1.210753 0
M  V30 16 S 1.175620 -0.614124 -0.740116 0
M  V30 17 C 0.123459 -1.654771 0.303831 0
M  V30 18 N -0.464004 -2.954694 0.060601 0
M  V30 19 H -2.569754 -1.858402 -0.408446 0
M  V30 20 H -3.462356 -2.244737 1.083836 0
M  V30 21 H -3.493038 -3.391301 -0.276001 0
M  V30 22 H -0.719310 -5.342398 0.879829 0
M  V30 23 H -2.249151 -5.121031 -0.125301 0
M  V30 24 H -2.353916 -5.234989 1.659713 0
M  V30 25 H -1.672586 -3.497691 2.947890 0
M  V30 26 H 0.562525 0.956362 2.374884 0
M  V30 27 H 2.696185 1.287446 -1.790410 0
M  V30 28 H 3.963837 3.375569 -2.087119 0
M  V30 29 H 2.888400 4.746765 1.783427 0
M  V30 30 H 1.629100 2.736200 2.151635 0
M  V30 31 H 0.014788 -3.503172 -0.688574 0
M  V30 END ATOM
M  V30 BEGIN BOND
M  V30 1 1 1 2
M  V30 2 1 2 3
M  V30 3 1 2 4
M  V30 4 1 4 5
M  V30 5 2 5 6
M  V30 6 1 5 7
M  V30 7 1 7 8
M  V30 8 2 8 9
M  V30 9 1 9 10
M  V30 10 2 10 11
M  V30 11 1 11 12
M  V30 12 2 12 13
M  V30 13 1 13 14
M  V30 14 2 14 15
M  V30 15 1 9 16
M  V30 16 1 16 17
M  V30 17 1 17 18
M  V30 18 1 18 2
M  V30 19 2 17 7
M  V30 20 1 15 10
M  V30 21 1 1 19
M  V30 22 1 1 20
M  V30 23 1 1 21
M  V30 24 1 3 22
M  V30 25 1 3 23
M  V30 26 1 3 24
M  V30 27 1 4 25
M  V30 28 1 8 26
M  V30 29 1 11 27
M  V30 30 1 12 28
M  V30 31 1 14 29
M  V30 32 1 15 30
M  V30 33 1 18 31
M  V30 END BOND
M  V30 END CTAB
M  END
>  <Dataset>  (639) 
ChEMBL_Kinases

>  <Ligand_Instance>  (639) 
nan

>  <PDB_ID>  (639) 
nan

>  <Standardized_SMILES>  (639) 
CC1(C)NC(=O)c2cc(-c3ccncc3)sc2N1

>  <Name>  (639) 
nan

>  <Pocket>  (639) 
nan

>  <ATP_Site>  (639) 
nan

>  <Peripheral>  (639) 
nan

>  <Num_H_Atoms_ProtBoundConf>  (639) 
nan

>  <Num_Resolved_Atoms>  (639) 
nan

>  <Num_Not_Resolved_Atoms>  (639) 
nan

$$$$
CHEMBL4206139
     RDKit          3D

  0  0  0  0  0  0  0  0  0  0999 V3000
M  V30 BEGIN CTAB
M  V30 COUNTS 77 82 0 0 0
M  V30 BEGIN ATOM
M  V30 1 C 2.067212 -8.076341 5.001810 0
M  V30 2 C 2.718133 -7.446437 3.820267 0
M  V30 3 C 4.048852 -7.658987 3.511793 0
M  V30 4 C 4.627505 -7.060781 2.407744 0
M  V30 5 C 3.868958 -6.234913 1.593941 0
M  V30 6 N 4.384045 -5.568463 0.422676 0
M  V30 7 C 3.602181 -4.717925 -0.413262 0
M  V30 8 N 2.932482 -5.232674 -1.459901 0
M  V30 9 C 2.202596 -4.415728 -2.238625 0
M  V30 10 C 2.129447 -3.039381 -1.976576 0
M  V30 11 C 2.803713 -2.531274 -0.917332 0
M  V30 12 N 3.508364 -3.405230 -0.192003 0
M  V30 13 N 2.609578 -1.154122 -0.630934 0
M  V30 14 C 3.351985 -0.602189 0.478488 0
M  V30 15 C 2.542970 -0.710633 1.709481 0
M  V30 16 C 2.564377 -1.782791 2.573742 0
M  V30 17 C 1.816230 -1.892403 3.726101 0
M  V30 18 C 0.964407 -0.869353 4.081064 0
M  V30 19 C 0.894685 0.222539 3.269893 0
M  V30 20 C 1.663877 0.287088 2.125261 0
M  V30 21 C 1.712406 -0.438106 -1.460041 0
M  V30 22 O 1.687486 0.777174 -1.067134 0
M  V30 23 N 0.959172 -0.943956 -2.550352 0
M  V30 24 C -0.158329 -0.203029 -3.010200 0
M  V30 25 C -0.714312 0.815584 -2.268925 0
M  V30 26 C -1.781293 1.594098 -2.646851 0
M  V30 27 N -2.366210 2.649272 -1.892493 0
M  V30 28 C -3.403155 2.679224 -0.950390 0
M  V30 29 O -3.957443 1.565390 -0.689387 0
M  V30 30 C -3.775177 3.950767 -0.341697 0
M  V30 31 C -3.208295 5.183394 -0.587098 0
M  V30 32 C -3.659115 6.313752 0.062103 0
M  V30 33 C -4.695386 6.264344 0.984813 0
M  V30 34 C -5.182137 7.480360 1.685039 0
M  V30 35 C -5.274939 5.047592 1.245044 0
M  V30 36 C -6.394231 4.926111 2.227039 0
M  V30 37 F -5.994919 5.348370 3.496941 0
M  V30 38 F -6.778551 3.612747 2.333820 0
M  V30 39 F -7.427514 5.736948 1.842463 0
M  V30 40 C -4.819711 3.899577 0.588065 0
M  V30 41 C -2.383941 1.374416 -3.867899 0
M  V30 42 C -1.867484 0.366755 -4.649617 0
M  V30 43 C -0.776003 -0.401675 -4.221774 0
M  V30 44 C -0.339580 -1.433539 -5.188442 0
M  V30 45 C 1.401954 -2.203974 -3.004970 0
M  V30 46 C 2.541831 -6.047552 1.936148 0
M  V30 47 N 1.964511 -6.635157 3.024668 0
M  V30 48 H 2.470472 -9.082680 5.159180 0
M  V30 49 H 0.974017 -8.206089 4.793913 0
M  V30 50 H 2.212820 -7.417915 5.882409 0
M  V30 51 H 4.655120 -8.291486 4.123422 0
M  V30 52 H 5.667099 -7.202074 2.131985 0
M  V30 53 H 5.398593 -5.736225 0.193815 0
M  V30 54 H 1.677437 -4.859561 -3.070000 0
M  V30 55 H 3.466634 0.486686 0.261282 0
M  V30 56 H 4.334838 -1.099030 0.606854 0
M  V30 57 H 3.191002 -2.619771 2.399406 0
M  V30 58 H 1.856621 -2.749736 4.383663 0
M  V30 59 H 0.371508 -0.938947 4.979454 0
M  V30 60 H 0.218100 1.008399 3.574362 0
M  V30 61 H 1.528532 1.190175 1.579233 0
M  V30 62 H -0.412125 1.137122 -1.287413 0
M  V30 63 H -1.811225 3.470537 -2.216832 0
M  V30 64 H -2.407069 5.195297 -1.306191 0
M  V30 65 H -3.173170 7.254769 -0.173152 0
M  V30 66 H -4.567764 8.362017 1.439440 0
M  V30 67 H -5.171452 7.372093 2.795247 0
M  V30 68 H -6.222812 7.745334 1.420011 0
M  V30 69 H -5.326353 2.963876 0.843123 0
M  V30 70 H -3.225465 1.932755 -4.250401 0
M  V30 71 H -2.341452 0.185172 -5.621802 0
M  V30 72 H -0.701821 -1.129450 -6.237800 0
M  V30 73 H -0.896160 -2.409367 -5.069382 0
M  V30 74 H 0.730706 -1.525886 -5.337263 0
M  V30 75 H 0.609669 -2.876176 -3.376422 0
M  V30 76 H 2.239420 -2.051443 -3.768745 0
M  V30 77 H 1.904786 -5.410279 1.331777 0
M  V30 END ATOM
M  V30 BEGIN BOND
M  V30 1 1 1 2
M  V30 2 2 2 3
M  V30 3 1 3 4
M  V30 4 2 4 5
M  V30 5 1 5 6
M  V30 6 1 6 7
M  V30 7 2 7 8
M  V30 8 1 8 9
M  V30 9 2 9 10
M  V30 10 1 10 11
M  V30 11 2 11 12
M  V30 12 1 11 13
M  V30 13 1 13 14
M  V30 14 1 14 15
M  V30 15 2 15 16
M  V30 16 1 16 17
M  V30 17 2 17 18
M  V30 18 1 18 19
M  V30 19 2 19 20
M  V30 20 1 13 21
M  V30 21 2 21 22
M  V30 22 1 21 23
M  V30 23 1 23 24
M  V30 24 2 24 25
M  V30 25 1 25 26
M  V30 26 1 26 27
M  V30 27 1 27 28
M  V30 28 2 28 29
M  V30 29 1 28 30
M  V30 30 2 30 31
M  V30 31 1 31 32
M  V30 32 2 32 33
M  V30 33 1 33 34
M  V30 34 1 33 35
M  V30 35 1 35 36
M  V30 36 1 36 37
M  V30 37 1 36 38
M  V30 38 1 36 39
M  V30 39 2 35 40
M  V30 40 2 26 41
M  V30 41 1 41 42
M  V30 42 2 42 43
M  V30 43 1 43 44
M  V30 44 1 23 45
M  V30 45 1 5 46
M  V30 46 2 46 47
M  V30 47 1 47 2
M  V30 48 1 12 7
M  V30 49 1 20 15
M  V30 50 1 43 24
M  V30 51 1 45 10
M  V30 52 1 40 30
M  V30 53 1 1 48
M  V30 54 1 1 49
M  V30 55 1 1 50
M  V30 56 1 3 51
M  V30 57 1 4 52
M  V30 58 1 6 53
M  V30 59 1 9 54
M  V30 60 1 14 55
M  V30 61 1 14 56
M  V30 62 1 16 57
M  V30 63 1 17 58
M  V30 64 1 18 59
M  V30 65 1 19 60
M  V30 66 1 20 61
M  V30 67 1 25 62
M  V30 68 1 27 63
M  V30 69 1 31 64
M  V30 70 1 32 65
M  V30 71 1 34 66
M  V30 72 1 34 67
M  V30 73 1 34 68
M  V30 74 1 40 69
M  V30 75 1 41 70
M  V30 76 1 42 71
M  V30 77 1 44 72
M  V30 78 1 44 73
M  V30 79 1 44 74
M  V30 80 1 45 75
M  V30 81 1 45 76
M  V30 82 1 46 77
M  V30 END BOND
M  V30 END CTAB
M  END
>  <Dataset>  (640) 
ChEMBL_Kinases

>  <Ligand_Instance>  (640) 
nan

>  <PDB_ID>  (640) 
nan

>  <Standardized_SMILES>  (640) 
Cc1ccc(Nc2ncc3c(n2)N(Cc2ccccc2)C(=O)N(c2cc(NC(=O)c4ccc(C)c(C(F)(F)F)c4)ccc2C)C3)cn1

>  <Name>  (640) 
nan

>  <Pocket>  (640) 
nan

>  <ATP_Site>  (640) 
nan

>  <Peripheral>  (640) 
nan

>  <Num_H_Atoms_ProtBoundConf>  (640) 
nan

>  <Num_Resolved_Atoms>  (640) 
nan

>  <Num_Not_Resolved_Atoms>  (640) 
nan

$$$$
CHEMBL4206138
     RDKit          3D

  0  0  0  0  0  0  0  0  0  0999 V3000
M  V30 BEGIN CTAB
M  V30 COUNTS 32 34 0 0 0
M  V30 BEGIN ATOM
M  V30 1 O 1.814906 -3.883902 2.209795 0
M  V30 2 C 2.025201 -2.660338 1.942845 0
M  V30 3 N 3.296448 -2.047929 2.190192 0
M  V30 4 C 3.258159 -0.669328 1.799492 0
M  V30 5 C 4.189480 0.349410 1.824302 0
M  V30 6 C 3.782020 1.594743 1.349538 0
M  V30 7 C 2.498553 1.855968 0.858536 0
M  V30 8 Cl 2.140775 3.485532 0.294584 0
M  V30 9 C 1.584889 0.823019 0.843392 0
M  V30 10 C 1.992030 -0.412109 1.315254 0
M  V30 11 C 1.159185 -1.610537 1.371906 0
M  V30 12 N -0.035976 -1.914695 1.064833 0
M  V30 13 N -0.987245 -1.046596 0.515886 0
M  V30 14 C -1.055510 -0.972261 -0.952767 0
M  V30 15 C -2.413410 -1.416833 -1.431292 0
M  V30 16 C -3.394522 -1.656579 -0.322996 0
M  V30 17 C -3.309243 -0.753124 0.842803 0
M  V30 18 C -1.966426 -0.163006 1.135742 0
M  V30 19 H 4.150373 -2.513275 2.596846 0
M  V30 20 H 5.178850 0.187616 2.191932 0
M  V30 21 H 4.508555 2.395150 1.367338 0
M  V30 22 H 0.595026 1.020429 0.465825 0
M  V30 23 H -0.221037 -1.493998 -1.420667 0
M  V30 24 H -0.958946 0.109173 -1.201332 0
M  V30 25 H -2.839444 -0.752234 -2.214613 0
M  V30 26 H -2.260821 -2.403823 -1.940732 0
M  V30 27 H -4.412621 -1.543972 -0.778938 0
M  V30 28 H -3.357240 -2.736727 0.002579 0
M  V30 29 H -3.609446 -1.331792 1.766008 0
M  V30 30 H -4.043151 0.095999 0.812943 0
M  V30 31 H -1.866022 0.859809 0.687472 0
M  V30 32 H -1.745504 -0.138090 2.220669 0
M  V30 END ATOM
M  V30 BEGIN BOND
M  V30 1 2 1 2
M  V30 2 1 2 3
M  V30 3 1 3 4
M  V30 4 2 4 5
M  V30 5 1 5 6
M  V30 6 2 6 7
M  V30 7 1 7 8
M  V30 8 1 7 9
M  V30 9 2 9 10
M  V30 10 1 10 11
M  V30 11 2 11 12 CFG=2
M  V30 12 1 12 13
M  V30 13 1 13 14
M  V30 14 1 14 15
M  V30 15 1 15 16
M  V30 16 1 16 17
M  V30 17 1 17 18
M  V30 18 1 11 2
M  V30 19 1 18 13
M  V30 20 1 10 4
M  V30 21 1 3 19
M  V30 22 1 5 20
M  V30 23 1 6 21
M  V30 24 1 9 22
M  V30 25 1 14 23
M  V30 26 1 14 24
M  V30 27 1 15 25
M  V30 28 1 15 26
M  V30 29 1 16 27
M  V30 30 1 16 28
M  V30 31 1 17 29
M  V30 32 1 17 30
M  V30 33 1 18 31
M  V30 34 1 18 32
M  V30 END BOND
M  V30 END CTAB
M  END
>  <Dataset>  (641) 
ChEMBL_Kinases

>  <Ligand_Instance>  (641) 
nan

>  <PDB_ID>  (641) 
nan

>  <Standardized_SMILES>  (641) 
O=C1Nc2ccc(Cl)cc2C1=NN1CCCCC1

>  <Name>  (641) 
nan

>  <Pocket>  (641) 
nan

>  <ATP_Site>  (641) 
nan

>  <Peripheral>  (641) 
nan

>  <Num_H_Atoms_ProtBoundConf>  (641) 
nan

>  <Num_Resolved_Atoms>  (641) 
nan

>  <Num_Not_Resolved_Atoms>  (641) 
nan

$$$$
CHEMBL4784002
     RDKit          3D

  0  0  0  0  0  0  0  0  0  0999 V3000
M  V30 BEGIN CTAB
M  V30 COUNTS 54 58 0 0 0
M  V30 BEGIN ATOM
M  V30 1 C 1.055666 1.903205 7.561425 0
M  V30 2 N 0.610733 2.530831 6.329062 0
M  V30 3 C 1.177509 2.195024 5.139680 0
M  V30 4 C 0.572485 2.939864 4.127893 0
M  V30 5 C 0.944266 2.828185 2.720277 0
M  V30 6 C 1.374302 1.560923 2.324894 0
M  V30 7 C 1.754590 1.352983 1.012221 0
M  V30 8 C 1.733098 2.338895 0.058356 0
M  V30 9 C 2.119785 2.129576 -1.262212 0
M  V30 10 N 2.537076 0.802230 -1.555823 0
M  V30 11 C 1.679478 -0.207956 -2.076927 0
M  V30 12 C 0.370390 0.111133 -2.387628 0
M  V30 13 C -0.463451 -0.875751 -2.894677 0
M  V30 14 C 0.093432 -2.139430 -3.055232 0
M  V30 15 N -0.674206 -3.251245 -3.573569 0
M  V30 16 C -1.280031 -3.876080 -2.454853 0
M  V30 17 O -0.990519 -3.307174 -1.354906 0
M  V30 18 N -2.129868 -5.008757 -2.427344 0
M  V30 19 C -2.745228 -5.647035 -1.329994 0
M  V30 20 C -2.658301 -5.293048 -0.009447 0
M  V30 21 C -3.278134 -5.951027 1.018117 0
M  V30 22 C -4.049438 -7.049095 0.739851 0
M  V30 23 C -4.160487 -7.440007 -0.599640 0
M  V30 24 F -4.904256 -8.511332 -0.928679 0
M  V30 25 C -3.519908 -6.748468 -1.603229 0
M  V30 26 C 1.403230 -2.450004 -2.742182 0
M  V30 27 C 2.229905 -1.464015 -2.237837 0
M  V30 28 N 2.053895 3.196179 -2.110133 0
M  V30 29 C 1.629562 4.401440 -1.676279 0
M  V30 30 N 1.250705 4.617419 -0.391533 0
M  V30 31 C 1.302118 3.585042 0.478935 0
M  V30 32 C 0.907923 3.839679 1.797612 0
M  V30 33 C -0.361900 3.715150 4.778608 0
M  V30 34 N -0.322055 3.453974 6.097615 0
M  V30 35 H 2.083807 2.265530 7.810219 0
M  V30 36 H 1.080547 0.812257 7.361578 0
M  V30 37 H 0.345338 2.096686 8.391186 0
M  V30 38 H 1.978757 1.462625 4.968310 0
M  V30 39 H 1.423359 0.728956 3.011632 0
M  V30 40 H 2.083071 0.370529 0.725725 0
M  V30 41 H 3.537074 0.653528 -1.345467 0
M  V30 42 H -0.059679 1.095682 -2.260906 0
M  V30 43 H -1.494128 -0.741029 -3.169452 0
M  V30 44 H -0.905553 -3.715762 -4.506143 0
M  V30 45 H -2.263009 -5.352625 -3.399058 0
M  V30 46 H -2.071741 -4.445931 0.272187 0
M  V30 47 H -3.171025 -5.619581 2.054351 0
M  V30 48 H -4.557205 -7.598858 1.523467 0
M  V30 49 H -3.641432 -7.097314 -2.630430 0
M  V30 50 H 1.823852 -3.442110 -2.874625 0
M  V30 51 H 3.259144 -1.674958 -1.985640 0
M  V30 52 H 1.618291 5.176799 -2.449617 0
M  V30 53 H 0.570065 4.806677 2.128901 0
M  V30 54 H -1.010940 4.414137 4.270059 0
M  V30 END ATOM
M  V30 BEGIN BOND
M  V30 1 1 1 2
M  V30 2 1 2 3
M  V30 3 2 3 4
M  V30 4 1 4 5
M  V30 5 2 5 6
M  V30 6 1 6 7
M  V30 7 2 7 8
M  V30 8 1 8 9
M  V30 9 1 9 10
M  V30 10 1 10 11
M  V30 11 2 11 12
M  V30 12 1 12 13
M  V30 13 2 13 14
M  V30 14 1 14 15
M  V30 15 1 15 16
M  V30 16 2 16 17
M  V30 17 1 16 18
M  V30 18 1 18 19
M  V30 19 2 19 20
M  V30 20 1 20 21
M  V30 21 2 21 22
M  V30 22 1 22 23
M  V30 23 1 23 24
M  V30 24 2 23 25
M  V30 25 1 14 26
M  V30 26 2 26 27
M  V30 27 2 9 28
M  V30 28 1 28 29
M  V30 29 2 29 30
M  V30 30 1 30 31
M  V30 31 2 31 32
M  V30 32 1 4 33
M  V30 33 2 33 34
M  V30 34 1 34 2
M  V30 35 1 32 5
M  V30 36 1 31 8
M  V30 37 1 27 11
M  V30 38 1 25 19
M  V30 39 1 1 35
M  V30 40 1 1 36
M  V30 41 1 1 37
M  V30 42 1 3 38
M  V30 43 1 6 39
M  V30 44 1 7 40
M  V30 45 1 10 41
M  V30 46 1 12 42
M  V30 47 1 13 43
M  V30 48 1 15 44
M  V30 49 1 18 45
M  V30 50 1 20 46
M  V30 51 1 21 47
M  V30 52 1 22 48
M  V30 53 1 25 49
M  V30 54 1 26 50
M  V30 55 1 27 51
M  V30 56 1 29 52
M  V30 57 1 32 53
M  V30 58 1 33 54
M  V30 END BOND
M  V30 END CTAB
M  END
>  <Dataset>  (642) 
ChEMBL_Kinases

>  <Ligand_Instance>  (642) 
nan

>  <PDB_ID>  (642) 
nan

>  <Standardized_SMILES>  (642) 
Cn1cc(-c2ccc3c(Nc4ccc(NC(=O)Nc5cccc(F)c5)cc4)ncnc3c2)cn1

>  <Name>  (642) 
nan

>  <Pocket>  (642) 
nan

>  <ATP_Site>  (642) 
nan

>  <Peripheral>  (642) 
nan

>  <Num_H_Atoms_ProtBoundConf>  (642) 
nan

>  <Num_Resolved_Atoms>  (642) 
nan

>  <Num_Not_Resolved_Atoms>  (642) 
nan

$$$$
CHEMBL4206381
     RDKit          3D

  0  0  0  0  0  0  0  0  0  0999 V3000
M  V30 BEGIN CTAB
M  V30 COUNTS 84 89 0 0 0
M  V30 BEGIN ATOM
M  V30 1 C 5.706295 0.101582 4.944899 0
M  V30 2 C 4.936024 -0.966989 4.265123 0 CFG=1
M  V30 3 C 3.984717 -1.667876 5.163920 0
M  V30 4 O 3.867965 -1.348256 6.388349 0
M  V30 5 N 3.178338 -2.725787 4.652867 0
M  V30 6 C 2.723929 -3.821419 5.523762 0
M  V30 7 C 2.850715 -2.635192 3.262597 0
M  V30 8 C 2.069215 -3.654344 2.761388 0
M  V30 9 N 1.763554 -3.550604 1.436325 0
M  V30 10 C 2.233782 -2.484471 0.721141 0
M  V30 11 N 1.947006 -2.331630 -0.668885 0
M  V30 12 C 0.742141 -1.751471 -1.211541 0
M  V30 13 C -0.172563 -1.382200 -0.232594 0
M  V30 14 C -1.396121 -0.821110 -0.521292 0
M  V30 15 C -1.718458 -0.620331 -1.855080 0
M  V30 16 C -2.962272 -0.050547 -2.351043 0
M  V30 17 O -3.267162 0.164439 -3.566349 0
M  V30 18 N -4.000899 0.334571 -1.461926 0
M  V30 19 C -5.287199 0.909454 -1.790536 0
M  V30 20 C -5.554592 2.132864 -0.980209 0
M  V30 21 C -6.544407 1.883850 0.138098 0
M  V30 22 N -6.329753 0.633452 0.820167 0
M  V30 23 C -7.485273 0.434074 1.699652 0
M  V30 24 C -6.232816 -0.509928 -0.034038 0
M  V30 25 C -6.365366 -0.106441 -1.474229 0
M  V30 26 C -0.809374 -0.987296 -2.818160 0
M  V30 27 C 0.419130 -1.549202 -2.560219 0
M  V30 28 O 1.424043 -1.964037 -3.374946 0
M  V30 29 C 1.512479 -1.939729 -4.763732 0
M  V30 30 C 0.476621 -2.756065 -5.461379 0
M  V30 31 C 0.125951 -2.010984 -6.731525 0
M  V30 32 C 1.104175 -0.858694 -6.817484 0
M  V30 33 C 1.511622 -0.577993 -5.374320 0
M  V30 34 N 2.987237 -1.529962 1.265225 0
M  V30 35 C 3.326496 -1.557768 2.537582 0
M  V30 36 N 4.142541 -0.509693 3.108371 0
M  V30 37 C 4.178461 0.822392 2.636672 0
M  V30 38 C 3.497529 1.239773 1.411105 0
M  V30 39 C 2.238418 1.965742 1.915241 0
M  V30 40 C 2.776360 2.783928 3.077302 0
M  V30 41 C 3.698992 1.807000 3.731531 0
M  V30 42 H 5.163670 0.657234 5.735500 0
M  V30 43 H 6.240922 0.708599 4.216688 0
M  V30 44 H 6.524035 -0.432318 5.521846 0
M  V30 45 H 5.639631 -1.751024 3.909446 0
M  V30 46 H 3.158268 -3.652844 6.513079 0
M  V30 47 H 1.600577 -3.783924 5.588124 0
M  V30 48 H 2.972278 -4.791239 5.068558 0
M  V30 49 H 1.732792 -4.463410 3.377917 0
M  V30 50 H 2.608678 -2.637303 -1.432318 0
M  V30 51 H -0.002674 -1.502826 0.840480 0
M  V30 52 H -2.131592 -0.521512 0.206802 0
M  V30 53 H -3.911026 0.228605 -0.433535 0
M  V30 54 H -5.343149 1.064864 -2.895775 0
M  V30 55 H -6.048269 2.886453 -1.660556 0
M  V30 56 H -4.653357 2.641464 -0.588965 0
M  V30 57 H -7.583956 1.967556 -0.236735 0
M  V30 58 H -6.392682 2.702921 0.866423 0
M  V30 59 H -7.930408 1.389142 2.035274 0
M  V30 60 H -8.266153 -0.086436 1.075860 0
M  V30 61 H -7.262520 -0.263966 2.522588 0
M  V30 62 H -5.304213 -1.128471 0.133352 0
M  V30 63 H -7.060824 -1.255520 0.155809 0
M  V30 64 H -7.355624 0.376052 -1.599284 0
M  V30 65 H -6.310067 -0.986128 -2.161000 0
M  V30 66 H -1.005742 -0.854879 -3.871198 0
M  V30 67 H 2.512242 -2.401549 -5.048792 0
M  V30 68 H 0.860538 -3.778104 -5.696401 0
M  V30 69 H -0.457121 -2.926646 -4.901436 0
M  V30 70 H -0.900862 -1.600495 -6.727755 0
M  V30 71 H 0.221751 -2.721665 -7.591773 0
M  V30 72 H 0.621645 0.023618 -7.240869 0
M  V30 73 H 1.970208 -1.169716 -7.423933 0
M  V30 74 H 2.558040 -0.175557 -5.414616 0
M  V30 75 H 0.878039 0.166603 -4.896124 0
M  V30 76 H 5.273683 1.080488 2.510708 0
M  V30 77 H 4.066532 2.117829 0.934246 0
M  V30 78 H 3.338676 0.577344 0.588154 0
M  V30 79 H 1.475154 1.298875 2.301189 0
M  V30 80 H 1.798106 2.620549 1.151094 0
M  V30 81 H 2.019380 3.099340 3.794075 0
M  V30 82 H 3.338264 3.675455 2.714313 0
M  V30 83 H 3.202059 1.189459 4.507256 0
M  V30 84 H 4.513855 2.356811 4.190790 0
M  V30 END ATOM
M  V30 BEGIN BOND
M  V30 1 1 1 2
M  V30 2 1 2 3
M  V30 3 2 3 4
M  V30 4 1 3 5
M  V30 5 1 5 6
M  V30 6 1 5 7
M  V30 7 2 7 8
M  V30 8 1 8 9
M  V30 9 2 9 10
M  V30 10 1 10 11
M  V30 11 1 11 12
M  V30 12 2 12 13
M  V30 13 1 13 14
M  V30 14 2 14 15
M  V30 15 1 15 16
M  V30 16 2 16 17
M  V30 17 1 16 18
M  V30 18 1 18 19
M  V30 19 1 19 20
M  V30 20 1 20 21
M  V30 21 1 21 22
M  V30 22 1 22 23
M  V30 23 1 22 24
M  V30 24 1 24 25
M  V30 25 1 15 26
M  V30 26 2 26 27
M  V30 27 1 27 28
M  V30 28 1 28 29
M  V30 29 1 29 30
M  V30 30 1 30 31
M  V30 31 1 31 32
M  V30 32 1 32 33
M  V30 33 1 10 34
M  V30 34 2 34 35
M  V30 35 1 35 36
M  V30 36 1 36 37
M  V30 37 1 37 38
M  V30 38 1 38 39
M  V30 39 1 39 40
M  V30 40 1 40 41
M  V30 41 1 36 2
M  V30 42 1 41 37
M  V30 43 1 35 7
M  V30 44 1 27 12
M  V30 45 1 33 29
M  V30 46 1 25 19
M  V30 47 1 1 42
M  V30 48 1 1 43
M  V30 49 1 1 44
M  V30 50 1 2 45 CFG=3
M  V30 51 1 6 46
M  V30 52 1 6 47
M  V30 53 1 6 48
M  V30 54 1 8 49
M  V30 55 1 11 50
M  V30 56 1 13 51
M  V30 57 1 14 52
M  V30 58 1 18 53
M  V30 59 1 19 54
M  V30 60 1 20 55
M  V30 61 1 20 56
M  V30 62 1 21 57
M  V30 63 1 21 58
M  V30 64 1 23 59
M  V30 65 1 23 60
M  V30 66 1 23 61
M  V30 67 1 24 62
M  V30 68 1 24 63
M  V30 69 1 25 64
M  V30 70 1 25 65
M  V30 71 1 26 66
M  V30 72 1 29 67
M  V30 73 1 30 68
M  V30 74 1 30 69
M  V30 75 1 31 70
M  V30 76 1 31 71
M  V30 77 1 32 72
M  V30 78 1 32 73
M  V30 79 1 33 74
M  V30 80 1 33 75
M  V30 81 1 37 76
M  V30 82 1 38 77
M  V30 83 1 38 78
M  V30 84 1 39 79
M  V30 85 1 39 80
M  V30 86 1 40 81
M  V30 87 1 40 82
M  V30 88 1 41 83
M  V30 89 1 41 84
M  V30 END BOND
M  V30 END CTAB
M  END
>  <Dataset>  (643) 
ChEMBL_Kinases

>  <Ligand_Instance>  (643) 
nan

>  <PDB_ID>  (643) 
nan

>  <Standardized_SMILES>  (643) 
C[C@H]1C(=O)N(C)c2cnc(Nc3ccc(C(=O)NC4CCN(C)CC4)cc3OC3CCCC3)nc2N1C1CCCC1

>  <Name>  (643) 
nan

>  <Pocket>  (643) 
nan

>  <ATP_Site>  (643) 
nan

>  <Peripheral>  (643) 
nan

>  <Num_H_Atoms_ProtBoundConf>  (643) 
nan

>  <Num_Resolved_Atoms>  (643) 
nan

>  <Num_Not_Resolved_Atoms>  (643) 
nan

$$$$
CHEMBL478324
     RDKit          3D

  0  0  0  0  0  0  0  0  0  0999 V3000
M  V30 BEGIN CTAB
M  V30 COUNTS 48 51 0 0 0
M  V30 BEGIN ATOM
M  V30 1 C -2.490921 -2.902469 3.733918 0
M  V30 2 C -1.057699 -2.746890 3.379470 0
M  V30 3 O -0.398922 -3.387364 4.263495 0
M  V30 4 C -0.410416 -2.029913 2.271945 0
M  V30 5 C 0.911171 -2.057009 2.221900 0
M  V30 6 O 1.853061 -2.656475 3.039025 0
M  V30 7 C 1.222290 -1.261431 1.043486 0
M  V30 8 O 2.421527 -1.046388 0.644186 0
M  V30 9 N 0.008733 -0.769950 0.417049 0
M  V30 10 C 0.075229 0.077913 -0.740154 0
M  V30 11 C 0.109279 1.556280 -0.359554 0
M  V30 12 C 1.251333 1.935488 0.463597 0
M  V30 13 C 1.249120 2.170060 1.835319 0
M  V30 14 N 2.521121 2.496259 2.212332 0
M  V30 15 C 3.318905 2.474810 1.128701 0
M  V30 16 C 4.662059 2.718753 0.934659 0
M  V30 17 C 5.218131 2.616942 -0.332744 0
M  V30 18 C 4.425228 2.269662 -1.408040 0
M  V30 19 C 3.056588 2.012994 -1.257047 0
M  V30 20 C 2.545536 2.125473 0.018390 0
M  V30 21 C -1.064818 -1.311516 1.201563 0
M  V30 22 C -2.099228 -1.995162 0.442681 0
M  V30 23 C -2.851857 -1.253529 -0.437577 0
M  V30 24 C -3.837698 -1.832809 -1.214425 0
M  V30 25 C -4.120644 -3.180749 -1.150091 0
M  V30 26 O -5.094674 -3.826631 -1.899452 0
M  V30 27 C -3.380489 -3.976905 -0.267846 0
M  V30 28 C -2.411811 -3.339299 0.478353 0
M  V30 29 H -2.623072 -2.494626 4.770786 0
M  V30 30 H -2.760814 -3.974260 3.681494 0
M  V30 31 H -3.168423 -2.331596 3.057989 0
M  V30 32 H 1.949408 -2.262024 3.986814 0
M  V30 33 H 1.073053 -0.059412 -1.267598 0
M  V30 34 H -0.638639 -0.132369 -1.538588 0
M  V30 35 H 0.074043 2.183607 -1.273395 0
M  V30 36 H -0.867146 1.761793 0.153508 0
M  V30 37 H 0.384153 2.108179 2.514934 0
M  V30 38 H 2.838605 2.730025 3.197205 0
M  V30 39 H 5.284260 2.990783 1.777377 0
M  V30 40 H 6.290257 2.818739 -0.446106 0
M  V30 41 H 4.832723 2.183804 -2.404262 0
M  V30 42 H 2.440895 1.741681 -2.102462 0
M  V30 43 H -1.560285 -0.405513 1.683800 0
M  V30 44 H -2.805116 -0.192696 -0.638808 0
M  V30 45 H -4.477119 -1.333263 -1.931552 0
M  V30 46 H -5.774210 -4.376171 -1.385534 0
M  V30 47 H -3.538184 -5.041602 -0.155801 0
M  V30 48 H -1.840498 -3.962437 1.151787 0
M  V30 END ATOM
M  V30 BEGIN BOND
M  V30 1 1 1 2
M  V30 2 2 2 3
M  V30 3 1 2 4
M  V30 4 2 4 5
M  V30 5 1 5 6
M  V30 6 1 5 7
M  V30 7 2 7 8
M  V30 8 1 7 9
M  V30 9 1 9 10
M  V30 10 1 10 11
M  V30 11 1 11 12
M  V30 12 2 12 13
M  V30 13 1 13 14
M  V30 14 1 14 15
M  V30 15 2 15 16
M  V30 16 1 16 17
M  V30 17 2 17 18
M  V30 18 1 18 19
M  V30 19 2 19 20
M  V30 20 1 9 21
M  V30 21 1 21 22
M  V30 22 2 22 23
M  V30 23 1 23 24
M  V30 24 2 24 25
M  V30 25 1 25 26
M  V30 26 1 25 27
M  V30 27 2 27 28
M  V30 28 1 21 4
M  V30 29 1 28 22
M  V30 30 1 20 12
M  V30 31 1 20 15
M  V30 32 1 1 29
M  V30 33 1 1 30
M  V30 34 1 1 31
M  V30 35 1 6 32
M  V30 36 1 10 33
M  V30 37 1 10 34
M  V30 38 1 11 35
M  V30 39 1 11 36
M  V30 40 1 13 37
M  V30 41 1 14 38
M  V30 42 1 16 39
M  V30 43 1 17 40
M  V30 44 1 18 41
M  V30 45 1 19 42
M  V30 46 1 21 43
M  V30 47 1 23 44
M  V30 48 1 24 45
M  V30 49 1 26 46
M  V30 50 1 27 47
M  V30 51 1 28 48
M  V30 END BOND
M  V30 END CTAB
M  END
>  <Dataset>  (644) 
ChEMBL_Kinases

>  <Ligand_Instance>  (644) 
nan

>  <PDB_ID>  (644) 
nan

>  <Standardized_SMILES>  (644) 
CC(=O)C1=C(O)C(=O)N(CCc2c[nH]c3ccccc23)C1c1ccc(O)cc1

>  <Name>  (644) 
nan

>  <Pocket>  (644) 
nan

>  <ATP_Site>  (644) 
nan

>  <Peripheral>  (644) 
nan

>  <Num_H_Atoms_ProtBoundConf>  (644) 
nan

>  <Num_Resolved_Atoms>  (644) 
nan

>  <Num_Not_Resolved_Atoms>  (644) 
nan

$$$$
CHEMBL4783265
     RDKit          3D

  0  0  0  0  0  0  0  0  0  0999 V3000
M  V30 BEGIN CTAB
M  V30 COUNTS 37 39 0 0 0
M  V30 BEGIN ATOM
M  V30 1 C -0.612666 -6.391899 4.274060 0
M  V30 2 C -0.464912 -5.456252 3.490017 0
M  V30 3 C -0.270475 -4.378487 2.573028 0
M  V30 4 N 0.793904 -3.583878 2.813831 0
M  V30 5 C 1.068876 -2.529687 2.003363 0
M  V30 6 N 2.143720 -1.570320 2.092681 0
M  V30 7 C 2.284580 -0.571938 1.097783 0
M  V30 8 C 2.914047 -0.927434 -0.092731 0
M  V30 9 C 3.042358 0.009272 -1.093112 0
M  V30 10 C 2.563456 1.314853 -0.969760 0
M  V30 11 C 1.939499 1.659928 0.207436 0
M  V30 12 C 1.336545 3.009961 0.548136 0
M  V30 13 C 0.343183 3.299629 -0.556065 0
M  V30 14 O 0.611725 3.683528 -1.718627 0
M  V30 15 N -1.034764 3.125487 -0.284345 0
M  V30 16 C -2.253247 3.292446 -1.046947 0
M  V30 17 C 1.819678 0.716245 1.199684 0
M  V30 18 N 0.227281 -2.347515 0.982752 0
M  V30 19 C -0.838025 -3.086955 0.680859 0
M  V30 20 N -1.785137 -3.080904 -0.281605 0
M  V30 21 C -2.618602 -4.137578 -0.033491 0
M  V30 22 N -2.219182 -4.801383 1.055399 0
M  V30 23 C -1.112638 -4.164222 1.516040 0
M  V30 24 H -0.750891 -7.197625 4.930122 0
M  V30 25 H 2.839648 -1.556565 2.860997 0
M  V30 26 H 3.333925 -1.889866 -0.331587 0
M  V30 27 H 3.523088 -0.192909 -2.059012 0
M  V30 28 H 2.617130 2.100062 -1.712650 0
M  V30 29 H 0.779116 2.961055 1.479540 0
M  V30 30 H 2.095804 3.786575 0.613554 0
M  V30 31 H -1.284872 2.782001 0.685573 0
M  V30 32 H -2.415516 2.302741 -1.575337 0
M  V30 33 H -3.117073 3.572765 -0.462100 0
M  V30 34 H -2.063344 3.995543 -1.898770 0
M  V30 35 H 1.338942 0.926762 2.146913 0
M  V30 36 H -1.726289 -2.325337 -1.000437 0
M  V30 37 H -3.451228 -4.304522 -0.692220 0
M  V30 END ATOM
M  V30 BEGIN BOND
M  V30 1 3 1 2
M  V30 2 1 2 3
M  V30 3 2 3 4
M  V30 4 1 4 5
M  V30 5 1 5 6
M  V30 6 1 6 7
M  V30 7 2 7 8
M  V30 8 1 8 9
M  V30 9 2 9 10
M  V30 10 1 10 11
M  V30 11 1 11 12
M  V30 12 1 12 13
M  V30 13 2 13 14
M  V30 14 1 13 15
M  V30 15 1 15 16
M  V30 16 2 11 17
M  V30 17 2 5 18
M  V30 18 1 18 19
M  V30 19 1 19 20
M  V30 20 1 20 21
M  V30 21 2 21 22
M  V30 22 1 22 23
M  V30 23 1 23 3
M  V30 24 1 17 7
M  V30 25 2 23 19
M  V30 26 1 1 24
M  V30 27 1 6 25
M  V30 28 1 8 26
M  V30 29 1 9 27
M  V30 30 1 10 28
M  V30 31 1 12 29
M  V30 32 1 12 30
M  V30 33 1 15 31
M  V30 34 1 16 32
M  V30 35 1 16 33
M  V30 36 1 16 34
M  V30 37 1 17 35
M  V30 38 1 20 36
M  V30 39 1 21 37
M  V30 END BOND
M  V30 END CTAB
M  END
>  <Dataset>  (645) 
ChEMBL_Kinases

>  <Ligand_Instance>  (645) 
nan

>  <PDB_ID>  (645) 
nan

>  <Standardized_SMILES>  (645) 
C#Cc1nc(Nc2cccc(CC(=O)NC)c2)nc2[nH]cnc12

>  <Name>  (645) 
nan

>  <Pocket>  (645) 
nan

>  <ATP_Site>  (645) 
nan

>  <Peripheral>  (645) 
nan

>  <Num_H_Atoms_ProtBoundConf>  (645) 
nan

>  <Num_Resolved_Atoms>  (645) 
nan

>  <Num_Not_Resolved_Atoms>  (645) 
nan

$$$$
CHEMBL4783270
     RDKit          3D

  0  0  0  0  0  0  0  0  0  0999 V3000
M  V30 BEGIN CTAB
M  V30 COUNTS 60 63 0 0 0
M  V30 BEGIN ATOM
M  V30 1 C 3.329105 -3.534164 0.924800 0
M  V30 2 N 2.653146 -2.386065 0.339672 0
M  V30 3 C 2.329501 -1.432640 1.380746 0
M  V30 4 C 3.588536 -0.675938 1.814354 0
M  V30 5 C 4.220003 0.044302 0.640635 0
M  V30 6 C 4.434556 1.499730 0.929219 0
M  V30 7 N 3.157418 2.119100 1.212153 0
M  V30 8 C 2.124274 2.371636 0.296012 0
M  V30 9 N 2.401829 2.884444 -0.854794 0
M  V30 10 C 1.313559 3.103536 -1.692657 0
M  V30 11 O 1.432491 3.601880 -2.865442 0
M  V30 12 C -0.008180 2.737431 -1.181627 0
M  V30 13 C -1.164439 2.891290 -1.748486 0
M  V30 14 C -2.395985 2.459085 -1.082432 0
M  V30 15 C -3.471100 3.318567 -1.120577 0
M  V30 16 S -4.767736 2.299954 -0.179377 0
M  V30 17 C -3.531349 0.935711 0.042948 0
M  V30 18 C -4.020344 -0.302262 0.792183 0
M  V30 19 C -5.290607 -0.372375 1.319807 0
M  V30 20 C -5.644396 -1.558071 1.949465 0
M  V30 21 C -4.742780 -2.589792 2.021493 0
M  V30 22 C -3.470083 -2.464636 1.469604 0
M  V30 23 N -2.540140 -3.536816 1.522231 0
M  V30 24 C -1.513802 -3.992650 2.404064 0
M  V30 25 S -2.884953 -4.427323 0.071216 0
M  V30 26 C -2.616893 -3.432300 -1.359144 0
M  V30 27 O -2.022545 -5.656388 -0.019340 0
M  V30 28 O -4.313617 -4.871272 0.092443 0
M  V30 29 C -3.072358 -1.301683 0.833712 0
M  V30 30 N -2.528487 1.265086 -0.463281 0
M  V30 31 S 0.367056 2.054696 0.455334 0
M  V30 32 C 3.462156 -0.257239 -0.604366 0
M  V30 33 C 3.413623 -1.788161 -0.727027 0
M  V30 34 H 2.629604 -4.410676 0.931686 0
M  V30 35 H 3.580359 -3.295084 1.980725 0
M  V30 36 H 4.250222 -3.766220 0.385032 0
M  V30 37 H 1.944947 -1.940975 2.276164 0
M  V30 38 H 1.546946 -0.716508 1.040478 0
M  V30 39 H 4.267059 -1.416072 2.278624 0
M  V30 40 H 3.257910 0.021659 2.614794 0
M  V30 41 H 5.235426 -0.408476 0.520600 0
M  V30 42 H 5.110572 1.670186 1.786351 0
M  V30 43 H 4.920974 2.009312 0.045300 0
M  V30 44 H 2.943700 2.417702 2.218257 0
M  V30 45 H -1.201185 3.355723 -2.748980 0
M  V30 46 H -3.581041 4.305723 -1.556533 0
M  V30 47 H -5.954675 0.451965 1.239310 0
M  V30 48 H -6.630539 -1.666969 2.383384 0
M  V30 49 H -4.974072 -3.550146 2.508414 0
M  V30 50 H -0.556676 -3.480588 2.341574 0
M  V30 51 H -1.930572 -4.061786 3.452710 0
M  V30 52 H -1.296146 -5.075670 2.161391 0
M  V30 53 H -3.438722 -2.699268 -1.517974 0
M  V30 54 H -2.496738 -4.067288 -2.270674 0
M  V30 55 H -1.686463 -2.827661 -1.293490 0
M  V30 56 H -2.083337 -1.191034 0.403014 0
M  V30 57 H 4.056176 0.062056 -1.497153 0
M  V30 58 H 2.431824 0.120873 -0.635878 0
M  V30 59 H 4.464438 -2.171025 -0.700921 0
M  V30 60 H 2.919222 -2.021389 -1.694875 0
M  V30 END ATOM
M  V30 BEGIN BOND
M  V30 1 1 1 2
M  V30 2 1 2 3
M  V30 3 1 3 4
M  V30 4 1 4 5
M  V30 5 1 5 6
M  V30 6 1 6 7
M  V30 7 1 7 8
M  V30 8 2 8 9
M  V30 9 1 9 10
M  V30 10 2 10 11
M  V30 11 1 10 12
M  V30 12 2 12 13
M  V30 13 1 13 14
M  V30 14 2 14 15
M  V30 15 1 15 16
M  V30 16 1 16 17
M  V30 17 1 17 18
M  V30 18 2 18 19
M  V30 19 1 19 20
M  V30 20 2 20 21
M  V30 21 1 21 22
M  V30 22 1 22 23
M  V30 23 1 23 24
M  V30 24 1 23 25
M  V30 25 1 25 26
M  V30 26 2 25 27
M  V30 27 2 25 28
M  V30 28 2 22 29
M  V30 29 2 17 30
M  V30 30 1 12 31
M  V30 31 1 5 32
M  V30 32 1 32 33
M  V30 33 1 33 2
M  V30 34 1 31 8
M  V30 35 1 30 14
M  V30 36 1 29 18
M  V30 37 1 1 34
M  V30 38 1 1 35
M  V30 39 1 1 36
M  V30 40 1 3 37
M  V30 41 1 3 38
M  V30 42 1 4 39
M  V30 43 1 4 40
M  V30 44 1 5 41
M  V30 45 1 6 42
M  V30 46 1 6 43
M  V30 47 1 7 44
M  V30 48 1 13 45
M  V30 49 1 15 46
M  V30 50 1 19 47
M  V30 51 1 20 48
M  V30 52 1 21 49
M  V30 53 1 24 50
M  V30 54 1 24 51
M  V30 55 1 24 52
M  V30 56 1 26 53
M  V30 57 1 26 54
M  V30 58 1 26 55
M  V30 59 1 29 56
M  V30 60 1 32 57
M  V30 61 1 32 58
M  V30 62 1 33 59
M  V30 63 1 33 60
M  V30 END BOND
M  V30 END CTAB
M  END
>  <Dataset>  (646) 
ChEMBL_Kinases

>  <Ligand_Instance>  (646) 
nan

>  <PDB_ID>  (646) 
nan

>  <Standardized_SMILES>  (646) 
CN1CCC(CNC2=NC(=O)/C(=C/c3csc(-c4cccc(N(C)S(C)(=O)=O)c4)n3)S2)CC1

>  <Name>  (646) 
nan

>  <Pocket>  (646) 
nan

>  <ATP_Site>  (646) 
nan

>  <Peripheral>  (646) 
nan

>  <Num_H_Atoms_ProtBoundConf>  (646) 
nan

>  <Num_Resolved_Atoms>  (646) 
nan

>  <Num_Not_Resolved_Atoms>  (646) 
nan

$$$$
CHEMBL4783282
     RDKit          3D

  0  0  0  0  0  0  0  0  0  0999 V3000
M  V30 BEGIN CTAB
M  V30 COUNTS 50 53 0 0 0
M  V30 BEGIN ATOM
M  V30 1 C 5.221812 -0.357117 4.707130 0
M  V30 2 C 4.032226 -0.330586 5.619238 0
M  V30 3 C 2.786265 0.087414 4.866904 0
M  V30 4 S 2.471704 -1.046660 3.570969 0
M  V30 5 O 2.248966 -2.390212 4.250799 0
M  V30 6 O 3.663766 -1.282896 2.684774 0
M  V30 7 N 1.097675 -0.709314 2.630440 0
M  V30 8 C 0.955456 0.481548 1.868771 0
M  V30 9 C 2.040550 1.329282 1.757120 0
M  V30 10 C 1.932171 2.489549 1.021709 0
M  V30 11 C 0.733554 2.824167 0.381749 0
M  V30 12 F 0.734283 4.003478 -0.324901 0
M  V30 13 C -0.358674 1.990036 0.481203 0
M  V30 14 C -1.569988 2.421958 -0.178850 0
M  V30 15 O -1.619228 3.692868 -0.300218 0
M  V30 16 C -2.740212 1.789548 -0.737032 0
M  V30 17 N -3.909586 2.414117 -0.840640 0
M  V30 18 N -4.805017 1.614510 -1.422725 0
M  V30 19 C -4.266192 0.429140 -1.729590 0
M  V30 20 N -4.737902 -0.684230 -2.324612 0
M  V30 21 C -3.953592 -1.760261 -2.533654 0
M  V30 22 C -2.633190 -1.662691 -2.104496 0
M  V30 23 C -1.786688 -2.843288 -2.338676 0
M  V30 24 C -2.345288 -4.072673 -2.013788 0
M  V30 25 C -1.669490 -5.269204 -2.178168 0
M  V30 26 C -0.374438 -5.213724 -2.693288 0
M  V30 27 C 0.156932 -3.988281 -3.007109 0
M  V30 28 C -0.504047 -2.788253 -2.848860 0
M  V30 29 Cl 0.166772 -1.227705 -3.246698 0
M  V30 30 C -2.146006 -0.527364 -1.495169 0
M  V30 31 C -2.954683 0.549637 -1.291140 0
M  V30 32 C -0.190559 0.853005 1.226603 0
M  V30 33 F -1.212767 0.012769 1.413067 0
M  V30 34 H 6.136849 0.076662 5.201216 0
M  V30 35 H 5.509982 -1.404010 4.479398 0
M  V30 36 H 5.095939 0.208195 3.770793 0
M  V30 37 H 4.225680 0.435857 6.396901 0
M  V30 38 H 3.891302 -1.286009 6.168919 0
M  V30 39 H 2.913335 1.129611 4.597635 0
M  V30 40 H 1.902574 0.050913 5.547500 0
M  V30 41 H 0.276236 -1.383985 2.571143 0
M  V30 42 H 3.003251 1.150792 2.213140 0
M  V30 43 H 2.779507 3.161272 0.929546 0
M  V30 44 H -5.778814 1.947990 -1.581187 0
M  V30 45 H -4.354897 -2.643991 -3.013489 0
M  V30 46 H -3.346219 -4.143569 -1.613170 0
M  V30 47 H -2.050228 -6.240672 -1.945040 0
M  V30 48 H 0.180122 -6.129398 -2.833759 0
M  V30 49 H 1.173163 -3.936655 -3.412171 0
M  V30 50 H -1.120842 -0.463006 -1.178972 0
M  V30 END ATOM
M  V30 BEGIN BOND
M  V30 1 1 1 2
M  V30 2 1 2 3
M  V30 3 1 3 4
M  V30 4 2 4 5
M  V30 5 2 4 6
M  V30 6 1 4 7
M  V30 7 1 7 8
M  V30 8 2 8 9
M  V30 9 1 9 10
M  V30 10 2 10 11
M  V30 11 1 11 12
M  V30 12 1 11 13
M  V30 13 1 13 14
M  V30 14 2 14 15
M  V30 15 1 14 16
M  V30 16 2 16 17
M  V30 17 1 17 18
M  V30 18 1 18 19
M  V30 19 2 19 20
M  V30 20 1 20 21
M  V30 21 2 21 22
M  V30 22 1 22 23
M  V30 23 2 23 24
M  V30 24 1 24 25
M  V30 25 2 25 26
M  V30 26 1 26 27
M  V30 27 2 27 28
M  V30 28 1 28 29
M  V30 29 1 22 30
M  V30 30 2 30 31
M  V30 31 2 13 32
M  V30 32 1 32 33
M  V30 33 1 32 8
M  V30 34 1 31 16
M  V30 35 1 31 19
M  V30 36 1 28 23
M  V30 37 1 1 34
M  V30 38 1 1 35
M  V30 39 1 1 36
M  V30 40 1 2 37
M  V30 41 1 2 38
M  V30 42 1 3 39
M  V30 43 1 3 40
M  V30 44 1 7 41
M  V30 45 1 9 42
M  V30 46 1 10 43
M  V30 47 1 18 44
M  V30 48 1 21 45
M  V30 49 1 24 46
M  V30 50 1 25 47
M  V30 51 1 26 48
M  V30 52 1 27 49
M  V30 53 1 30 50
M  V30 END BOND
M  V30 END CTAB
M  END
>  <Dataset>  (647) 
ChEMBL_Kinases

>  <Ligand_Instance>  (647) 
nan

>  <PDB_ID>  (647) 
nan

>  <Standardized_SMILES>  (647) 
CCCS(=O)(=O)Nc1ccc(F)c(C(=O)c2n[nH]c3ncc(-c4ccccc4Cl)cc23)c1F

>  <Name>  (647) 
nan

>  <Pocket>  (647) 
nan

>  <ATP_Site>  (647) 
nan

>  <Peripheral>  (647) 
nan

>  <Num_H_Atoms_ProtBoundConf>  (647) 
nan

>  <Num_Resolved_Atoms>  (647) 
nan

>  <Num_Not_Resolved_Atoms>  (647) 
nan

$$$$
CHEMBL4783298
     RDKit          3D

  0  0  0  0  0  0  0  0  0  0999 V3000
M  V30 BEGIN CTAB
M  V30 COUNTS 44 47 0 0 0
M  V30 BEGIN ATOM
M  V30 1 O 3.184558 0.168917 1.298376 0
M  V30 2 C 2.529348 -0.294822 0.329108 0
M  V30 3 N 3.003584 -0.805411 -0.902476 0
M  V30 4 C 4.409690 -0.756538 -0.984188 0
M  V30 5 C 5.241857 -1.765383 -0.575509 0
M  V30 6 C 6.616905 -1.749999 -0.641141 0
M  V30 7 C 7.169197 -0.585691 -1.177548 0
M  V30 8 Cl 8.934208 -0.554801 -1.266697 0
M  V30 9 C 6.382270 0.474188 -1.610640 0
M  V30 10 C 4.991187 0.383945 -1.511352 0
M  V30 11 Cl 4.024552 1.737804 -2.066230 0
M  V30 12 N 1.145346 -0.224186 0.680781 0
M  V30 13 C 0.817631 0.324294 1.978958 0
M  V30 14 C -0.089205 1.529060 1.886606 0
M  V30 15 C -1.405168 1.157404 1.231696 0
M  V30 16 N -2.037010 0.149176 2.041513 0
M  V30 17 C -3.305303 -0.382176 1.645722 0
M  V30 18 N -3.927548 0.025695 0.546245 0
M  V30 19 C -5.111492 -0.487867 0.200482 0
M  V30 20 N -5.703375 -1.417011 0.938097 0
M  V30 21 C -5.161926 -1.895140 2.061657 0
M  V30 22 N -5.486649 -2.788544 2.985817 0
M  V30 23 N -4.540973 -2.854187 3.906319 0
M  V30 24 C -3.563208 -1.977430 3.578980 0
M  V30 25 C -3.938947 -1.348075 2.396379 0
M  V30 26 C -1.017961 0.603764 -0.134134 0
M  V30 27 C -0.110561 -0.566780 0.070633 0
M  V30 28 H 2.277993 -1.153449 -1.597760 0
M  V30 29 H 4.772999 -2.643362 -0.168776 0
M  V30 30 H 7.244068 -2.564871 -0.309093 0
M  V30 31 H 6.909945 1.329863 -2.010080 0
M  V30 32 H 1.716673 0.679622 2.527665 0
M  V30 33 H 0.388389 -0.508863 2.578244 0
M  V30 34 H -0.290885 1.884994 2.898747 0
M  V30 35 H 0.421489 2.250744 1.221794 0
M  V30 36 H -2.006052 2.087905 1.118357 0
M  V30 37 H -1.601248 -0.217758 2.921746 0
M  V30 38 H -5.564088 -0.115899 -0.701190 0
M  V30 39 H -6.343976 -3.368223 3.016805 0
M  V30 40 H -2.636039 -1.771204 4.115081 0
M  V30 41 H -0.510459 1.409905 -0.678588 0
M  V30 42 H -1.906239 0.289137 -0.681712 0
M  V30 43 H 0.070761 -1.003081 -0.943054 0
M  V30 44 H -0.596453 -1.356484 0.661949 0
M  V30 END ATOM
M  V30 BEGIN BOND
M  V30 1 2 1 2
M  V30 2 1 2 3
M  V30 3 1 3 4
M  V30 4 2 4 5
M  V30 5 1 5 6
M  V30 6 2 6 7
M  V30 7 1 7 8
M  V30 8 1 7 9
M  V30 9 2 9 10
M  V30 10 1 10 11
M  V30 11 1 2 12
M  V30 12 1 12 13
M  V30 13 1 13 14
M  V30 14 1 14 15
M  V30 15 1 15 16
M  V30 16 1 16 17
M  V30 17 2 17 18
M  V30 18 1 18 19
M  V30 19 2 19 20
M  V30 20 1 20 21
M  V30 21 1 21 22
M  V30 22 1 22 23
M  V30 23 2 23 24
M  V30 24 1 24 25
M  V30 25 1 15 26
M  V30 26 1 26 27
M  V30 27 1 10 4
M  V30 28 1 27 12
M  V30 29 1 25 17
M  V30 30 2 25 21
M  V30 31 1 3 28
M  V30 32 1 5 29
M  V30 33 1 6 30
M  V30 34 1 9 31
M  V30 35 1 13 32
M  V30 36 1 13 33
M  V30 37 1 14 34
M  V30 38 1 14 35
M  V30 39 1 15 36
M  V30 40 1 16 37
M  V30 41 1 19 38
M  V30 42 1 22 39
M  V30 43 1 24 40
M  V30 44 1 26 41
M  V30 45 1 26 42
M  V30 46 1 27 43
M  V30 47 1 27 44
M  V30 END BOND
M  V30 END CTAB
M  END
>  <Dataset>  (648) 
ChEMBL_Kinases

>  <Ligand_Instance>  (648) 
nan

>  <PDB_ID>  (648) 
nan

>  <Standardized_SMILES>  (648) 
O=C(Nc1ccc(Cl)cc1Cl)N1CCC(Nc2ncnc3[nH]ncc23)CC1

>  <Name>  (648) 
nan

>  <Pocket>  (648) 
nan

>  <ATP_Site>  (648) 
nan

>  <Peripheral>  (648) 
nan

>  <Num_H_Atoms_ProtBoundConf>  (648) 
nan

>  <Num_Resolved_Atoms>  (648) 
nan

>  <Num_Not_Resolved_Atoms>  (648) 
nan

$$$$
CHEMBL4783299
     RDKit          3D

  0  0  0  0  0  0  0  0  0  0999 V3000
M  V30 BEGIN CTAB
M  V30 COUNTS 51 55 0 0 0
M  V30 BEGIN ATOM
M  V30 1 O 1.010384 3.189890 2.310335 0
M  V30 2 C 1.371047 1.978733 2.296890 0
M  V30 3 N 2.621079 1.560978 1.751629 0
M  V30 4 C 3.681919 2.297633 1.144945 0
M  V30 5 C 4.785917 2.868333 1.752196 0
M  V30 6 C 5.705016 3.546554 0.973788 0
M  V30 7 C 5.531596 3.657811 -0.391663 0
M  V30 8 C 6.458120 4.337627 -1.151825 0
M  V30 9 N 6.309970 4.461226 -2.498844 0
M  V30 10 C 5.228888 3.899192 -3.073392 0
M  V30 11 C 4.280503 3.209999 -2.337405 0
M  V30 12 C 4.409387 3.071639 -0.970631 0
M  V30 13 N 3.534916 2.420377 -0.192266 0
M  V30 14 C 0.514181 0.920348 2.848050 0 CFG=2
M  V30 15 C 1.020974 -0.362287 3.335432 0
M  V30 16 C 0.458810 -0.380877 1.990737 0 CFG=1
M  V30 17 C -0.891223 -0.832427 1.651375 0
M  V30 18 C -1.926424 -0.817983 2.549197 0
M  V30 19 C -3.205248 -1.252466 2.206158 0
M  V30 20 C -3.479048 -1.724173 0.916991 0
M  V30 21 S -5.127537 -2.212493 0.700266 0
M  V30 22 O -6.057028 -1.343441 1.467424 0
M  V30 23 O -5.481930 -2.107188 -0.756437 0
M  V30 24 N -5.297236 -3.876290 1.121967 0
M  V30 25 C -4.595445 -4.893128 0.426015 0
M  V30 26 C -4.722917 -6.208249 0.751989 0
M  V30 27 C -4.082124 -7.262188 0.133230 0
M  V30 28 C -3.235656 -6.993243 -0.905164 0
M  V30 29 C -3.098417 -5.666175 -1.244293 0
M  V30 30 N -3.753827 -4.684889 -0.598555 0
M  V30 31 C -2.433389 -1.735437 0.020615 0
M  V30 32 C -1.182523 -1.301114 0.386206 0
M  V30 33 H 2.920280 0.551399 1.741105 0
M  V30 34 H 4.818408 2.718435 2.823852 0
M  V30 35 H 6.553302 3.976199 1.496475 0
M  V30 36 H 7.329569 4.791594 -0.694460 0
M  V30 37 H 4.979584 3.917513 -4.141086 0
M  V30 38 H 3.399054 2.744227 -2.758285 0
M  V30 39 H -0.446631 1.274112 3.262825 0
M  V30 40 H 0.422864 -0.894321 4.118934 0
M  V30 41 H 2.099449 -0.442342 3.489132 0
M  V30 42 H 1.222964 -0.443083 1.162092 0
M  V30 43 H -1.705445 -0.451869 3.542812 0
M  V30 44 H -3.927234 -1.187684 3.007982 0
M  V30 45 H -5.918341 -4.142283 1.892618 0
M  V30 46 H -5.379038 -6.524729 1.571246 0
M  V30 47 H -4.215370 -8.300470 0.429203 0
M  V30 48 H -2.674041 -7.719479 -1.473730 0
M  V30 49 H -2.459123 -5.314734 -2.048276 0
M  V30 50 H -2.723523 -2.111210 -0.950306 0
M  V30 51 H -0.401760 -1.334271 -0.362433 0
M  V30 END ATOM
M  V30 BEGIN BOND
M  V30 1 2 1 2
M  V30 2 1 2 3
M  V30 3 1 3 4
M  V30 4 2 4 5
M  V30 5 1 5 6
M  V30 6 2 6 7
M  V30 7 1 7 8
M  V30 8 2 8 9
M  V30 9 1 9 10
M  V30 10 2 10 11
M  V30 11 1 11 12
M  V30 12 2 12 13
M  V30 13 1 2 14
M  V30 14 1 14 15
M  V30 15 1 15 16
M  V30 16 1 16 17
M  V30 17 2 17 18
M  V30 18 1 18 19
M  V30 19 2 19 20
M  V30 20 1 20 21
M  V30 21 2 21 22
M  V30 22 2 21 23
M  V30 23 1 21 24
M  V30 24 1 24 25
M  V30 25 2 25 26
M  V30 26 1 26 27
M  V30 27 2 27 28
M  V30 28 1 28 29
M  V30 29 2 29 30
M  V30 30 1 20 31
M  V30 31 2 31 32
M  V30 32 1 13 4
M  V30 33 1 16 14
M  V30 34 1 32 17
M  V30 35 1 12 7
M  V30 36 1 30 25
M  V30 37 1 3 33
M  V30 38 1 5 34
M  V30 39 1 6 35
M  V30 40 1 8 36
M  V30 41 1 10 37
M  V30 42 1 11 38
M  V30 43 1 14 39 CFG=1
M  V30 44 1 15 40
M  V30 45 1 15 41
M  V30 46 1 16 42 CFG=3
M  V30 47 1 18 43
M  V30 48 1 19 44
M  V30 49 1 24 45
M  V30 50 1 26 46
M  V30 51 1 27 47
M  V30 52 1 28 48
M  V30 53 1 29 49
M  V30 54 1 31 50
M  V30 55 1 32 51
M  V30 END BOND
M  V30 END CTAB
M  END
>  <Dataset>  (649) 
ChEMBL_Kinases

>  <Ligand_Instance>  (649) 
nan

>  <PDB_ID>  (649) 
nan

>  <Standardized_SMILES>  (649) 
O=C(Nc1ccc2cnccc2n1)[C@@H]1C[C@H]1c1ccc(S(=O)(=O)Nc2ccccn2)cc1

>  <Name>  (649) 
nan

>  <Pocket>  (649) 
nan

>  <ATP_Site>  (649) 
nan

>  <Peripheral>  (649) 
nan

>  <Num_H_Atoms_ProtBoundConf>  (649) 
nan

>  <Num_Resolved_Atoms>  (649) 
nan

>  <Num_Not_Resolved_Atoms>  (649) 
nan

$$$$
CHEMBL4783301
     RDKit          3D

  0  0  0  0  0  0  0  0  0  0999 V3000
M  V30 BEGIN CTAB
M  V30 COUNTS 59 63 0 0 0
M  V30 BEGIN ATOM
M  V30 1 C 5.718904 -2.363621 0.818198 0
M  V30 2 C 4.266014 -2.807725 0.992735 0
M  V30 3 C 4.314747 -4.322622 1.218983 0
M  V30 4 N 3.512609 -2.471451 -0.196916 0
M  V30 5 C 2.346169 -1.662400 -0.182983 0
M  V30 6 C 2.192331 -0.763421 0.839259 0
M  V30 7 C 1.038606 -0.011084 0.813837 0
M  V30 8 N 0.737932 0.929780 1.834970 0
M  V30 9 C -0.305905 1.881243 1.995870 0
M  V30 10 N -0.146437 3.225196 1.835011 0
M  V30 11 C -1.229601 4.042282 2.008878 0
M  V30 12 C -2.461895 3.517160 2.340379 0
M  V30 13 Cl -3.753989 4.666433 2.531916 0
M  V30 14 C -2.614928 2.139971 2.500699 0
M  V30 15 C -3.980011 1.742293 2.818857 0
M  V30 16 C -4.694645 2.146919 3.924782 0
M  V30 17 N -5.971649 1.733258 4.170273 0
M  V30 18 C -6.604535 0.884580 3.311376 0
M  V30 19 C -5.953475 0.436185 2.182478 0
M  V30 20 C -6.555748 -0.414240 1.284307 0
M  V30 21 C -5.931238 -0.870874 0.145518 0
M  V30 22 C -4.619765 -0.453850 -0.115666 0
M  V30 23 C -4.050796 0.398371 0.808047 0
M  V30 24 C -4.642408 0.877632 1.957352 0
M  V30 25 N -1.499314 1.407068 2.312518 0
M  V30 26 C 0.087010 -0.142722 -0.176954 0
M  V30 27 C 0.259728 -1.051439 -1.196427 0
M  V30 28 C 1.407256 -1.813277 -1.185782 0
M  V30 29 N 1.594478 -2.776562 -2.240437 0
M  V30 30 C 0.609926 -2.930517 -3.286674 0
M  V30 31 C 2.789736 -3.573966 -2.212166 0
M  V30 32 O 2.747712 -4.694502 -2.801332 0
M  V30 33 C 3.978801 -3.001546 -1.485071 0 CFG=1
M  V30 34 C 4.455705 -1.858394 -2.369337 0
M  V30 35 H 5.816620 -1.355307 0.394618 0
M  V30 36 H 6.197108 -3.164566 0.180890 0
M  V30 37 H 6.228702 -2.418516 1.798222 0
M  V30 38 H 3.859264 -2.365029 1.919886 0
M  V30 39 H 3.298466 -4.762827 1.296583 0
M  V30 40 H 4.870691 -4.482633 2.174309 0
M  V30 41 H 4.912319 -4.772360 0.407707 0
M  V30 42 H 2.932932 -0.657269 1.606263 0
M  V30 43 H 1.375155 0.976849 2.657921 0
M  V30 44 H -0.966376 5.094547 1.851336 0
M  V30 45 H -4.192938 2.815447 4.597925 0
M  V30 46 H -7.613739 0.522411 3.449060 0
M  V30 47 H -7.582371 -0.771734 1.440483 0
M  V30 48 H -6.333147 -1.526257 -0.598364 0
M  V30 49 H -4.053579 -0.754645 -0.976256 0
M  V30 50 H -3.036157 0.739195 0.630307 0
M  V30 51 H -0.801780 0.449263 -0.181580 0
M  V30 52 H -0.499128 -1.137120 -1.956686 0
M  V30 53 H -0.326704 -3.412761 -2.887882 0
M  V30 54 H 1.045629 -3.585446 -4.077997 0
M  V30 55 H 0.297853 -1.969471 -3.723898 0
M  V30 56 H 4.720012 -3.784363 -1.343838 0
M  V30 57 H 4.941777 -2.291138 -3.254634 0
M  V30 58 H 5.016967 -1.085601 -1.838408 0
M  V30 59 H 3.519971 -1.359759 -2.752919 0
M  V30 END ATOM
M  V30 BEGIN BOND
M  V30 1 1 1 2
M  V30 2 1 2 3
M  V30 3 1 2 4
M  V30 4 1 4 5
M  V30 5 2 5 6
M  V30 6 1 6 7
M  V30 7 1 7 8
M  V30 8 1 8 9
M  V30 9 2 9 10
M  V30 10 1 10 11
M  V30 11 2 11 12
M  V30 12 1 12 13
M  V30 13 1 12 14
M  V30 14 1 14 15
M  V30 15 2 15 16
M  V30 16 1 16 17
M  V30 17 2 17 18
M  V30 18 1 18 19
M  V30 19 2 19 20
M  V30 20 1 20 21
M  V30 21 2 21 22
M  V30 22 1 22 23
M  V30 23 2 23 24
M  V30 24 2 14 25
M  V30 25 2 7 26
M  V30 26 1 26 27
M  V30 27 2 27 28
M  V30 28 1 28 29
M  V30 29 1 29 30
M  V30 30 1 29 31
M  V30 31 2 31 32
M  V30 32 1 31 33
M  V30 33 1 33 34
M  V30 34 1 33 4
M  V30 35 1 28 5
M  V30 36 1 25 9
M  V30 37 1 24 15
M  V30 38 1 24 19
M  V30 39 1 1 35
M  V30 40 1 1 36
M  V30 41 1 1 37
M  V30 42 1 2 38
M  V30 43 1 3 39
M  V30 44 1 3 40
M  V30 45 1 3 41
M  V30 46 1 6 42
M  V30 47 1 8 43
M  V30 48 1 11 44
M  V30 49 1 16 45
M  V30 50 1 18 46
M  V30 51 1 20 47
M  V30 52 1 21 48
M  V30 53 1 22 49
M  V30 54 1 23 50
M  V30 55 1 26 51
M  V30 56 1 27 52
M  V30 57 1 30 53
M  V30 58 1 30 54
M  V30 59 1 30 55
M  V30 60 1 33 56 CFG=1
M  V30 61 1 34 57
M  V30 62 1 34 58
M  V30 63 1 34 59
M  V30 END BOND
M  V30 END CTAB
M  END
>  <Dataset>  (650) 
ChEMBL_Kinases

>  <Ligand_Instance>  (650) 
nan

>  <PDB_ID>  (650) 
nan

>  <Standardized_SMILES>  (650) 
CC(C)N1c2cc(Nc3ncc(Cl)c(-c4cncc5ccccc45)n3)ccc2N(C)C(=O)[C@H]1C

>  <Name>  (650) 
nan

>  <Pocket>  (650) 
nan

>  <ATP_Site>  (650) 
nan

>  <Peripheral>  (650) 
nan

>  <Num_H_Atoms_ProtBoundConf>  (650) 
nan

>  <Num_Resolved_Atoms>  (650) 
nan

>  <Num_Not_Resolved_Atoms>  (650) 
nan

$$$$
CHEMBL4783323
     RDKit          3D

  0  0  0  0  0  0  0  0  0  0999 V3000
M  V30 BEGIN CTAB
M  V30 COUNTS 54 57 0 0 0
M  V30 BEGIN ATOM
M  V30 1 C 0.652613 -1.588096 3.020257 0
M  V30 2 N 1.717850 -0.983115 2.286598 0
M  V30 3 C 2.573963 -0.156292 3.072439 0
M  V30 4 C 3.667978 0.518300 2.279508 0
M  V30 5 C 4.329431 -0.357695 1.295582 0
M  V30 6 O 5.720374 -0.375596 1.598427 0
M  V30 7 C 4.257660 0.034611 -0.142279 0
M  V30 8 N 2.970682 0.124193 -0.732009 0
M  V30 9 C 1.968067 1.100829 -0.484675 0
M  V30 10 N 2.258908 2.350921 -0.493066 0
M  V30 11 C 1.224901 3.220832 -0.244858 0
M  V30 12 O 1.324608 4.497906 -0.212698 0
M  V30 13 C -0.066290 2.637208 -0.003753 0
M  V30 14 C -1.265895 3.074208 0.257810 0
M  V30 15 C -2.444481 2.199322 0.465003 0
M  V30 16 C -3.424257 2.518965 1.378900 0
M  V30 17 S -4.596817 1.110156 1.210064 0
M  V30 18 C -3.486707 0.334610 -0.117068 0
M  V30 19 C -3.991933 -0.974940 -0.683618 0
M  V30 20 C -5.161340 -1.586380 -0.293702 0
M  V30 21 C -5.441060 -2.777914 -0.932686 0
M  V30 22 C -4.632839 -3.342398 -1.893470 0
M  V30 23 O -4.975626 -4.547348 -2.498099 0
M  V30 24 C -4.477600 -5.716152 -1.834086 0
M  V30 25 F -4.997191 -5.736540 -0.533108 0
M  V30 26 F -3.119028 -5.647331 -1.690660 0
M  V30 27 F -4.839568 -6.866778 -2.510820 0
M  V30 28 C -3.470449 -2.655030 -2.225337 0
M  V30 29 C -3.118911 -1.456124 -1.631397 0
M  V30 30 N -2.655557 1.078507 -0.176771 0
M  V30 31 S 0.226100 0.851837 -0.139787 0
M  V30 32 C 3.886051 -1.790711 1.529777 0
M  V30 33 C 2.389435 -1.932951 1.460675 0
M  V30 34 H 0.021435 -0.786723 3.468785 0
M  V30 35 H 0.055887 -2.218680 2.343240 0
M  V30 36 H 1.042788 -2.222342 3.857328 0
M  V30 37 H 2.026801 0.556062 3.694696 0
M  V30 38 H 3.103635 -0.838472 3.784988 0
M  V30 39 H 3.253083 1.434781 1.868207 0
M  V30 40 H 4.429950 0.833739 3.057865 0
M  V30 41 H 5.781577 -0.914453 2.441589 0
M  V30 42 H 4.887060 -0.647894 -0.789981 0
M  V30 43 H 4.819664 1.010491 -0.217092 0
M  V30 44 H 2.675104 -0.615673 -1.444397 0
M  V30 45 H -1.339853 4.172828 0.315089 0
M  V30 46 H -3.398806 3.490881 2.045906 0
M  V30 47 H -5.753949 -1.109340 0.455338 0
M  V30 48 H -6.374939 -3.264720 -0.619705 0
M  V30 49 H -2.839384 -3.111160 -2.985866 0
M  V30 50 H -2.201969 -0.975096 -1.936023 0
M  V30 51 H 4.201699 -2.060626 2.557365 0
M  V30 52 H 4.361620 -2.507339 0.843438 0
M  V30 53 H 2.147344 -2.961163 1.863867 0
M  V30 54 H 1.989142 -1.949571 0.422967 0
M  V30 END ATOM
M  V30 BEGIN BOND
M  V30 1 1 1 2
M  V30 2 1 2 3
M  V30 3 1 3 4
M  V30 4 1 4 5
M  V30 5 1 5 6
M  V30 6 1 5 7
M  V30 7 1 7 8
M  V30 8 1 8 9
M  V30 9 2 9 10
M  V30 10 1 10 11
M  V30 11 2 11 12
M  V30 12 1 11 13
M  V30 13 2 13 14
M  V30 14 1 14 15
M  V30 15 2 15 16
M  V30 16 1 16 17
M  V30 17 1 17 18
M  V30 18 1 18 19
M  V30 19 2 19 20
M  V30 20 1 20 21
M  V30 21 2 21 22
M  V30 22 1 22 23
M  V30 23 1 23 24
M  V30 24 1 24 25
M  V30 25 1 24 26
M  V30 26 1 24 27
M  V30 27 1 22 28
M  V30 28 2 28 29
M  V30 29 2 18 30
M  V30 30 1 13 31
M  V30 31 1 5 32
M  V30 32 1 32 33
M  V30 33 1 33 2
M  V30 34 1 31 9
M  V30 35 1 30 15
M  V30 36 1 29 19
M  V30 37 1 1 34
M  V30 38 1 1 35
M  V30 39 1 1 36
M  V30 40 1 3 37
M  V30 41 1 3 38
M  V30 42 1 4 39
M  V30 43 1 4 40
M  V30 44 1 6 41
M  V30 45 1 7 42
M  V30 46 1 7 43
M  V30 47 1 8 44
M  V30 48 1 14 45
M  V30 49 1 16 46
M  V30 50 1 20 47
M  V30 51 1 21 48
M  V30 52 1 28 49
M  V30 53 1 29 50
M  V30 54 1 32 51
M  V30 55 1 32 52
M  V30 56 1 33 53
M  V30 57 1 33 54
M  V30 END BOND
M  V30 END CTAB
M  END
>  <Dataset>  (651) 
ChEMBL_Kinases

>  <Ligand_Instance>  (651) 
nan

>  <PDB_ID>  (651) 
nan

>  <Standardized_SMILES>  (651) 
CN1CCC(O)(CNC2=NC(=O)/C(=C/c3csc(-c4ccc(OC(F)(F)F)cc4)n3)S2)CC1

>  <Name>  (651) 
nan

>  <Pocket>  (651) 
nan

>  <ATP_Site>  (651) 
nan

>  <Peripheral>  (651) 
nan

>  <Num_H_Atoms_ProtBoundConf>  (651) 
nan

>  <Num_Resolved_Atoms>  (651) 
nan

>  <Num_Not_Resolved_Atoms>  (651) 
nan

$$$$
CHEMBL4783464
     RDKit          3D

  0  0  0  0  0  0  0  0  0  0999 V3000
M  V30 BEGIN CTAB
M  V30 COUNTS 61 64 0 0 0
M  V30 BEGIN ATOM
M  V30 1 C 3.592729 -3.274819 6.483158 0
M  V30 2 C 3.808195 -2.693306 5.183243 0
M  V30 3 C 3.982563 -2.201433 4.125481 0
M  V30 4 C 4.179034 -1.642810 2.872732 0
M  V30 5 O 4.376585 -1.208658 1.750630 0
M  V30 6 N 3.651493 -0.242016 3.004948 0
M  V30 7 C 3.510909 0.747498 1.943278 0
M  V30 8 C 4.020268 1.733221 1.168992 0
M  V30 9 C 5.439009 2.119919 1.397357 0
M  V30 10 N 3.130620 2.216053 0.304971 0
M  V30 11 C 1.913870 1.663881 0.345044 0
M  V30 12 C 0.537900 1.452099 0.022778 0
M  V30 13 C -0.526593 2.130965 0.404135 0
M  V30 14 C -0.755724 3.282370 1.215568 0
M  V30 15 O 0.304082 3.905718 1.498729 0
M  V30 16 N -2.135189 3.301313 1.400093 0
M  V30 17 C -2.844112 2.250627 0.776761 0
M  V30 18 C -4.169307 1.923832 0.797093 0
M  V30 19 C -4.593525 0.752660 0.134699 0
M  V30 20 C -3.631187 -0.027165 -0.515269 0
M  V30 21 C -3.760822 -1.267640 -1.222736 0
M  V30 22 O -2.723900 -2.004864 -1.232495 0
M  V30 23 N -4.459114 -2.183789 -1.977357 0
M  V30 24 C -3.924103 -3.449921 -2.502517 0 CFG=2
M  V30 25 C -4.454083 -4.684264 -1.920993 0
M  V30 26 C -2.431846 -3.414174 -2.636979 0
M  V30 27 C -1.658418 -4.392411 -1.969370 0
M  V30 28 C -0.298948 -4.466168 -1.992710 0
M  V30 29 C 0.426626 -3.524684 -2.715845 0
M  V30 30 C -0.298923 -2.515556 -3.409345 0
M  V30 31 C -1.647649 -2.489399 -3.356836 0
M  V30 32 C -2.299772 0.402144 -0.473789 0
M  V30 33 C -1.843273 1.532135 0.158244 0
M  V30 34 C 2.146636 0.690962 1.419431 0
M  V30 35 C 1.167377 -0.293893 2.058243 0
M  V30 36 H 4.537355 -3.268677 7.110592 0
M  V30 37 H 3.237247 -4.293701 6.331397 0
M  V30 38 H 2.795460 -2.770962 7.059031 0
M  V30 39 H 3.276472 0.386201 3.841803 0
M  V30 40 H 5.447851 3.247572 1.274481 0
M  V30 41 H 5.783542 1.858425 2.411010 0
M  V30 42 H 6.056420 1.652093 0.623673 0
M  V30 43 H 3.169199 2.938817 -0.413929 0
M  V30 44 H 0.464783 0.581806 -0.676643 0
M  V30 45 H -2.517301 4.100624 2.000730 0
M  V30 46 H -4.921048 2.518226 1.281187 0
M  V30 47 H -5.574587 0.406575 0.054393 0
M  V30 48 H -5.405330 -1.690146 -2.019387 0
M  V30 49 H -4.190541 -3.384993 -3.616147 0
M  V30 50 H -5.571032 -4.565662 -1.834654 0
M  V30 51 H -4.120747 -5.009468 -0.955027 0
M  V30 52 H -4.388400 -5.560316 -2.690357 0
M  V30 53 H -2.079363 -5.182515 -1.392026 0
M  V30 54 H 0.377409 -5.158727 -1.543177 0
M  V30 55 H 1.478467 -3.381559 -2.875957 0
M  V30 56 H 0.176013 -1.730108 -3.987905 0
M  V30 57 H -2.233191 -1.736828 -3.862354 0
M  V30 58 H -1.478614 -0.173519 -0.966992 0
M  V30 59 H 1.160286 -0.026377 3.150534 0
M  V30 60 H 1.595679 -1.306386 1.992620 0
M  V30 61 H 0.164748 -0.239439 1.599166 0
M  V30 END ATOM
M  V30 BEGIN BOND
M  V30 1 1 1 2
M  V30 2 3 2 3
M  V30 3 1 3 4
M  V30 4 2 4 5
M  V30 5 1 4 6
M  V30 6 1 6 7
M  V30 7 2 7 8
M  V30 8 1 8 9
M  V30 9 1 8 10
M  V30 10 1 10 11
M  V30 11 1 11 12
M  V30 12 2 12 13
M  V30 13 1 13 14
M  V30 14 2 14 15
M  V30 15 1 14 16
M  V30 16 1 16 17
M  V30 17 2 17 18
M  V30 18 1 18 19
M  V30 19 2 19 20
M  V30 20 1 20 21
M  V30 21 2 21 22
M  V30 22 1 21 23
M  V30 23 1 23 24
M  V30 24 1 24 25
M  V30 25 1 24 26
M  V30 26 2 26 27
M  V30 27 1 27 28
M  V30 28 2 28 29
M  V30 29 1 29 30
M  V30 30 2 30 31
M  V30 31 1 20 32
M  V30 32 2 32 33
M  V30 33 2 11 34
M  V30 34 1 34 35
M  V30 35 1 34 7
M  V30 36 1 33 13
M  V30 37 1 33 17
M  V30 38 1 31 26
M  V30 39 1 1 36
M  V30 40 1 1 37
M  V30 41 1 1 38
M  V30 42 1 6 39
M  V30 43 1 9 40
M  V30 44 1 9 41
M  V30 45 1 9 42
M  V30 46 1 10 43
M  V30 47 1 12 44
M  V30 48 1 16 45
M  V30 49 1 18 46
M  V30 50 1 19 47
M  V30 51 1 23 48
M  V30 52 1 24 49 CFG=3
M  V30 53 1 25 50
M  V30 54 1 25 51
M  V30 55 1 25 52
M  V30 56 1 27 53
M  V30 57 1 28 54
M  V30 58 1 29 55
M  V30 59 1 30 56
M  V30 60 1 31 57
M  V30 61 1 32 58
M  V30 62 1 35 59
M  V30 63 1 35 60
M  V30 64 1 35 61
M  V30 END BOND
M  V30 END CTAB
M  END
>  <Dataset>  (652) 
ChEMBL_Kinases

>  <Ligand_Instance>  (652) 
nan

>  <PDB_ID>  (652) 
nan

>  <Standardized_SMILES>  (652) 
CC#CC(=O)Nc1c(C)[nH]c(/C=C2\C(=O)Nc3ccc(C(=O)N[C@H](C)c4ccccc4)cc32)c1C

>  <Name>  (652) 
nan

>  <Pocket>  (652) 
nan

>  <ATP_Site>  (652) 
nan

>  <Peripheral>  (652) 
nan

>  <Num_H_Atoms_ProtBoundConf>  (652) 
nan

>  <Num_Resolved_Atoms>  (652) 
nan

>  <Num_Not_Resolved_Atoms>  (652) 
nan

$$$$
CHEMBL4783506
     RDKit          3D

  0  0  0  0  0  0  0  0  0  0999 V3000
M  V30 BEGIN CTAB
M  V30 COUNTS 47 50 0 0 0
M  V30 BEGIN ATOM
M  V30 1 C 1.314074 -8.069372 5.038291 0
M  V30 2 C 1.257811 -6.835540 4.224246 0
M  V30 3 C 2.167593 -6.575432 3.223017 0
M  V30 4 C 2.058087 -5.409179 2.503934 0
M  V30 5 C 1.065533 -4.477443 2.744057 0
M  V30 6 C 0.935725 -3.255772 2.003907 0
M  V30 7 O 0.025351 -2.417866 2.235509 0
M  V30 8 N 1.800833 -2.866564 0.952284 0
M  V30 9 C 1.539845 -1.644664 0.330122 0
M  V30 10 C 2.020441 -0.385711 0.659694 0
M  V30 11 C 1.637652 0.745135 -0.098143 0
M  V30 12 C 0.761746 0.711072 -1.223480 0
M  V30 13 O 0.755739 1.995999 -1.529333 0
M  V30 14 C -0.105288 2.995295 -1.580649 0
M  V30 15 C 0.447018 3.843139 -0.574047 0
M  V30 16 C -0.074888 5.096813 -0.181299 0
M  V30 17 C -1.228940 5.568600 -0.817532 0
M  V30 18 C -1.858698 6.759343 -0.552876 0
M  V30 19 C -2.994946 7.185099 -1.204259 0
M  V30 20 C -3.508298 6.350019 -2.171840 0
M  V30 21 C -2.925197 5.140071 -2.487240 0
M  V30 22 C -1.793503 4.782053 -1.795207 0
M  V30 23 C -1.223314 3.580551 -2.115035 0
M  V30 24 Br -1.948059 2.523185 -3.479579 0
M  V30 25 C 0.360709 -0.580414 -1.444487 0
M  V30 26 Cl -0.673829 -0.647448 -2.840200 0
M  V30 27 C 0.688491 -1.718600 -0.755381 0
M  V30 28 C 0.155381 -4.743600 3.749862 0
M  V30 29 C 0.258012 -5.916950 4.480141 0
M  V30 30 O -0.652845 -6.176778 5.482202 0
M  V30 31 H 0.485966 -8.777536 4.800888 0
M  V30 32 H 1.209519 -7.867540 6.129491 0
M  V30 33 H 2.258401 -8.614841 4.916316 0
M  V30 34 H 2.945812 -7.306731 3.035300 0
M  V30 35 H 2.790040 -5.238738 1.725617 0
M  V30 36 H 2.602757 -3.501146 0.674745 0
M  V30 37 H 2.668838 -0.500586 1.525304 0
M  V30 38 H 2.183915 1.537109 0.424705 0
M  V30 39 H 1.322678 3.766341 0.092611 0
M  V30 40 H 0.241077 5.817974 0.549067 0
M  V30 41 H -1.419898 7.381110 0.213866 0
M  V30 42 H -3.420698 8.139566 -0.927121 0
M  V30 43 H -4.399198 6.646438 -2.706974 0
M  V30 44 H -3.356492 4.510817 -3.252847 0
M  V30 45 H 0.235680 -2.621950 -1.131644 0
M  V30 46 H -0.629694 -4.030209 3.956453 0
M  V30 47 H -1.390851 -6.839389 5.319141 0
M  V30 END ATOM
M  V30 BEGIN BOND
M  V30 1 1 1 2
M  V30 2 2 2 3
M  V30 3 1 3 4
M  V30 4 2 4 5
M  V30 5 1 5 6
M  V30 6 2 6 7
M  V30 7 1 6 8
M  V30 8 1 8 9
M  V30 9 2 9 10
M  V30 10 1 10 11
M  V30 11 2 11 12
M  V30 12 1 12 13
M  V30 13 1 13 14
M  V30 14 2 14 15
M  V30 15 1 15 16
M  V30 16 2 16 17
M  V30 17 1 17 18
M  V30 18 2 18 19
M  V30 19 1 19 20
M  V30 20 2 20 21
M  V30 21 1 21 22
M  V30 22 2 22 23
M  V30 23 1 23 24
M  V30 24 1 12 25
M  V30 25 1 25 26
M  V30 26 2 25 27
M  V30 27 1 5 28
M  V30 28 2 28 29
M  V30 29 1 29 30
M  V30 30 1 29 2
M  V30 31 1 27 9
M  V30 32 1 23 14
M  V30 33 1 22 17
M  V30 34 1 1 31
M  V30 35 1 1 32
M  V30 36 1 1 33
M  V30 37 1 3 34
M  V30 38 1 4 35
M  V30 39 1 8 36
M  V30 40 1 10 37
M  V30 41 1 11 38
M  V30 42 1 15 39
M  V30 43 1 16 40
M  V30 44 1 18 41
M  V30 45 1 19 42
M  V30 46 1 20 43
M  V30 47 1 21 44
M  V30 48 1 27 45
M  V30 49 1 28 46
M  V30 50 1 30 47
M  V30 END BOND
M  V30 END CTAB
M  END
>  <Dataset>  (653) 
ChEMBL_Kinases

>  <Ligand_Instance>  (653) 
nan

>  <PDB_ID>  (653) 
nan

>  <Standardized_SMILES>  (653) 
Cc1ccc(C(=O)Nc2ccc(Oc3ccc4ccccc4c3Br)c(Cl)c2)cc1O

>  <Name>  (653) 
nan

>  <Pocket>  (653) 
nan

>  <ATP_Site>  (653) 
nan

>  <Peripheral>  (653) 
nan

>  <Num_H_Atoms_ProtBoundConf>  (653) 
nan

>  <Num_Resolved_Atoms>  (653) 
nan

>  <Num_Not_Resolved_Atoms>  (653) 
nan

$$$$
CHEMBL4783516
     RDKit          3D

  0  0  0  0  0  0  0  0  0  0999 V3000
M  V30 BEGIN CTAB
M  V30 COUNTS 39 41 0 0 0
M  V30 BEGIN ATOM
M  V30 1 C 2.906532 -6.822938 1.769877 0
M  V30 2 C 3.747623 -5.575557 1.932613 0
M  V30 3 O 3.011131 -4.405779 1.641516 0
M  V30 4 C 3.529516 -3.119951 1.708726 0
M  V30 5 O 4.747288 -3.018681 2.057591 0
M  V30 6 C 2.676887 -1.980728 1.385356 0
M  V30 7 C 1.346421 -2.176184 1.007443 0
M  V30 8 C 0.550849 -1.088070 0.704224 0
M  V30 9 C 1.106927 0.179747 0.786152 0
M  V30 10 C 0.281464 1.323496 0.470812 0
M  V30 11 C 0.472738 2.638888 0.448428 0
M  V30 12 C -0.506075 3.500968 0.105711 0
M  V30 13 N -0.535962 4.842171 0.013677 0
M  V30 14 C -1.620364 5.506813 -0.350676 0
M  V30 15 N -2.822274 4.970868 -0.675623 0
M  V30 16 C -2.886121 3.634274 -0.611750 0
M  V30 17 S -4.395501 2.812708 -1.020803 0
M  V30 18 C -4.359480 1.030771 -0.876494 0
M  V30 19 C -4.224255 0.524803 0.508027 0
M  V30 20 O -5.291446 0.270347 1.163207 0
M  V30 21 O -4.011009 0.056387 1.792920 0
M  V30 22 C -1.726883 2.912582 -0.221499 0
M  V30 23 S -1.419825 1.168717 -0.025369 0
M  V30 24 C 2.411136 0.435626 1.152498 0
M  V30 25 C 3.175376 -0.696420 1.449338 0
M  V30 26 H 1.864574 -6.507975 1.522788 0
M  V30 27 H 3.317382 -7.498354 0.977708 0
M  V30 28 H 2.861711 -7.398231 2.693438 0
M  V30 29 H 4.118130 -5.558682 2.972411 0
M  V30 30 H 4.645578 -5.694651 1.287907 0
M  V30 31 H 0.922559 -3.177606 0.947536 0
M  V30 32 H -0.472406 -1.262386 0.415124 0
M  V30 33 H 1.479725 2.971933 0.727228 0
M  V30 34 H -1.541322 6.596063 -0.394526 0
M  V30 35 H -3.457111 0.658783 -1.445080 0
M  V30 36 H -5.293127 0.653840 -1.356466 0
M  V30 37 H -3.067233 -0.201366 2.124128 0
M  V30 38 H 2.823585 1.424621 1.210353 0
M  V30 39 H 4.220226 -0.571653 1.747661 0
M  V30 END ATOM
M  V30 BEGIN BOND
M  V30 1 1 1 2
M  V30 2 1 2 3
M  V30 3 1 3 4
M  V30 4 2 4 5
M  V30 5 1 4 6
M  V30 6 2 6 7
M  V30 7 1 7 8
M  V30 8 2 8 9
M  V30 9 1 9 10
M  V30 10 2 10 11
M  V30 11 1 11 12
M  V30 12 2 12 13
M  V30 13 1 13 14
M  V30 14 2 14 15
M  V30 15 1 15 16
M  V30 16 1 16 17
M  V30 17 1 17 18
M  V30 18 1 18 19
M  V30 19 2 19 20
M  V30 20 1 19 21
M  V30 21 2 16 22
M  V30 22 1 22 23
M  V30 23 1 9 24
M  V30 24 2 24 25
M  V30 25 1 25 6
M  V30 26 1 23 10
M  V30 27 1 22 12
M  V30 28 1 1 26
M  V30 29 1 1 27
M  V30 30 1 1 28
M  V30 31 1 2 29
M  V30 32 1 2 30
M  V30 33 1 7 31
M  V30 34 1 8 32
M  V30 35 1 11 33
M  V30 36 1 14 34
M  V30 37 1 18 35
M  V30 38 1 18 36
M  V30 39 1 21 37
M  V30 40 1 24 38
M  V30 41 1 25 39
M  V30 END BOND
M  V30 END CTAB
M  END
>  <Dataset>  (654) 
ChEMBL_Kinases

>  <Ligand_Instance>  (654) 
nan

>  <PDB_ID>  (654) 
nan

>  <Standardized_SMILES>  (654) 
CCOC(=O)c1ccc(-c2cc3ncnc(SCC(=O)O)c3s2)cc1

>  <Name>  (654) 
nan

>  <Pocket>  (654) 
nan

>  <ATP_Site>  (654) 
nan

>  <Peripheral>  (654) 
nan

>  <Num_H_Atoms_ProtBoundConf>  (654) 
nan

>  <Num_Resolved_Atoms>  (654) 
nan

>  <Num_Not_Resolved_Atoms>  (654) 
nan

$$$$
CHEMBL4783888
     RDKit          3D

  0  0  0  0  0  0  0  0  0  0999 V3000
M  V30 BEGIN CTAB
M  V30 COUNTS 55 58 0 0 0
M  V30 BEGIN ATOM
M  V30 1 C 5.085498 -1.465844 3.528065 0
M  V30 2 O 4.147221 -0.574914 4.073986 0
M  V30 3 C 3.138463 0.022004 3.367527 0
M  V30 4 O 3.317516 -0.446663 2.207947 0
M  V30 5 C 2.263029 0.911259 4.072061 0
M  V30 6 S 2.367327 1.333750 5.778145 0
M  V30 7 C 0.858015 2.480980 5.689437 0
M  V30 8 C 0.444045 2.402946 4.328638 0
M  V30 9 C 1.187210 1.586360 3.521547 0
M  V30 10 N 0.643171 1.639799 2.212113 0
M  V30 11 C 1.183090 2.002065 0.959035 0
M  V30 12 N 1.532817 1.010632 0.111615 0
M  V30 13 C 2.066235 1.177170 -1.100330 0
M  V30 14 N 2.402954 0.123435 -2.027523 0
M  V30 15 C 1.181722 -0.658838 -2.021631 0
M  V30 16 C 1.044662 -1.508786 -0.920288 0
M  V30 17 C -0.100696 -2.305197 -0.771454 0
M  V30 18 C -1.108973 -2.254856 -1.714537 0
M  V30 19 N -2.305542 -3.042567 -1.649675 0
M  V30 20 C -3.585855 -2.443096 -1.802559 0
M  V30 21 C -4.526477 -2.772595 -0.666631 0
M  V30 22 C -4.648450 -4.235424 -0.387484 0
M  V30 23 O -5.371411 -4.412057 0.786899 0
M  V30 24 C -3.256988 -4.814921 -0.246555 0
M  V30 25 C -2.494318 -4.441038 -1.465566 0
M  V30 26 C -0.924897 -1.402700 -2.777149 0
M  V30 27 C 0.179658 -0.603225 -2.969706 0
M  V30 28 N 2.289725 2.427689 -1.546060 0
M  V30 29 C 1.988601 3.513014 -0.805711 0
M  V30 30 C 1.442079 3.237510 0.426518 0
M  V30 31 N 1.114780 4.385274 1.198729 0 CHG=1 VAL=4
M  V30 32 O 0.800459 5.548309 0.882536 0
M  V30 33 O 0.941410 4.911113 2.440665 0 CHG=-1 VAL=1
M  V30 34 H 4.703526 -1.993821 2.624783 0
M  V30 35 H 6.023749 -0.955094 3.218597 0
M  V30 36 H 5.279221 -2.287791 4.269061 0
M  V30 37 H 0.648547 2.944200 6.709596 0
M  V30 38 H -0.400028 3.065723 4.353407 0
M  V30 39 H -0.352312 1.384483 1.927326 0
M  V30 40 H 3.300809 -0.012039 -2.546630 0
M  V30 41 H 1.791396 -1.616499 -0.122380 0
M  V30 42 H -0.200413 -2.947824 0.068586 0
M  V30 43 H -4.074857 -2.742873 -2.753585 0
M  V30 44 H -3.479937 -1.329848 -1.818829 0
M  V30 45 H -5.507244 -2.292654 -0.849428 0
M  V30 46 H -4.128791 -2.266769 0.261059 0
M  V30 47 H -5.192034 -4.741856 -1.223032 0
M  V30 48 H -5.858558 -3.603576 1.056510 0
M  V30 49 H -2.809540 -4.402691 0.690405 0
M  V30 50 H -3.383615 -5.909423 -0.194578 0
M  V30 51 H -3.031509 -4.876455 -2.354062 0
M  V30 52 H -1.498036 -4.954084 -1.443684 0
M  V30 53 H -1.697373 -1.333229 -3.559503 0
M  V30 54 H 0.360310 0.077638 -3.785762 0
M  V30 55 H 2.155691 4.522959 -1.133216 0
M  V30 END ATOM
M  V30 BEGIN BOND
M  V30 1 1 1 2
M  V30 2 1 2 3
M  V30 3 2 3 4
M  V30 4 1 3 5
M  V30 5 1 5 6
M  V30 6 1 6 7
M  V30 7 2 7 8
M  V30 8 1 8 9
M  V30 9 1 9 10
M  V30 10 1 10 11
M  V30 11 2 11 12
M  V30 12 1 12 13
M  V30 13 1 13 14
M  V30 14 1 14 15
M  V30 15 2 15 16
M  V30 16 1 16 17
M  V30 17 2 17 18
M  V30 18 1 18 19
M  V30 19 1 19 20
M  V30 20 1 20 21
M  V30 21 1 21 22
M  V30 22 1 22 23
M  V30 23 1 22 24
M  V30 24 1 24 25
M  V30 25 1 18 26
M  V30 26 2 26 27
M  V30 27 2 13 28
M  V30 28 1 28 29
M  V30 29 2 29 30
M  V30 30 1 30 31
M  V30 31 2 31 32
M  V30 32 1 31 33
M  V30 33 2 9 5
M  V30 34 1 30 11
M  V30 35 1 27 15
M  V30 36 1 25 19
M  V30 37 1 1 34
M  V30 38 1 1 35
M  V30 39 1 1 36
M  V30 40 1 7 37
M  V30 41 1 8 38
M  V30 42 1 10 39
M  V30 43 1 14 40
M  V30 44 1 16 41
M  V30 45 1 17 42
M  V30 46 1 20 43
M  V30 47 1 20 44
M  V30 48 1 21 45
M  V30 49 1 21 46
M  V30 50 1 22 47
M  V30 51 1 23 48
M  V30 52 1 24 49
M  V30 53 1 24 50
M  V30 54 1 25 51
M  V30 55 1 25 52
M  V30 56 1 26 53
M  V30 57 1 27 54
M  V30 58 1 29 55
M  V30 END BOND
M  V30 END CTAB
M  END
>  <Dataset>  (655) 
ChEMBL_Kinases

>  <Ligand_Instance>  (655) 
nan

>  <PDB_ID>  (655) 
nan

>  <Standardized_SMILES>  (655) 
COC(=O)c1sccc1Nc1nc(Nc2ccc(N3CCC(O)CC3)cc2)ncc1[N+](=O)[O-]

>  <Name>  (655) 
nan

>  <Pocket>  (655) 
nan

>  <ATP_Site>  (655) 
nan

>  <Peripheral>  (655) 
nan

>  <Num_H_Atoms_ProtBoundConf>  (655) 
nan

>  <Num_Resolved_Atoms>  (655) 
nan

>  <Num_Not_Resolved_Atoms>  (655) 
nan

$$$$
CHEMBL4783606
     RDKit          3D

  0  0  0  0  0  0  0  0  0  0999 V3000
M  V30 BEGIN CTAB
M  V30 COUNTS 58 62 0 0 0
M  V30 BEGIN ATOM
M  V30 1 C 1.175875 -0.831978 5.922741 0
M  V30 2 C 2.395816 -1.031792 5.038476 0
M  V30 3 O 2.365583 -0.115901 3.968823 0
M  V30 4 C 3.375425 -0.105472 3.026151 0
M  V30 5 C 4.461282 -0.961424 3.051614 0
M  V30 6 C 5.464852 -0.930074 2.089645 0
M  V30 7 C 5.374994 -0.005974 1.065093 0
M  V30 8 C 4.294773 0.879402 0.999182 0
M  V30 9 F 4.249295 1.764531 -0.019551 0
M  V30 10 C 3.318659 0.803499 1.989246 0
M  V30 11 C 2.189279 1.726920 1.923001 0
M  V30 12 C 1.032698 1.440145 1.257552 0
M  V30 13 C -0.025981 2.323168 1.203879 0
M  V30 14 C 0.149216 3.513606 1.860840 0
M  V30 15 C 1.309855 3.844026 2.549297 0
M  V30 16 N 2.285788 2.917731 2.544330 0
M  V30 17 C -1.005409 4.243503 1.689246 0
M  V30 18 N -1.818441 3.487335 0.952554 0
M  V30 19 N -1.268178 2.333125 0.643341 0
M  V30 20 C -1.687092 1.203153 -0.095222 0
M  V30 21 C -2.648168 0.359194 0.422278 0
M  V30 22 C -3.050343 -0.741161 -0.306391 0
M  V30 23 C -2.551445 -1.071074 -1.546584 0
M  V30 24 N -2.958094 -2.200029 -2.303972 0
M  V30 25 C -3.933693 -3.204194 -1.962751 0
M  V30 26 C -3.386006 -4.604091 -2.027013 0
M  V30 27 N -2.457362 -4.786990 -3.120782 0
M  V30 28 C -1.078650 -4.750965 -2.677335 0
M  V30 29 C -2.726923 -3.792971 -4.137981 0
M  V30 30 C -2.364360 -2.449466 -3.602192 0
M  V30 31 C -1.592401 -0.225226 -2.058355 0
M  V30 32 C -1.182820 0.878159 -1.338073 0
M  V30 33 H 0.836413 -1.799194 6.351348 0
M  V30 34 H 1.434565 -0.074185 6.688960 0
M  V30 35 H 0.359273 -0.454953 5.249550 0
M  V30 36 H 3.297899 -0.881217 5.690095 0
M  V30 37 H 2.441269 -2.062055 4.673241 0
M  V30 38 H 4.517648 -1.673375 3.852797 0
M  V30 39 H 6.296366 -1.619167 2.149443 0
M  V30 40 H 6.127334 0.066773 0.284933 0
M  V30 41 H 0.925252 0.489878 0.747880 0
M  V30 42 H 1.491790 4.757236 3.074901 0
M  V30 43 H -1.173415 5.237868 2.094933 0
M  V30 44 H -3.079536 0.566127 1.395520 0
M  V30 45 H -3.805117 -1.366996 0.146566 0
M  V30 46 H -4.313242 -2.994587 -0.944343 0
M  V30 47 H -4.749929 -3.121211 -2.715609 0
M  V30 48 H -2.834292 -4.769575 -1.078268 0
M  V30 49 H -4.201530 -5.338815 -2.125471 0
M  V30 50 H -1.011380 -4.306312 -1.655827 0
M  V30 51 H -0.442528 -4.225711 -3.414685 0
M  V30 52 H -0.717142 -5.796139 -2.583894 0
M  V30 53 H -3.793860 -3.820363 -4.373222 0
M  V30 54 H -2.099207 -3.983392 -5.033174 0
M  V30 55 H -2.684288 -1.651582 -4.332892 0
M  V30 56 H -1.245182 -2.325543 -3.515665 0
M  V30 57 H -1.109698 -0.353087 -3.016385 0
M  V30 58 H -0.430881 1.553010 -1.724554 0
M  V30 END ATOM
M  V30 BEGIN BOND
M  V30 1 1 1 2
M  V30 2 1 2 3
M  V30 3 1 3 4
M  V30 4 2 4 5
M  V30 5 1 5 6
M  V30 6 2 6 7
M  V30 7 1 7 8
M  V30 8 1 8 9
M  V30 9 2 8 10
M  V30 10 1 10 11
M  V30 11 2 11 12
M  V30 12 1 12 13
M  V30 13 2 13 14
M  V30 14 1 14 15
M  V30 15 2 15 16
M  V30 16 1 14 17
M  V30 17 2 17 18
M  V30 18 1 18 19
M  V30 19 1 19 20
M  V30 20 2 20 21
M  V30 21 1 21 22
M  V30 22 2 22 23
M  V30 23 1 23 24
M  V30 24 1 24 25
M  V30 25 1 25 26
M  V30 26 1 26 27
M  V30 27 1 27 28
M  V30 28 1 27 29
M  V30 29 1 29 30
M  V30 30 1 23 31
M  V30 31 2 31 32
M  V30 32 1 10 4
M  V30 33 1 16 11
M  V30 34 1 32 20
M  V30 35 1 19 13
M  V30 36 1 30 24
M  V30 37 1 1 33
M  V30 38 1 1 34
M  V30 39 1 1 35
M  V30 40 1 2 36
M  V30 41 1 2 37
M  V30 42 1 5 38
M  V30 43 1 6 39
M  V30 44 1 7 40
M  V30 45 1 12 41
M  V30 46 1 15 42
M  V30 47 1 17 43
M  V30 48 1 21 44
M  V30 49 1 22 45
M  V30 50 1 25 46
M  V30 51 1 25 47
M  V30 52 1 26 48
M  V30 53 1 26 49
M  V30 54 1 28 50
M  V30 55 1 28 51
M  V30 56 1 28 52
M  V30 57 1 29 53
M  V30 58 1 29 54
M  V30 59 1 30 55
M  V30 60 1 30 56
M  V30 61 1 31 57
M  V30 62 1 32 58
M  V30 END BOND
M  V30 END CTAB
M  END
>  <Dataset>  (656) 
ChEMBL_Kinases

>  <Ligand_Instance>  (656) 
nan

>  <PDB_ID>  (656) 
nan

>  <Standardized_SMILES>  (656) 
CCOc1cccc(F)c1-c1cc2c(cn1)cnn2-c1ccc(N2CCN(C)CC2)cc1

>  <Name>  (656) 
nan

>  <Pocket>  (656) 
nan

>  <ATP_Site>  (656) 
nan

>  <Peripheral>  (656) 
nan

>  <Num_H_Atoms_ProtBoundConf>  (656) 
nan

>  <Num_Resolved_Atoms>  (656) 
nan

>  <Num_Not_Resolved_Atoms>  (656) 
nan

$$$$
CHEMBL4206921
     RDKit          3D

  0  0  0  0  0  0  0  0  0  0999 V3000
M  V30 BEGIN CTAB
M  V30 COUNTS 60 63 0 0 0
M  V30 BEGIN ATOM
M  V30 1 C 2.780883 -3.115010 4.686424 0
M  V30 2 C 1.627565 -2.898033 5.634140 0
M  V30 3 N 0.979924 -1.685909 5.533731 0
M  V30 4 C 1.516609 -0.474747 5.891228 0
M  V30 5 C 2.619723 0.160530 5.098717 0
M  V30 6 C -0.480218 -1.668864 5.445398 0
M  V30 7 C -0.804480 -2.468705 4.069479 0
M  V30 8 C 0.104170 -1.896611 3.084071 0
M  V30 9 O 0.365557 -2.144384 1.874305 0
M  V30 10 C 0.632448 -2.423365 0.644596 0
M  V30 11 C 0.858784 -1.247423 -0.147939 0
M  V30 12 C 1.157775 -1.011629 -1.552338 0
M  V30 13 C 1.048047 0.399494 -1.699722 0
M  V30 14 C 1.364921 1.579092 -1.126821 0
M  V30 15 C 0.691421 2.736556 -1.329587 0
M  V30 16 C -0.417353 2.799737 -2.176675 0
M  V30 17 N -1.221834 3.851982 -2.458683 0
M  V30 18 C -2.180681 3.332537 -3.298175 0
M  V30 19 C -1.954957 2.011862 -3.508540 0
M  V30 20 C -2.780424 1.065379 -4.289793 0
M  V30 21 C -3.678580 1.287591 -5.246401 0
M  V30 22 C -4.421823 0.371408 -5.946495 0
M  V30 23 N -4.229983 -0.903917 -5.635845 0
M  V30 24 C -3.333514 -1.213374 -4.666040 0
M  V30 25 N -3.072532 -2.503589 -4.234694 0
M  V30 26 N -2.629544 -0.242294 -4.017536 0
M  V30 27 C -0.797592 1.586869 -2.804303 0
M  V30 28 C -0.078549 0.408201 -2.577792 0
M  V30 29 N 1.135996 -2.232639 -1.731833 0
M  V30 30 C 1.017061 -3.438909 -1.458728 0
M  V30 31 N 1.230173 -4.439084 -2.393394 0
M  V30 32 N 0.744739 -3.540784 -0.184774 0
M  V30 33 H 2.664894 -4.086700 4.081880 0
M  V30 34 H 2.866956 -2.368090 3.882698 0
M  V30 35 H 3.759183 -3.307381 5.216156 0
M  V30 36 H 0.896607 -3.766385 5.389385 0
M  V30 37 H 1.985743 -3.202115 6.710559 0
M  V30 38 H 1.866150 -0.501548 6.950393 0
M  V30 39 H 0.666116 0.320286 5.889615 0
M  V30 40 H 2.317723 0.539491 4.096246 0
M  V30 41 H 3.505480 -0.408043 5.017574 0
M  V30 42 H 2.881916 1.108371 5.690876 0
M  V30 43 H -0.724835 -0.634984 5.180361 0
M  V30 44 H -0.996948 -2.173179 6.187884 0
M  V30 45 H -1.845725 -2.181344 3.911524 0
M  V30 46 H -0.800169 -3.540537 4.287879 0
M  V30 47 H -0.566229 -0.778643 2.836279 0
M  V30 48 H 0.899719 -1.238068 3.627238 0
M  V30 49 H 0.753142 -0.394695 0.578127 0
M  V30 50 H 2.226516 1.317970 -0.509270 0
M  V30 51 H 1.100624 3.554566 -0.815607 0
M  V30 52 H -1.067341 4.784944 -2.119590 0
M  V30 53 H -2.991181 3.888721 -3.734672 0
M  V30 54 H -3.789650 2.387642 -5.426041 0
M  V30 55 H -5.092348 0.715100 -6.685377 0
M  V30 56 H -3.107684 -3.493586 -3.849099 0
M  V30 57 H -2.212409 -3.069405 -4.158429 0
M  V30 58 H -0.554344 -0.383506 -3.166584 0
M  V30 59 H 1.532835 -5.249687 -2.962267 0
M  V30 60 H 1.988205 -5.226126 -2.318847 0
M  V30 END ATOM
M  V30 BEGIN BOND
M  V30 1 1 1 2
M  V30 2 1 2 3
M  V30 3 1 3 4
M  V30 4 1 4 5
M  V30 5 1 3 6
M  V30 6 1 6 7
M  V30 7 1 7 8
M  V30 8 1 8 9
M  V30 9 1 9 10
M  V30 10 2 10 11
M  V30 11 1 11 12
M  V30 12 1 12 13
M  V30 13 2 13 14
M  V30 14 1 14 15
M  V30 15 2 15 16
M  V30 16 1 16 17
M  V30 17 1 17 18
M  V30 18 2 18 19
M  V30 19 1 19 20
M  V30 20 2 20 21
M  V30 21 1 21 22
M  V30 22 2 22 23
M  V30 23 1 23 24
M  V30 24 1 24 25
M  V30 25 2 24 26
M  V30 26 1 19 27
M  V30 27 2 27 28
M  V30 28 2 12 29
M  V30 29 1 29 30
M  V30 30 1 30 31
M  V30 31 2 30 32
M  V30 32 1 32 10
M  V30 33 1 28 13
M  V30 34 1 27 16
M  V30 35 1 26 20
M  V30 36 1 1 33
M  V30 37 1 1 34
M  V30 38 1 1 35
M  V30 39 1 2 36
M  V30 40 1 2 37
M  V30 41 1 4 38
M  V30 42 1 4 39
M  V30 43 1 5 40
M  V30 44 1 5 41
M  V30 45 1 5 42
M  V30 46 1 6 43
M  V30 47 1 6 44
M  V30 48 1 7 45
M  V30 49 1 7 46
M  V30 50 1 8 47
M  V30 51 1 8 48
M  V30 52 1 11 49
M  V30 53 1 14 50
M  V30 54 1 15 51
M  V30 55 1 17 52
M  V30 56 1 18 53
M  V30 57 1 21 54
M  V30 58 1 22 55
M  V30 59 1 25 56
M  V30 60 1 25 57
M  V30 61 1 28 58
M  V30 62 1 31 59
M  V30 63 1 31 60
M  V30 END BOND
M  V30 END CTAB
M  END
>  <Dataset>  (657) 
ChEMBL_Kinases

>  <Ligand_Instance>  (657) 
nan

>  <PDB_ID>  (657) 
nan

>  <Standardized_SMILES>  (657) 
CCN(CC)CCCOc1cc(-c2ccc3[nH]cc(-c4ccnc(N)n4)c3c2)nc(N)n1

>  <Name>  (657) 
nan

>  <Pocket>  (657) 
nan

>  <ATP_Site>  (657) 
nan

>  <Peripheral>  (657) 
nan

>  <Num_H_Atoms_ProtBoundConf>  (657) 
nan

>  <Num_Resolved_Atoms>  (657) 
nan

>  <Num_Not_Resolved_Atoms>  (657) 
nan

$$$$
CHEMBL4783711
     RDKit          3D

  0  0  0  0  0  0  0  0  0  0999 V3000
M  V30 BEGIN CTAB
M  V30 COUNTS 43 46 0 0 0
M  V30 BEGIN ATOM
M  V30 1 N 1.953965 -5.392370 1.132773 0
M  V30 2 C 1.815483 -3.984053 1.133176 0
M  V30 3 N 2.954709 -3.238734 1.212387 0
M  V30 4 C 2.826500 -1.899445 1.212627 0
M  V30 5 C 1.612185 -1.234852 1.137641 0
M  V30 6 C 1.541935 0.227706 1.143024 0
M  V30 7 C 2.472388 0.973876 1.838195 0
M  V30 8 C 2.346379 2.349762 1.800392 0
M  V30 9 C 1.317613 2.932778 1.085541 0
M  V30 10 C 0.362496 2.198371 0.373269 0
M  V30 11 C 0.508421 0.826580 0.425465 0
M  V30 12 C -0.602994 3.110477 -0.284421 0
M  V30 13 C -0.518389 4.337627 0.611061 0
M  V30 14 C 0.982357 4.370527 0.898701 0 CFG=2
M  V30 15 C 1.704770 4.985628 -0.240096 0
M  V30 16 O 2.528839 4.485323 -1.035594 0
M  V30 17 O 1.382033 6.334846 -0.411755 0
M  V30 18 C 0.441934 -1.963894 1.056471 0
M  V30 19 C 0.599409 -3.335015 1.057968 0
M  V30 20 C -0.621278 -4.133171 0.973871 0
M  V30 21 C -1.661495 -3.711975 1.804233 0
M  V30 22 C -2.845692 -4.382779 1.808858 0
M  V30 23 C -3.030865 -5.471981 1.004820 0
M  V30 24 Cl -4.560335 -6.350587 0.999334 0
M  V30 25 C -2.015528 -5.926867 0.158570 0
M  V30 26 C -0.827782 -5.234293 0.170068 0
M  V30 27 H 2.222724 -6.061576 0.354344 0
M  V30 28 H 1.851784 -6.173644 1.818716 0
M  V30 29 H 3.754010 -1.347214 1.276281 0
M  V30 30 H 3.233583 0.442511 2.364156 0
M  V30 31 H 3.070699 2.937152 2.341368 0
M  V30 32 H -0.230677 0.233427 -0.126335 0
M  V30 33 H -0.169622 3.423925 -1.260169 0
M  V30 34 H -1.612924 2.699142 -0.378114 0
M  V30 35 H -1.091444 4.114891 1.518418 0
M  V30 36 H -0.877278 5.256585 0.134753 0
M  V30 37 H 1.119561 4.963431 1.811715 0
M  V30 38 H 1.929018 6.971296 -0.996142 0
M  V30 39 H -0.503329 -1.465245 0.998205 0
M  V30 40 H -1.603068 -2.862631 2.470503 0
M  V30 41 H -3.701639 -4.109338 2.432222 0
M  V30 42 H -2.107858 -6.781701 -0.497644 0
M  V30 43 H 0.024368 -5.493875 -0.440069 0
M  V30 END ATOM
M  V30 BEGIN BOND
M  V30 1 1 1 2
M  V30 2 2 2 3
M  V30 3 1 3 4
M  V30 4 2 4 5
M  V30 5 1 5 6
M  V30 6 2 6 7
M  V30 7 1 7 8
M  V30 8 2 8 9
M  V30 9 1 9 10
M  V30 10 2 10 11
M  V30 11 1 10 12
M  V30 12 1 12 13
M  V30 13 1 13 14
M  V30 14 1 14 15
M  V30 15 2 15 16
M  V30 16 1 15 17
M  V30 17 1 5 18
M  V30 18 2 18 19
M  V30 19 1 19 20
M  V30 20 2 20 21
M  V30 21 1 21 22
M  V30 22 2 22 23
M  V30 23 1 23 24
M  V30 24 1 23 25
M  V30 25 2 25 26
M  V30 26 1 19 2
M  V30 27 1 26 20
M  V30 28 1 11 6
M  V30 29 1 14 9
M  V30 30 1 1 27
M  V30 31 1 1 28
M  V30 32 1 4 29
M  V30 33 1 7 30
M  V30 34 1 8 31
M  V30 35 1 11 32
M  V30 36 1 12 33
M  V30 37 1 12 34
M  V30 38 1 13 35
M  V30 39 1 13 36
M  V30 40 1 14 37 CFG=1
M  V30 41 1 17 38
M  V30 42 1 18 39
M  V30 43 1 21 40
M  V30 44 1 22 41
M  V30 45 1 25 42
M  V30 46 1 26 43
M  V30 END BOND
M  V30 END CTAB
M  END
>  <Dataset>  (658) 
ChEMBL_Kinases

>  <Ligand_Instance>  (658) 
nan

>  <PDB_ID>  (658) 
nan

>  <Standardized_SMILES>  (658) 
Nc1ncc(-c2ccc3c(c2)CC[C@@H]3C(=O)O)cc1-c1ccc(Cl)cc1

>  <Name>  (658) 
nan

>  <Pocket>  (658) 
nan

>  <ATP_Site>  (658) 
nan

>  <Peripheral>  (658) 
nan

>  <Num_H_Atoms_ProtBoundConf>  (658) 
nan

>  <Num_Resolved_Atoms>  (658) 
nan

>  <Num_Not_Resolved_Atoms>  (658) 
nan

$$$$
CHEMBL4783719
     RDKit          3D

  0  0  0  0  0  0  0  0  0  0999 V3000
M  V30 BEGIN CTAB
M  V30 COUNTS 40 43 0 0 0
M  V30 BEGIN ATOM
M  V30 1 C 1.163133 -7.117068 1.743322 0
M  V30 2 O 0.664863 -5.881041 1.208008 0
M  V30 3 C 1.530080 -4.991666 0.584320 0
M  V30 4 O 2.704469 -5.443846 0.586789 0
M  V30 5 C 1.116263 -3.716407 0.012480 0
M  V30 6 C 2.104639 -2.951811 -0.571362 0
M  V30 7 C 1.667104 -1.742992 -1.104567 0
M  V30 8 C 0.338487 -1.373975 -1.034416 0
M  V30 9 N 0.002996 -0.108259 -1.616620 0
M  V30 10 C -0.163499 0.210405 -2.916253 0
M  V30 11 N -0.475674 1.513834 -3.047568 0
M  V30 12 C -0.505074 2.020813 -1.805099 0
M  V30 13 C -0.776022 3.320605 -1.368684 0
M  V30 14 C -0.732393 3.551612 -0.000907 0
M  V30 15 C -0.433521 2.548454 0.924041 0
M  V30 16 C -0.397055 2.830537 2.357935 0
M  V30 17 C 0.722839 2.263217 2.977325 0
M  V30 18 C 0.889379 2.450003 4.344856 0
M  V30 19 N 0.002536 3.154690 5.055817 0
M  V30 20 C -1.076440 3.703455 4.469282 0
M  V30 21 C -1.298789 3.554345 3.115114 0
M  V30 22 C -0.168817 1.268232 0.463811 0
M  V30 23 F 0.127593 0.256348 1.325581 0
M  V30 24 C -0.207645 1.018083 -0.899035 0
M  V30 25 C -0.615479 -2.195006 -0.428409 0
M  V30 26 C -0.224103 -3.411657 0.117801 0
M  V30 27 H 2.188673 -6.915578 2.144239 0
M  V30 28 H 1.208149 -7.888050 0.947707 0
M  V30 29 H 0.530614 -7.489844 2.560901 0
M  V30 30 H 3.128822 -3.299386 -0.593151 0
M  V30 31 H 2.436861 -1.127217 -1.569652 0
M  V30 32 H -0.057144 -0.496688 -3.730562 0
M  V30 33 H -1.006891 4.100845 -2.065693 0
M  V30 34 H -0.941777 4.559215 0.346523 0
M  V30 35 H 1.511762 1.677087 2.536543 0
M  V30 36 H 1.738351 2.039542 4.906639 0
M  V30 37 H -1.827637 4.285092 4.999675 0
M  V30 38 H -2.119025 3.940545 2.523595 0
M  V30 39 H -1.631888 -1.883167 -0.389851 0
M  V30 40 H -0.915260 -4.081744 0.595348 0
M  V30 END ATOM
M  V30 BEGIN BOND
M  V30 1 1 1 2
M  V30 2 1 2 3
M  V30 3 2 3 4
M  V30 4 1 3 5
M  V30 5 2 5 6
M  V30 6 1 6 7
M  V30 7 2 7 8
M  V30 8 1 8 9
M  V30 9 1 9 10
M  V30 10 2 10 11
M  V30 11 1 11 12
M  V30 12 2 12 13
M  V30 13 1 13 14
M  V30 14 2 14 15
M  V30 15 1 15 16
M  V30 16 2 16 17
M  V30 17 1 17 18
M  V30 18 2 18 19
M  V30 19 1 19 20
M  V30 20 2 20 21
M  V30 21 1 15 22
M  V30 22 1 22 23
M  V30 23 2 22 24
M  V30 24 1 8 25
M  V30 25 2 25 26
M  V30 26 1 26 5
M  V30 27 1 24 9
M  V30 28 1 24 12
M  V30 29 1 21 16
M  V30 30 1 1 27
M  V30 31 1 1 28
M  V30 32 1 1 29
M  V30 33 1 6 30
M  V30 34 1 7 31
M  V30 35 1 10 32
M  V30 36 1 13 33
M  V30 37 1 14 34
M  V30 38 1 17 35
M  V30 39 1 18 36
M  V30 40 1 20 37
M  V30 41 1 21 38
M  V30 42 1 25 39
M  V30 43 1 26 40
M  V30 END BOND
M  V30 END CTAB
M  END
>  <Dataset>  (659) 
ChEMBL_Kinases

>  <Ligand_Instance>  (659) 
nan

>  <PDB_ID>  (659) 
nan

>  <Standardized_SMILES>  (659) 
COC(=O)c1ccc(-n2cnc3ccc(-c4ccncc4)c(F)c32)cc1

>  <Name>  (659) 
nan

>  <Pocket>  (659) 
nan

>  <ATP_Site>  (659) 
nan

>  <Peripheral>  (659) 
nan

>  <Num_H_Atoms_ProtBoundConf>  (659) 
nan

>  <Num_Resolved_Atoms>  (659) 
nan

>  <Num_Not_Resolved_Atoms>  (659) 
nan

$$$$
CHEMBL4783726
     RDKit          3D

  0  0  0  0  0  0  0  0  0  0999 V3000
M  V30 BEGIN CTAB
M  V30 COUNTS 52 57 0 0 0
M  V30 BEGIN ATOM
M  V30 1 O 0.581693 -1.909972 0.954799 0
M  V30 2 C -0.249956 -1.135982 1.521374 0
M  V30 3 N 0.269654 -0.172267 2.408364 0
M  V30 4 C 1.649138 -0.001576 2.715780 0
M  V30 5 C 2.338675 -0.629568 3.738202 0
M  V30 6 C 3.681622 -0.391319 3.949597 0
M  V30 7 C 4.381872 0.485173 3.143549 0
M  V30 8 C 3.754353 1.147724 2.102124 0
M  V30 9 C 4.376581 2.093303 1.182420 0
M  V30 10 N 4.680697 1.913882 -0.103588 0
M  V30 11 N 5.238422 3.002785 -0.613358 0
M  V30 12 C 5.296742 3.906299 0.362827 0
M  V30 13 N 4.760445 3.345428 1.486901 0
M  V30 14 C 4.674700 4.060583 2.715854 0
M  V30 15 C 3.415706 4.897079 2.894254 0
M  V30 16 C 3.784335 3.754060 3.825943 0
M  V30 17 C 2.391968 0.878764 1.920904 0
M  V30 18 C -1.695732 -1.217401 1.282782 0
M  V30 19 C -2.192950 -2.169097 0.408501 0
M  V30 20 C -3.529150 -2.310126 0.131647 0
M  V30 21 N -4.049787 -3.291636 -0.770781 0
M  V30 22 C -5.107574 -4.088272 -0.760483 0
M  V30 23 N -5.124144 -4.826227 -1.877282 0
M  V30 24 C -4.060463 -4.531648 -2.667533 0
M  V30 25 C -3.644251 -5.071653 -3.985402 0
M  V30 26 C -3.898976 -6.573989 -4.224101 0
M  V30 27 C -4.776730 -5.568009 -4.910870 0
M  V30 28 C -3.397674 -3.555807 -1.940046 0
M  V30 29 C -4.427281 -1.447089 0.767018 0
M  V30 30 C -3.905070 -0.510138 1.631536 0
M  V30 31 N -2.570502 -0.396927 1.884383 0
M  V30 32 H -0.421664 0.471267 2.879496 0
M  V30 33 H 1.738938 -1.307201 4.339550 0
M  V30 34 H 4.190110 -0.902769 4.762471 0
M  V30 35 H 5.437567 0.701915 3.273792 0
M  V30 36 H 5.709294 4.897351 0.227676 0
M  V30 37 H 5.597251 4.658574 2.968685 0
M  V30 38 H 3.475926 5.904646 3.333476 0
M  V30 39 H 2.610580 4.748756 2.159793 0
M  V30 40 H 4.109658 4.030735 4.857675 0
M  V30 41 H 3.038323 2.960440 3.833479 0
M  V30 42 H 1.865614 1.389970 1.101776 0
M  V30 43 H -1.561353 -2.874889 -0.123100 0
M  V30 44 H -5.783057 -4.058566 0.074951 0
M  V30 45 H -2.729652 -4.687728 -4.462738 0
M  V30 46 H -3.218233 -7.127257 -4.882799 0
M  V30 47 H -4.306496 -7.160723 -3.376655 0
M  V30 48 H -5.804630 -5.364540 -4.557248 0
M  V30 49 H -4.653138 -5.413952 -5.999095 0
M  V30 50 H -2.470023 -3.089127 -2.306534 0
M  V30 51 H -5.499310 -1.519358 0.579915 0
M  V30 52 H -4.607726 0.159534 2.123808 0
M  V30 END ATOM
M  V30 BEGIN BOND
M  V30 1 2 1 2
M  V30 2 1 2 3
M  V30 3 1 3 4
M  V30 4 2 4 5
M  V30 5 1 5 6
M  V30 6 2 6 7
M  V30 7 1 7 8
M  V30 8 1 8 9
M  V30 9 2 9 10
M  V30 10 1 10 11
M  V30 11 2 11 12
M  V30 12 1 12 13
M  V30 13 1 13 14
M  V30 14 1 14 15
M  V30 15 1 15 16
M  V30 16 2 8 17
M  V30 17 1 2 18
M  V30 18 2 18 19
M  V30 19 1 19 20
M  V30 20 1 20 21
M  V30 21 1 21 22
M  V30 22 2 22 23
M  V30 23 1 23 24
M  V30 24 1 24 25
M  V30 25 1 25 26
M  V30 26 1 26 27
M  V30 27 2 24 28
M  V30 28 2 20 29
M  V30 29 1 29 30
M  V30 30 2 30 31
M  V30 31 1 17 4
M  V30 32 1 31 18
M  V30 33 1 13 9
M  V30 34 1 16 14
M  V30 35 1 28 21
M  V30 36 1 27 25
M  V30 37 1 3 32
M  V30 38 1 5 33
M  V30 39 1 6 34
M  V30 40 1 7 35
M  V30 41 1 12 36
M  V30 42 1 14 37
M  V30 43 1 15 38
M  V30 44 1 15 39
M  V30 45 1 16 40
M  V30 46 1 16 41
M  V30 47 1 17 42
M  V30 48 1 19 43
M  V30 49 1 22 44
M  V30 50 1 25 45
M  V30 51 1 26 46
M  V30 52 1 26 47
M  V30 53 1 27 48
M  V30 54 1 27 49
M  V30 55 1 28 50
M  V30 56 1 29 51
M  V30 57 1 30 52
M  V30 END BOND
M  V30 END CTAB
M  END
>  <Dataset>  (660) 
ChEMBL_Kinases

>  <Ligand_Instance>  (660) 
nan

>  <PDB_ID>  (660) 
nan

>  <Standardized_SMILES>  (660) 
O=C(Nc1cccc(-c2nncn2C2CC2)c1)c1cc(-n2cnc(C3CC3)c2)ccn1

>  <Name>  (660) 
nan

>  <Pocket>  (660) 
nan

>  <ATP_Site>  (660) 
nan

>  <Peripheral>  (660) 
nan

>  <Num_H_Atoms_ProtBoundConf>  (660) 
nan

>  <Num_Resolved_Atoms>  (660) 
nan

>  <Num_Not_Resolved_Atoms>  (660) 
nan

$$$$
CHEMBL4783727
     RDKit          3D

  0  0  0  0  0  0  0  0  0  0999 V3000
M  V30 BEGIN CTAB
M  V30 COUNTS 50 54 0 0 0
M  V30 BEGIN ATOM
M  V30 1 C 6.458847 -4.441106 4.967914 0
M  V30 2 C 6.662535 -3.742928 3.671904 0
M  V30 3 C 7.938021 -3.639838 3.106313 0
M  V30 4 N 8.035995 -2.988173 1.924301 0
M  V30 5 C 6.957244 -2.464739 1.322679 0
M  V30 6 C 5.695844 -2.559785 1.869824 0
M  V30 7 C 4.483992 -2.014976 1.270548 0
M  V30 8 C 3.298296 -2.198477 1.951272 0
M  V30 9 C 2.102347 -1.696419 1.423649 0
M  V30 10 C 2.100368 -1.006177 0.204605 0
M  V30 11 C 0.802267 -0.522624 -0.260442 0
M  V30 12 C -0.034449 0.106745 0.640990 0
M  V30 13 C -1.259411 0.563605 0.204795 0
M  V30 14 C -1.600735 0.375352 -1.109312 0
M  V30 15 C -2.788404 0.785181 -1.663445 0
M  V30 16 C -4.021806 1.443459 -1.318200 0
M  V30 17 O -4.955997 1.712994 -2.152243 0
M  V30 18 N -4.558286 1.948522 -0.117489 0
M  V30 19 C -5.847350 2.582773 -0.001020 0
M  V30 20 C -7.006854 1.697801 -0.385501 0
M  V30 21 C -8.384094 2.250344 -0.306201 0
M  V30 22 C -7.954388 1.275288 0.749336 0
M  V30 23 N -2.667873 0.386212 -2.964872 0
M  V30 24 N -1.505182 -0.202303 -3.132582 0
M  V30 25 C -0.770294 -0.250807 -2.010169 0
M  V30 26 C 0.457780 -0.711850 -1.584082 0
M  V30 27 C 3.303361 -0.840739 -0.449211 0
M  V30 28 Cl 3.283133 0.021143 -1.963842 0
M  V30 29 C 4.484208 -1.335687 0.070299 0
M  V30 30 N 5.607547 -3.208512 3.043702 0
M  V30 31 H 5.742197 -5.278534 4.796812 0
M  V30 32 H 5.954316 -3.780368 5.714309 0
M  V30 33 H 7.373363 -4.884841 5.361796 0
M  V30 34 H 8.743823 -4.094748 3.668691 0
M  V30 35 H 7.067767 -1.952526 0.383706 0
M  V30 36 H 3.226641 -2.729450 2.911128 0
M  V30 37 H 1.191070 -1.857469 1.982274 0
M  V30 38 H 0.291322 0.228889 1.677640 0
M  V30 39 H -1.887248 1.049275 0.923547 0
M  V30 40 H -3.944355 1.828781 0.712919 0
M  V30 41 H -5.875217 3.546297 -0.593614 0
M  V30 42 H -5.989088 2.882330 1.050517 0
M  V30 43 H -6.791338 0.860719 -1.048723 0
M  V30 44 H -8.501515 3.300881 0.066481 0
M  V30 45 H -9.142089 1.937950 -1.060321 0
M  V30 46 H -8.469688 0.313125 0.696223 0
M  V30 47 H -7.692305 1.639791 1.759803 0
M  V30 48 H -1.175101 -0.597449 -4.045798 0
M  V30 49 H 1.074461 -1.195323 -2.320654 0
M  V30 50 H 5.387845 -1.183046 -0.470992 0
M  V30 END ATOM
M  V30 BEGIN BOND
M  V30 1 1 1 2
M  V30 2 2 2 3
M  V30 3 1 3 4
M  V30 4 2 4 5
M  V30 5 1 5 6
M  V30 6 1 6 7
M  V30 7 2 7 8
M  V30 8 1 8 9
M  V30 9 2 9 10
M  V30 10 1 10 11
M  V30 11 2 11 12
M  V30 12 1 12 13
M  V30 13 2 13 14
M  V30 14 1 14 15
M  V30 15 1 15 16
M  V30 16 2 16 17
M  V30 17 1 16 18
M  V30 18 1 18 19
M  V30 19 1 19 20
M  V30 20 1 20 21
M  V30 21 1 21 22
M  V30 22 2 15 23
M  V30 23 1 23 24
M  V30 24 1 24 25
M  V30 25 2 25 26
M  V30 26 1 10 27
M  V30 27 1 27 28
M  V30 28 2 27 29
M  V30 29 2 6 30
M  V30 30 1 30 2
M  V30 31 1 29 7
M  V30 32 1 26 11
M  V30 33 1 25 14
M  V30 34 1 22 20
M  V30 35 1 1 31
M  V30 36 1 1 32
M  V30 37 1 1 33
M  V30 38 1 3 34
M  V30 39 1 5 35
M  V30 40 1 8 36
M  V30 41 1 9 37
M  V30 42 1 12 38
M  V30 43 1 13 39
M  V30 44 1 18 40
M  V30 45 1 19 41
M  V30 46 1 19 42
M  V30 47 1 20 43
M  V30 48 1 21 44
M  V30 49 1 21 45
M  V30 50 1 22 46
M  V30 51 1 22 47
M  V30 52 1 24 48
M  V30 53 1 26 49
M  V30 54 1 29 50
M  V30 END BOND
M  V30 END CTAB
M  END
>  <Dataset>  (661) 
ChEMBL_Kinases

>  <Ligand_Instance>  (661) 
nan

>  <PDB_ID>  (661) 
nan

>  <Standardized_SMILES>  (661) 
Cc1cncc(-c2ccc(-c3ccc4c(C(=O)NCC5CC5)n[nH]c4c3)c(Cl)c2)n1

>  <Name>  (661) 
nan

>  <Pocket>  (661) 
nan

>  <ATP_Site>  (661) 
nan

>  <Peripheral>  (661) 
nan

>  <Num_H_Atoms_ProtBoundConf>  (661) 
nan

>  <Num_Resolved_Atoms>  (661) 
nan

>  <Num_Not_Resolved_Atoms>  (661) 
nan

$$$$
CHEMBL4206910
     RDKit          3D

  0  0  0  0  0  0  0  0  0  0999 V3000
M  V30 BEGIN CTAB
M  V30 COUNTS 44 47 0 0 0
M  V30 BEGIN ATOM
M  V30 1 C 1.632444 0.309609 5.695596 0
M  V30 2 C 2.291603 0.010031 4.382914 0
M  V30 3 O 2.607324 -1.227974 4.445348 0
M  V30 4 N 2.582615 0.807375 3.217819 0
M  V30 5 C 3.231602 -0.036111 2.267253 0
M  V30 6 C 2.416039 -0.714943 1.383693 0
M  V30 7 C 3.013277 -1.541602 0.454253 0
M  V30 8 N 2.234057 -2.274240 -0.499985 0
M  V30 9 C 0.821756 -2.191184 -0.617829 0
M  V30 10 N 0.270630 -0.971943 -0.575947 0
M  V30 11 C -1.038427 -0.697447 -0.655153 0
M  V30 12 C -1.459248 0.695749 -0.602857 0
M  V30 13 C -0.515824 1.695310 -0.501541 0
M  V30 14 C -0.787412 3.044739 -0.452253 0
M  V30 15 C -2.106504 3.438416 -0.507927 0
M  V30 16 C -3.051187 2.436956 -0.608993 0
M  V30 17 C -4.455188 2.918915 -0.663038 0
M  V30 18 F -5.345486 1.901436 -0.950968 0
M  V30 19 F -4.809408 3.436737 0.591395 0
M  V30 20 F -4.594761 3.991131 -1.553123 0
M  V30 21 N -2.726249 1.135969 -0.653157 0
M  V30 22 N -1.874239 -1.736283 -0.788031 0
M  V30 23 N -1.414478 -2.974812 -0.837945 0
M  V30 24 C -1.956637 -4.195302 -0.958742 0
M  V30 25 C -1.036100 -5.212028 -0.957731 0
M  V30 26 C 0.197571 -4.589312 -0.825705 0
M  V30 27 C -0.074581 -3.229526 -0.755661 0
M  V30 28 C 4.375974 -1.664006 0.433520 0
M  V30 29 F 5.067886 -2.443710 -0.429853 0
M  V30 30 C 5.193565 -0.978677 1.325082 0
M  V30 31 N 4.600298 -0.160808 2.245008 0
M  V30 32 H 0.703591 -0.301423 5.725943 0
M  V30 33 H 2.295295 0.059461 6.545406 0
M  V30 34 H 1.332003 1.365014 5.671455 0
M  V30 35 H 2.234096 1.771917 3.406849 0
M  V30 36 H 1.359777 -0.584130 1.447845 0
M  V30 37 H 2.689459 -2.918455 -1.171781 0
M  V30 38 H 0.539854 1.404960 -0.456983 0
M  V30 39 H 0.047202 3.757737 -0.372514 0
M  V30 40 H -2.269052 4.504557 -0.467276 0
M  V30 41 H -3.024085 -4.377906 -1.048637 0
M  V30 42 H -1.233236 -6.269743 -1.041518 0
M  V30 43 H 1.157914 -5.048090 -0.785737 0
M  V30 44 H 6.274153 -1.017185 1.379092 0
M  V30 END ATOM
M  V30 BEGIN BOND
M  V30 1 1 1 2
M  V30 2 2 2 3
M  V30 3 1 2 4
M  V30 4 1 4 5
M  V30 5 2 5 6
M  V30 6 1 6 7
M  V30 7 1 7 8
M  V30 8 1 8 9
M  V30 9 2 9 10
M  V30 10 1 10 11
M  V30 11 1 11 12
M  V30 12 2 12 13
M  V30 13 1 13 14
M  V30 14 2 14 15
M  V30 15 1 15 16
M  V30 16 1 16 17
M  V30 17 1 17 18
M  V30 18 1 17 19
M  V30 19 1 17 20
M  V30 20 2 16 21
M  V30 21 2 11 22
M  V30 22 1 22 23
M  V30 23 1 23 24
M  V30 24 2 24 25
M  V30 25 1 25 26
M  V30 26 2 26 27
M  V30 27 2 7 28
M  V30 28 1 28 29
M  V30 29 1 28 30
M  V30 30 2 30 31
M  V30 31 1 31 5
M  V30 32 1 27 9
M  V30 33 1 21 12
M  V30 34 1 27 23
M  V30 35 1 1 32
M  V30 36 1 1 33
M  V30 37 1 1 34
M  V30 38 1 4 35
M  V30 39 1 6 36
M  V30 40 1 8 37
M  V30 41 1 13 38
M  V30 42 1 14 39
M  V30 43 1 15 40
M  V30 44 1 24 41
M  V30 45 1 25 42
M  V30 46 1 26 43
M  V30 47 1 30 44
M  V30 END BOND
M  V30 END CTAB
M  END
>  <Dataset>  (662) 
ChEMBL_Kinases

>  <Ligand_Instance>  (662) 
nan

>  <PDB_ID>  (662) 
nan

>  <Standardized_SMILES>  (662) 
CC(=O)Nc1cc(Nc2nc(-c3cccc(C(F)(F)F)n3)nn3cccc23)c(F)cn1

>  <Name>  (662) 
nan

>  <Pocket>  (662) 
nan

>  <ATP_Site>  (662) 
nan

>  <Peripheral>  (662) 
nan

>  <Num_H_Atoms_ProtBoundConf>  (662) 
nan

>  <Num_Resolved_Atoms>  (662) 
nan

>  <Num_Not_Resolved_Atoms>  (662) 
nan

$$$$
CHEMBL4783731
     RDKit          3D

  0  0  0  0  0  0  0  0  0  0999 V3000
M  V30 BEGIN CTAB
M  V30 COUNTS 58 63 0 0 0
M  V30 BEGIN ATOM
M  V30 1 C 3.489121 -2.350974 1.698473 0
M  V30 2 O 3.066164 -1.012363 1.823462 0
M  V30 3 C 2.699713 -0.439886 3.033665 0
M  V30 4 C 2.729314 -1.165482 4.210469 0
M  V30 5 C 2.358186 -0.562128 5.392008 0
M  V30 6 C 1.958384 0.762739 5.398594 0
M  V30 7 C 1.920944 1.510538 4.229040 0
M  V30 8 F 1.521045 2.785404 4.330177 0
M  V30 9 C 2.297027 0.878978 3.069554 0
M  V30 10 C 2.234585 1.727270 1.867252 0
M  V30 11 C 1.093684 1.814921 1.092542 0
M  V30 12 C 1.062993 2.623706 -0.037080 0
M  V30 13 C 2.184030 3.352191 -0.395909 0
M  V30 14 C 3.316442 3.244074 0.402061 0
M  V30 15 N 3.311861 2.442232 1.501928 0
M  V30 16 C 1.856671 4.053538 -1.547933 0
M  V30 17 N 0.590344 3.742297 -1.846098 0
M  V30 18 N 0.098930 2.882898 -0.946239 0
M  V30 19 C -1.208656 2.305928 -0.902758 0
M  V30 20 C -2.428634 2.928863 -1.072657 0
M  V30 21 C -3.584168 2.179716 -0.990959 0
M  V30 22 C -3.568449 0.822751 -0.744378 0
M  V30 23 C -2.328200 0.238911 -0.580612 0
M  V30 24 N -2.246192 -1.160938 -0.323185 0
M  V30 25 C -3.148854 -2.289970 -0.162080 0
M  V30 26 C -2.055228 -3.147180 -0.765202 0
M  V30 27 C -1.830595 -4.467601 -0.090677 0
M  V30 28 C -0.874742 -5.295724 -0.922899 0
M  V30 29 C -1.604506 -5.526282 -2.229935 0
M  V30 30 N -1.557609 -4.277024 -2.931137 0
M  V30 31 C -2.082955 -3.156263 -2.230486 0
M  V30 32 C -1.169631 -2.110100 -0.099526 0
M  V30 33 N -1.222042 0.961703 -0.659842 0
M  V30 34 H 3.277766 -2.740666 0.673513 0
M  V30 35 H 4.562016 -2.491240 1.915364 0
M  V30 36 H 2.866208 -3.001884 2.376471 0
M  V30 37 H 3.032270 -2.187690 4.239661 0
M  V30 38 H 2.380624 -1.122835 6.303929 0
M  V30 39 H 1.669825 1.212771 6.353161 0
M  V30 40 H 0.219748 1.232216 1.392603 0
M  V30 41 H 4.206346 3.821595 0.118231 0
M  V30 42 H 2.531164 4.726805 -2.086879 0
M  V30 43 H -2.352937 3.987892 -1.261002 0
M  V30 44 H -4.491759 2.736696 -1.134288 0
M  V30 45 H -4.501076 0.273285 -0.688421 0
M  V30 46 H -3.397492 -2.497078 0.901002 0
M  V30 47 H -4.045756 -2.204635 -0.831962 0
M  V30 48 H -2.777624 -5.035967 -0.029510 0
M  V30 49 H -1.386954 -4.390645 0.903737 0
M  V30 50 H -0.598755 -6.243144 -0.424368 0
M  V30 51 H 0.030569 -4.678282 -1.149424 0
M  V30 52 H -1.080433 -6.267085 -2.870490 0
M  V30 53 H -2.668881 -5.778478 -2.042999 0
M  V30 54 H -0.633116 -4.099832 -3.407683 0
M  V30 55 H -1.599345 -2.236243 -2.627319 0
M  V30 56 H -3.154755 -3.068125 -2.581583 0
M  V30 57 H -0.959439 -2.329029 0.963989 0
M  V30 58 H -0.262588 -1.952994 -0.688105 0
M  V30 END ATOM
M  V30 BEGIN BOND
M  V30 1 1 1 2
M  V30 2 1 2 3
M  V30 3 2 3 4
M  V30 4 1 4 5
M  V30 5 2 5 6
M  V30 6 1 6 7
M  V30 7 1 7 8
M  V30 8 2 7 9
M  V30 9 1 9 10
M  V30 10 2 10 11
M  V30 11 1 11 12
M  V30 12 2 12 13
M  V30 13 1 13 14
M  V30 14 2 14 15
M  V30 15 1 13 16
M  V30 16 2 16 17
M  V30 17 1 17 18
M  V30 18 1 18 19
M  V30 19 2 19 20
M  V30 20 1 20 21
M  V30 21 2 21 22
M  V30 22 1 22 23
M  V30 23 1 23 24
M  V30 24 1 24 25
M  V30 25 1 25 26
M  V30 26 1 26 27
M  V30 27 1 27 28
M  V30 28 1 28 29
M  V30 29 1 29 30
M  V30 30 1 30 31
M  V30 31 1 26 32
M  V30 32 2 23 33
M  V30 33 1 9 3
M  V30 34 1 15 10
M  V30 35 1 33 19
M  V30 36 1 18 12
M  V30 37 1 32 24
M  V30 38 1 31 26
M  V30 39 1 1 34
M  V30 40 1 1 35
M  V30 41 1 1 36
M  V30 42 1 4 37
M  V30 43 1 5 38
M  V30 44 1 6 39
M  V30 45 1 11 40
M  V30 46 1 14 41
M  V30 47 1 16 42
M  V30 48 1 20 43
M  V30 49 1 21 44
M  V30 50 1 22 45
M  V30 51 1 25 46
M  V30 52 1 25 47
M  V30 53 1 27 48
M  V30 54 1 27 49
M  V30 55 1 28 50
M  V30 56 1 28 51
M  V30 57 1 29 52
M  V30 58 1 29 53
M  V30 59 1 30 54
M  V30 60 1 31 55
M  V30 61 1 31 56
M  V30 62 1 32 57
M  V30 63 1 32 58
M  V30 END BOND
M  V30 END CTAB
M  END
>  <Dataset>  (663) 
ChEMBL_Kinases

>  <Ligand_Instance>  (663) 
nan

>  <PDB_ID>  (663) 
nan

>  <Standardized_SMILES>  (663) 
COc1cccc(F)c1-c1cc2c(cn1)cnn2-c1cccc(N2CC3(CCCNC3)C2)n1

>  <Name>  (663) 
nan

>  <Pocket>  (663) 
nan

>  <ATP_Site>  (663) 
nan

>  <Peripheral>  (663) 
nan

>  <Num_H_Atoms_ProtBoundConf>  (663) 
nan

>  <Num_Resolved_Atoms>  (663) 
nan

>  <Num_Not_Resolved_Atoms>  (663) 
nan

$$$$
CHEMBL4783750
     RDKit          3D

  0  0  0  0  0  0  0  0  0  0999 V3000
M  V30 BEGIN CTAB
M  V30 COUNTS 75 79 0 0 0
M  V30 BEGIN ATOM
M  V30 1 C 4.951187 -2.932322 2.394714 0
M  V30 2 O 4.200552 -1.849091 2.919723 0
M  V30 3 C 2.884913 -1.913829 3.268493 0
M  V30 4 O 2.493769 -3.084830 3.035917 0
M  V30 5 C 2.007293 -0.928071 3.804449 0
M  V30 6 S 0.294810 -1.352954 4.170239 0
M  V30 7 C -0.168058 0.258770 4.796485 0
M  V30 8 C 0.990525 0.996403 4.685413 0
M  V30 9 C 2.090741 0.359280 4.171795 0
M  V30 10 N 3.338644 1.070531 4.041088 0
M  V30 11 C 3.952758 1.313061 2.753964 0
M  V30 12 N 3.113843 1.732770 1.778041 0
M  V30 13 C 3.488006 2.004004 0.515604 0
M  V30 14 N 2.450753 2.452538 -0.341029 0
M  V30 15 C 1.471255 1.771903 -1.104719 0
M  V30 16 C 1.495623 0.380877 -1.013842 0
M  V30 17 C 0.542747 -0.321728 -1.723043 0
M  V30 18 C -0.384381 0.390544 -2.484039 0
M  V30 19 N -1.302377 -0.456059 -3.135879 0
M  V30 20 C -2.665133 -0.035549 -3.516608 0
M  V30 21 C -3.631296 -0.585766 -2.437329 0
M  V30 22 C -3.018123 -1.903434 -2.003473 0
M  V30 23 N -3.856465 -2.689399 -1.144516 0
M  V30 24 C -3.275453 -4.011609 -0.921137 0
M  V30 25 C -4.000135 -4.717968 0.198179 0
M  V30 26 N -3.726398 -4.107944 1.473899 0
M  V30 27 C -4.947220 -3.946500 2.236674 0
M  V30 28 C -3.180481 -2.783676 1.239058 0
M  V30 29 C -3.939160 -2.059616 0.178944 0
M  V30 30 C -2.441208 -2.605013 -3.182006 0
M  V30 31 C -1.158058 -1.832103 -3.552546 0
M  V30 32 C -0.387255 1.758368 -2.557870 0
M  V30 33 C 0.549847 2.496627 -1.863391 0
M  V30 34 O 0.588248 3.875559 -1.907775 0
M  V30 35 C -0.376636 4.543307 -2.699315 0
M  V30 36 N 4.789447 1.845610 0.198885 0
M  V30 37 C 5.687958 1.429714 1.114631 0
M  V30 38 C 5.271701 1.161393 2.399095 0
M  V30 39 N 6.129463 0.715868 3.441016 0 CHG=1 VAL=4
M  V30 40 O 7.105753 0.087146 3.010341 0
M  V30 41 O 6.088569 0.838991 4.792235 0 CHG=-1 VAL=1
M  V30 42 H 5.384207 -3.568161 3.198027 0
M  V30 43 H 4.250719 -3.554756 1.804857 0
M  V30 44 H 5.817958 -2.549074 1.827428 0
M  V30 45 H -1.164742 0.468581 5.147316 0
M  V30 46 H 0.899375 2.016977 5.022114 0
M  V30 47 H 3.810505 1.419308 4.897394 0
M  V30 48 H 2.483035 3.488754 -0.356227 0
M  V30 49 H 2.233525 -0.121511 -0.412260 0
M  V30 50 H 0.589016 -1.396622 -1.629267 0
M  V30 51 H -2.936937 -0.375608 -4.521166 0
M  V30 52 H -2.707210 1.061189 -3.524855 0
M  V30 53 H -3.580788 0.109535 -1.576236 0
M  V30 54 H -4.654563 -0.671406 -2.816859 0
M  V30 55 H -2.126138 -1.589951 -1.371042 0
M  V30 56 H -3.424333 -4.631680 -1.834665 0
M  V30 57 H -2.233949 -3.882758 -0.643508 0
M  V30 58 H -5.062731 -4.757016 -0.046433 0
M  V30 59 H -3.561737 -5.759708 0.212821 0
M  V30 60 H -5.794569 -4.081709 1.542559 0
M  V30 61 H -4.916195 -4.676679 3.074492 0
M  V30 62 H -5.026991 -2.939031 2.689542 0
M  V30 63 H -3.352529 -2.200571 2.191063 0
M  V30 64 H -2.105158 -2.798364 1.062597 0
M  V30 65 H -4.976057 -1.825266 0.475861 0
M  V30 66 H -3.443192 -1.051615 0.075217 0
M  V30 67 H -3.176133 -2.565142 -4.024920 0
M  V30 68 H -2.137775 -3.635583 -3.010901 0
M  V30 69 H -1.123202 -1.812937 -4.665761 0
M  V30 70 H -0.253251 -2.332455 -3.203541 0
M  V30 71 H -1.124857 2.266497 -3.163032 0
M  V30 72 H -0.323470 4.067353 -3.711902 0
M  V30 73 H 0.033044 5.589085 -2.832411 0
M  V30 74 H -1.388042 4.541535 -2.273099 0
M  V30 75 H 6.728714 1.301869 0.867279 0
M  V30 END ATOM
M  V30 BEGIN BOND
M  V30 1 1 1 2
M  V30 2 1 2 3
M  V30 3 2 3 4
M  V30 4 1 3 5
M  V30 5 1 5 6
M  V30 6 1 6 7
M  V30 7 2 7 8
M  V30 8 1 8 9
M  V30 9 1 9 10
M  V30 10 1 10 11
M  V30 11 2 11 12
M  V30 12 1 12 13
M  V30 13 1 13 14
M  V30 14 1 14 15
M  V30 15 2 15 16
M  V30 16 1 16 17
M  V30 17 2 17 18
M  V30 18 1 18 19
M  V30 19 1 19 20
M  V30 20 1 20 21
M  V30 21 1 21 22
M  V30 22 1 22 23
M  V30 23 1 23 24
M  V30 24 1 24 25
M  V30 25 1 25 26
M  V30 26 1 26 27
M  V30 27 1 26 28
M  V30 28 1 28 29
M  V30 29 1 22 30
M  V30 30 1 30 31
M  V30 31 1 18 32
M  V30 32 2 32 33
M  V30 33 1 33 34
M  V30 34 1 34 35
M  V30 35 2 13 36
M  V30 36 1 36 37
M  V30 37 2 37 38
M  V30 38 1 38 39
M  V30 39 2 39 40
M  V30 40 1 39 41
M  V30 41 2 9 5
M  V30 42 1 38 11
M  V30 43 1 33 15
M  V30 44 1 31 19
M  V30 45 1 29 23
M  V30 46 1 1 42
M  V30 47 1 1 43
M  V30 48 1 1 44
M  V30 49 1 7 45
M  V30 50 1 8 46
M  V30 51 1 10 47
M  V30 52 1 14 48
M  V30 53 1 16 49
M  V30 54 1 17 50
M  V30 55 1 20 51
M  V30 56 1 20 52
M  V30 57 1 21 53
M  V30 58 1 21 54
M  V30 59 1 22 55
M  V30 60 1 24 56
M  V30 61 1 24 57
M  V30 62 1 25 58
M  V30 63 1 25 59
M  V30 64 1 27 60
M  V30 65 1 27 61
M  V30 66 1 27 62
M  V30 67 1 28 63
M  V30 68 1 28 64
M  V30 69 1 29 65
M  V30 70 1 29 66
M  V30 71 1 30 67
M  V30 72 1 30 68
M  V30 73 1 31 69
M  V30 74 1 31 70
M  V30 75 1 32 71
M  V30 76 1 35 72
M  V30 77 1 35 73
M  V30 78 1 35 74
M  V30 79 1 37 75
M  V30 END BOND
M  V30 END CTAB
M  END
>  <Dataset>  (664) 
ChEMBL_Kinases

>  <Ligand_Instance>  (664) 
nan

>  <PDB_ID>  (664) 
nan

>  <Standardized_SMILES>  (664) 
COC(=O)c1sccc1Nc1nc(Nc2ccc(N3CCC(N4CCN(C)CC4)CC3)cc2OC)ncc1[N+](=O)[O-]

>  <Name>  (664) 
nan

>  <Pocket>  (664) 
nan

>  <ATP_Site>  (664) 
nan

>  <Peripheral>  (664) 
nan

>  <Num_H_Atoms_ProtBoundConf>  (664) 
nan

>  <Num_Resolved_Atoms>  (664) 
nan

>  <Num_Not_Resolved_Atoms>  (664) 
nan

$$$$
CHEMBL4783769
     RDKit          3D

  0  0  0  0  0  0  0  0  0  0999 V3000
M  V30 BEGIN CTAB
M  V30 COUNTS 40 43 0 0 0
M  V30 BEGIN ATOM
M  V30 1 N 0.671298 -4.679019 1.789157 0
M  V30 2 C 1.007277 -3.322292 1.545165 0
M  V30 3 N 2.280823 -3.123063 1.169126 0
M  V30 4 C 2.715488 -1.853709 0.907371 0
M  V30 5 N 4.008258 -1.436737 0.503236 0
M  V30 6 C 4.524212 -0.138650 0.209987 0
M  V30 7 C 3.854218 0.563144 -0.909668 0
M  V30 8 C 2.798279 1.433630 -0.862695 0
M  V30 9 C 2.270588 2.009600 -1.996241 0
M  V30 10 C 2.788849 1.729350 -3.223399 0
M  V30 11 C 3.864373 0.854090 -3.361925 0
M  V30 12 C 4.358957 0.300755 -2.190077 0
M  V30 13 N 1.796113 -0.885768 1.055398 0
M  V30 14 C 0.520402 -1.090478 1.432650 0
M  V30 15 N -0.545143 -0.292101 1.640044 0
M  V30 16 C -1.610825 -1.025456 2.017569 0
M  V30 17 C -2.937572 -0.496052 2.327368 0
M  V30 18 C -3.730558 -1.133285 3.250491 0
M  V30 19 C -4.976917 -0.562298 3.484663 0
M  V30 20 C -5.422892 0.592781 2.832825 0
M  V30 21 O -6.691046 1.046832 3.169261 0
M  V30 22 C -4.595828 1.197883 1.916084 0
M  V30 23 C -3.332165 0.659915 1.646966 0
M  V30 24 N -1.175654 -2.310015 2.039300 0
M  V30 25 N 0.099177 -2.341885 1.688653 0
M  V30 26 H 0.667844 -5.484766 2.431574 0
M  V30 27 H 0.214828 -5.027172 0.912202 0
M  V30 28 H 4.623661 -2.278080 0.431943 0
M  V30 29 H 4.415818 0.556473 1.095436 0
M  V30 30 H 5.607003 -0.239491 -0.041021 0
M  V30 31 H 2.409733 1.644156 0.104733 0
M  V30 32 H 1.423540 2.693515 -1.842844 0
M  V30 33 H 2.370713 2.184021 -4.107621 0
M  V30 34 H 4.311184 0.599120 -4.309605 0
M  V30 35 H 5.206204 -0.387023 -2.312909 0
M  V30 36 H -3.430271 -2.021643 3.774947 0
M  V30 37 H -5.613128 -1.060107 4.214847 0
M  V30 38 H -6.891787 2.018825 2.941902 0
M  V30 39 H -4.948381 2.095798 1.412605 0
M  V30 40 H -2.703192 1.160758 0.918328 0
M  V30 END ATOM
M  V30 BEGIN BOND
M  V30 1 1 1 2
M  V30 2 2 2 3
M  V30 3 1 3 4
M  V30 4 1 4 5
M  V30 5 1 5 6
M  V30 6 1 6 7
M  V30 7 2 7 8
M  V30 8 1 8 9
M  V30 9 2 9 10
M  V30 10 1 10 11
M  V30 11 2 11 12
M  V30 12 2 4 13
M  V30 13 1 13 14
M  V30 14 2 14 15
M  V30 15 1 15 16
M  V30 16 1 16 17
M  V30 17 2 17 18
M  V30 18 1 18 19
M  V30 19 2 19 20
M  V30 20 1 20 21
M  V30 21 1 20 22
M  V30 22 2 22 23
M  V30 23 2 16 24
M  V30 24 1 24 25
M  V30 25 1 25 2
M  V30 26 1 12 7
M  V30 27 1 25 14
M  V30 28 1 23 17
M  V30 29 1 1 26
M  V30 30 1 1 27
M  V30 31 1 5 28
M  V30 32 1 6 29
M  V30 33 1 6 30
M  V30 34 1 8 31
M  V30 35 1 9 32
M  V30 36 1 10 33
M  V30 37 1 11 34
M  V30 38 1 12 35
M  V30 39 1 18 36
M  V30 40 1 19 37
M  V30 41 1 21 38
M  V30 42 1 22 39
M  V30 43 1 23 40
M  V30 END BOND
M  V30 END CTAB
M  END
>  <Dataset>  (665) 
ChEMBL_Kinases

>  <Ligand_Instance>  (665) 
nan

>  <PDB_ID>  (665) 
nan

>  <Standardized_SMILES>  (665) 
Nc1nc(NCc2ccccc2)nc2nc(-c3ccc(O)cc3)nn12

>  <Name>  (665) 
nan

>  <Pocket>  (665) 
nan

>  <ATP_Site>  (665) 
nan

>  <Peripheral>  (665) 
nan

>  <Num_H_Atoms_ProtBoundConf>  (665) 
nan

>  <Num_Resolved_Atoms>  (665) 
nan

>  <Num_Not_Resolved_Atoms>  (665) 
nan

$$$$
CHEMBL4783829
     RDKit          3D

  0  0  0  0  0  0  0  0  0  0999 V3000
M  V30 BEGIN CTAB
M  V30 COUNTS 41 44 0 0 0
M  V30 BEGIN ATOM
M  V30 1 N 1.836128 -4.567369 1.567138 0
M  V30 2 C 1.414573 -3.429136 0.827304 0
M  V30 3 N 1.936035 -3.340301 -0.407912 0
M  V30 4 C 1.596300 -2.283165 -1.205061 0
M  V30 5 N 2.027322 -2.006915 -2.520807 0
M  V30 6 C 1.715006 -0.926777 -3.397492 0
M  V30 7 C 2.077169 0.409823 -2.934005 0
M  V30 8 C 3.381971 0.779293 -3.287514 0
M  V30 9 C 3.933661 1.999362 -2.957258 0
M  V30 10 C 3.146910 2.892311 -2.240987 0
M  V30 11 C 1.859113 2.564377 -1.875613 0
M  V30 12 C 1.350929 1.331555 -2.229049 0
M  V30 13 N 0.742085 -1.397235 -0.663501 0
M  V30 14 C 0.222720 -1.491228 0.574659 0
M  V30 15 N -0.632971 -0.723871 1.289708 0
M  V30 16 C -0.823173 -1.293306 2.511775 0
M  V30 17 C -1.671520 -0.790942 3.591872 0
M  V30 18 C -2.870229 -1.454548 3.751778 0
M  V30 19 C -3.755247 -1.066835 4.742924 0
M  V30 20 C -3.452574 -0.016450 5.580774 0
M  V30 21 O -4.351833 0.358595 6.569067 0
M  V30 22 C -2.264532 0.630416 5.411512 0
M  V30 23 O -1.908473 1.701116 6.233046 0
M  V30 24 C -1.370666 0.273981 4.445429 0
M  V30 25 N -0.059836 -2.426149 2.517962 0
M  V30 26 N 0.560631 -2.533630 1.354522 0
M  V30 27 H 2.703135 -4.709966 2.134315 0
M  V30 28 H 1.527803 -5.540179 1.809792 0
M  V30 29 H 2.680789 -2.760870 -2.838281 0
M  V30 30 H 0.589684 -0.924126 -3.529891 0
M  V30 31 H 2.122310 -1.133114 -4.397927 0
M  V30 32 H 4.073049 0.134605 -3.853697 0
M  V30 33 H 4.932993 2.286210 -3.226276 0
M  V30 34 H 3.496031 3.872408 -1.938124 0
M  V30 35 H 1.245245 3.250123 -1.321685 0
M  V30 36 H 0.364415 1.022150 -1.979218 0
M  V30 37 H -3.205110 -2.287634 3.152140 0
M  V30 38 H -4.715861 -1.565674 4.903857 0
M  V30 39 H -5.169564 0.877647 6.221876 0
M  V30 40 H -1.321268 2.456980 5.923448 0
M  V30 41 H -0.410316 0.732420 4.244483 0
M  V30 END ATOM
M  V30 BEGIN BOND
M  V30 1 1 1 2
M  V30 2 2 2 3
M  V30 3 1 3 4
M  V30 4 1 4 5
M  V30 5 1 5 6
M  V30 6 1 6 7
M  V30 7 2 7 8
M  V30 8 1 8 9
M  V30 9 2 9 10
M  V30 10 1 10 11
M  V30 11 2 11 12
M  V30 12 2 4 13
M  V30 13 1 13 14
M  V30 14 2 14 15
M  V30 15 1 15 16
M  V30 16 1 16 17
M  V30 17 2 17 18
M  V30 18 1 18 19
M  V30 19 2 19 20
M  V30 20 1 20 21
M  V30 21 1 20 22
M  V30 22 1 22 23
M  V30 23 2 22 24
M  V30 24 2 16 25
M  V30 25 1 25 26
M  V30 26 1 26 2
M  V30 27 1 12 7
M  V30 28 1 26 14
M  V30 29 1 24 17
M  V30 30 1 1 27
M  V30 31 1 1 28
M  V30 32 1 5 29
M  V30 33 1 6 30
M  V30 34 1 6 31
M  V30 35 1 8 32
M  V30 36 1 9 33
M  V30 37 1 10 34
M  V30 38 1 11 35
M  V30 39 1 12 36
M  V30 40 1 18 37
M  V30 41 1 19 38
M  V30 42 1 21 39
M  V30 43 1 23 40
M  V30 44 1 24 41
M  V30 END BOND
M  V30 END CTAB
M  END
>  <Dataset>  (666) 
ChEMBL_Kinases

>  <Ligand_Instance>  (666) 
nan

>  <PDB_ID>  (666) 
nan

>  <Standardized_SMILES>  (666) 
Nc1nc(NCc2ccccc2)nc2nc(-c3ccc(O)c(O)c3)nn12

>  <Name>  (666) 
nan

>  <Pocket>  (666) 
nan

>  <ATP_Site>  (666) 
nan

>  <Peripheral>  (666) 
nan

>  <Num_H_Atoms_ProtBoundConf>  (666) 
nan

>  <Num_Resolved_Atoms>  (666) 
nan

>  <Num_Not_Resolved_Atoms>  (666) 
nan

$$$$
CHEMBL4783882
     RDKit          3D

  0  0  0  0  0  0  0  0  0  0999 V3000
M  V30 BEGIN CTAB
M  V30 COUNTS 47 50 0 0 0
M  V30 BEGIN ATOM
M  V30 1 C 1.173413 -3.641640 5.886357 0
M  V30 2 O 1.239651 -2.658755 4.891086 0
M  V30 3 C 2.360392 -2.521283 4.087238 0
M  V30 4 C 3.477168 -3.313382 4.189521 0
M  V30 5 C 4.607153 -3.211267 3.414569 0
M  V30 6 C 4.589167 -2.202549 2.444620 0
M  V30 7 C 3.488231 -1.383790 2.306965 0
M  V30 8 C 3.444542 -0.304981 1.284683 0 CFG=1
M  V30 9 C 4.558662 -0.482783 0.261537 0
M  V30 10 N 2.157638 -0.364844 0.639277 0
M  V30 11 C 1.213441 0.682198 0.639281 0
M  V30 12 O 1.629388 1.703896 1.283206 0
M  V30 13 C -0.092660 0.623398 -0.015117 0
M  V30 14 C -0.534225 -0.492672 -0.714431 0
M  V30 15 C -1.786473 -0.458534 -1.302629 0
M  V30 16 C -2.582251 0.658103 -1.198978 0
M  V30 17 C -2.113719 1.747828 -0.498156 0
M  V30 18 C -0.876771 1.779149 0.111230 0
M  V30 19 C -2.880841 2.899438 -0.365549 0
M  V30 20 O -2.552714 3.948444 0.249947 0
M  V30 21 N -4.094580 2.911158 -0.945108 0
M  V30 22 C -4.547539 1.844581 -1.628335 0
M  V30 23 C -5.812690 1.868217 -2.227348 0
M  V30 24 N -6.268636 0.784768 -2.919290 0
M  V30 25 C -5.549136 -0.343120 -3.064494 0
M  V30 26 C -4.283275 -0.402736 -2.480825 0
M  V30 27 C -3.818001 0.686051 -1.782058 0
M  V30 28 C 2.374735 -1.535210 3.119984 0
M  V30 29 H 0.361420 -3.475362 6.600488 0
M  V30 30 H 0.999890 -4.619907 5.376830 0
M  V30 31 H 2.164824 -3.667510 6.403881 0
M  V30 32 H 3.509612 -4.097594 4.932266 0
M  V30 33 H 5.459811 -3.862598 3.538051 0
M  V30 34 H 5.441147 -2.062432 1.798863 0
M  V30 35 H 3.626160 0.660704 1.790793 0
M  V30 36 H 4.377581 0.278364 -0.524468 0
M  V30 37 H 5.501526 -0.178473 0.754366 0
M  V30 38 H 4.577447 -1.505612 -0.152892 0
M  V30 39 H 1.934181 -1.255886 0.144990 0
M  V30 40 H 0.128513 -1.370573 -0.778059 0
M  V30 41 H -2.027573 -1.361156 -1.812325 0
M  V30 42 H -0.525928 2.624840 0.648942 0
M  V30 43 H -4.747981 3.731656 -0.902208 0
M  V30 44 H -6.436875 2.751691 -2.142999 0
M  V30 45 H -5.990387 -1.140913 -3.624841 0
M  V30 46 H -3.769579 -1.313625 -2.630661 0
M  V30 47 H 1.486225 -0.899565 3.033396 0
M  V30 END ATOM
M  V30 BEGIN BOND
M  V30 1 1 1 2
M  V30 2 1 2 3
M  V30 3 2 3 4
M  V30 4 1 4 5
M  V30 5 2 5 6
M  V30 6 1 6 7
M  V30 7 1 7 8
M  V30 8 1 8 9
M  V30 9 1 8 10
M  V30 10 1 10 11
M  V30 11 2 11 12
M  V30 12 1 11 13
M  V30 13 2 13 14
M  V30 14 1 14 15
M  V30 15 2 15 16
M  V30 16 1 16 17
M  V30 17 2 17 18
M  V30 18 1 17 19
M  V30 19 2 19 20
M  V30 20 1 19 21
M  V30 21 1 21 22
M  V30 22 2 22 23
M  V30 23 1 23 24
M  V30 24 2 24 25
M  V30 25 1 25 26
M  V30 26 2 26 27
M  V30 27 2 7 28
M  V30 28 1 28 3
M  V30 29 1 18 13
M  V30 30 1 27 22
M  V30 31 1 27 16
M  V30 32 1 1 29
M  V30 33 1 1 30
M  V30 34 1 1 31
M  V30 35 1 4 32
M  V30 36 1 5 33
M  V30 37 1 6 34
M  V30 38 1 8 35 CFG=1
M  V30 39 1 9 36
M  V30 40 1 9 37
M  V30 41 1 9 38
M  V30 42 1 10 39
M  V30 43 1 14 40
M  V30 44 1 15 41
M  V30 45 1 18 42
M  V30 46 1 21 43
M  V30 47 1 23 44
M  V30 48 1 25 45
M  V30 49 1 26 46
M  V30 50 1 28 47
M  V30 END BOND
M  V30 END CTAB
M  END
>  <Dataset>  (667) 
ChEMBL_Kinases

>  <Ligand_Instance>  (667) 
nan

>  <PDB_ID>  (667) 
nan

>  <Standardized_SMILES>  (667) 
COc1cccc([C@@H](C)NC(=O)c2ccc3c(c2)c(=O)[nH]c2cnccc23)c1

>  <Name>  (667) 
nan

>  <Pocket>  (667) 
nan

>  <ATP_Site>  (667) 
nan

>  <Peripheral>  (667) 
nan

>  <Num_H_Atoms_ProtBoundConf>  (667) 
nan

>  <Num_Resolved_Atoms>  (667) 
nan

>  <Num_Not_Resolved_Atoms>  (667) 
nan

$$$$
CHEMBL4783530
     RDKit          3D

  0  0  0  0  0  0  0  0  0  0999 V3000
M  V30 BEGIN CTAB
M  V30 COUNTS 38 40 0 0 0
M  V30 BEGIN ATOM
M  V30 1 O -1.469060 -2.160702 2.557619 0
M  V30 2 C -1.013993 -2.851858 1.610906 0
M  V30 3 N 0.014775 -2.318887 0.824736 0
M  V30 4 C 0.666995 -1.067523 0.916594 0
M  V30 5 C 0.425718 -0.069032 1.826927 0
M  V30 6 C 1.083247 1.139672 1.885409 0
M  V30 7 C 2.074108 1.393022 0.960271 0
M  V30 8 O 2.776505 2.585180 0.958756 0
M  V30 9 C 2.378442 3.716054 0.238607 0
M  V30 10 C 2.836872 3.875881 -1.070238 0
M  V30 11 C 2.456596 4.986998 -1.803203 0
M  V30 12 C 1.625879 5.916780 -1.214609 0
M  V30 13 C 1.172970 5.769835 0.062451 0
M  V30 14 C 1.546071 4.663500 0.805249 0
M  V30 15 C 2.351781 0.418022 0.025124 0
M  V30 16 C 1.662044 -0.772933 0.013506 0
M  V30 17 Cl 2.095027 -1.958344 -1.228270 0
M  V30 18 C -1.614907 -4.165166 1.422641 0
M  V30 19 C -1.252255 -5.066440 0.441706 0
M  V30 20 C -1.809544 -6.295500 0.259936 0
M  V30 21 Cl -1.284342 -7.374620 -1.014557 0
M  V30 22 C -2.814330 -6.714426 1.093446 0
M  V30 23 C -3.225944 -5.864307 2.095131 0
M  V30 24 Cl -4.507559 -6.336566 3.198410 0
M  V30 25 C -2.629158 -4.628748 2.237697 0
M  V30 26 O -3.073980 -3.789487 3.268861 0
M  V30 27 H 0.306615 -2.977604 0.078357 0
M  V30 28 H -0.331288 -0.205787 2.570426 0
M  V30 29 H 0.843269 1.882484 2.629100 0
M  V30 30 H 3.490291 3.163188 -1.560474 0
M  V30 31 H 2.768448 5.186426 -2.826204 0
M  V30 32 H 1.306343 6.805121 -1.764258 0
M  V30 33 H 0.520638 6.449279 0.598759 0
M  V30 34 H 1.206320 4.505480 1.833123 0
M  V30 35 H 3.119156 0.585558 -0.709878 0
M  V30 36 H -0.472686 -4.809339 -0.248871 0
M  V30 37 H -3.317237 -7.662594 1.033425 0
M  V30 38 H -2.437106 -3.773747 4.075570 0
M  V30 END ATOM
M  V30 BEGIN BOND
M  V30 1 2 1 2
M  V30 2 1 2 3
M  V30 3 1 3 4
M  V30 4 2 4 5
M  V30 5 1 5 6
M  V30 6 2 6 7
M  V30 7 1 7 8
M  V30 8 1 8 9
M  V30 9 2 9 10
M  V30 10 1 10 11
M  V30 11 2 11 12
M  V30 12 1 12 13
M  V30 13 2 13 14
M  V30 14 1 7 15
M  V30 15 2 15 16
M  V30 16 1 16 17
M  V30 17 1 2 18
M  V30 18 2 18 19
M  V30 19 1 19 20
M  V30 20 1 20 21
M  V30 21 2 20 22
M  V30 22 1 22 23
M  V30 23 1 23 24
M  V30 24 2 23 25
M  V30 25 1 25 26
M  V30 26 1 16 4
M  V30 27 1 25 18
M  V30 28 1 14 9
M  V30 29 1 3 27
M  V30 30 1 5 28
M  V30 31 1 6 29
M  V30 32 1 10 30
M  V30 33 1 11 31
M  V30 34 1 12 32
M  V30 35 1 13 33
M  V30 36 1 14 34
M  V30 37 1 15 35
M  V30 38 1 19 36
M  V30 39 1 22 37
M  V30 40 1 26 38
M  V30 END BOND
M  V30 END CTAB
M  END
>  <Dataset>  (668) 
ChEMBL_Kinases

>  <Ligand_Instance>  (668) 
nan

>  <PDB_ID>  (668) 
nan

>  <Standardized_SMILES>  (668) 
O=C(Nc1ccc(Oc2ccccc2)cc1Cl)c1cc(Cl)cc(Cl)c1O

>  <Name>  (668) 
nan

>  <Pocket>  (668) 
nan

>  <ATP_Site>  (668) 
nan

>  <Peripheral>  (668) 
nan

>  <Num_H_Atoms_ProtBoundConf>  (668) 
nan

>  <Num_Resolved_Atoms>  (668) 
nan

>  <Num_Not_Resolved_Atoms>  (668) 
nan

$$$$
CHEMBL4205191
     RDKit          3D

  0  0  0  0  0  0  0  0  0  0999 V3000
M  V30 BEGIN CTAB
M  V30 COUNTS 63 68 0 0 0
M  V30 BEGIN ATOM
M  V30 1 C 4.626661 -2.807075 5.146079 0
M  V30 2 N 3.514810 -3.289255 4.344463 0
M  V30 3 C 3.075920 -2.601780 3.166143 0
M  V30 4 N 2.378037 -1.525210 3.547159 0
M  V30 5 C 1.825047 -0.657504 2.679765 0
M  V30 6 C 1.969968 -0.868125 1.316949 0
M  V30 7 C 1.565873 -0.221005 0.147078 0
M  V30 8 C 0.744771 0.980861 0.157355 0
M  V30 9 C -0.338993 0.823619 -0.703198 0
M  V30 10 C -1.294631 1.822428 -0.871413 0
M  V30 11 C -1.075857 2.963398 -0.122512 0
M  V30 12 N -1.981215 4.072712 -0.128150 0
M  V30 13 C -1.810163 5.496733 0.093267 0
M  V30 14 C -2.531890 5.971941 1.330762 0
M  V30 15 N -3.866737 5.470613 1.395355 0
M  V30 16 C -4.026029 4.087120 1.042513 0
M  V30 17 C -3.420483 3.841512 -0.353329 0
M  V30 18 N -0.009737 3.122388 0.723793 0
M  V30 19 C 0.912663 2.140119 0.877132 0
M  V30 20 N 2.060877 -0.969468 -0.852392 0
M  V30 21 N 2.717085 -2.000756 -0.400698 0
M  V30 22 C 3.348276 -3.105722 -1.160330 0
M  V30 23 C 2.225747 -4.062160 -1.533995 0
M  V30 24 C 1.234307 -4.309256 -0.602719 0
M  V30 25 N 0.384783 -5.158399 -1.253087 0
M  V30 26 C -0.815131 -5.632834 -0.655922 0
M  V30 27 C -1.024544 -6.693985 0.176348 0
M  V30 28 C -2.340315 -6.932424 0.623621 0
M  V30 29 S -3.321278 -5.601018 -0.168130 0
M  V30 30 C -1.887751 -4.860790 -1.010878 0
M  V30 31 C -2.079941 -3.721439 -1.810044 0
M  V30 32 O -1.162501 -3.122870 -2.428520 0
M  V30 33 O -3.268786 -3.057705 -2.065790 0
M  V30 34 C -3.280744 -1.894966 -2.913357 0
M  V30 35 N 0.830462 -5.399130 -2.458349 0
M  V30 36 N 1.979747 -4.744341 -2.697672 0
M  V30 37 C 2.702888 -2.001984 0.952417 0
M  V30 38 N 3.252277 -2.862767 1.845441 0
M  V30 39 H 4.701548 -1.702551 5.090566 0
M  V30 40 H 5.560284 -3.222942 4.728834 0
M  V30 41 H 4.497135 -3.109734 6.220161 0
M  V30 42 H 2.998496 -4.166205 4.604389 0
M  V30 43 H 1.248291 0.230993 2.954425 0
M  V30 44 H -0.557781 -0.061871 -1.322582 0
M  V30 45 H -2.137812 1.722698 -1.531975 0
M  V30 46 H -0.730304 5.763952 0.137048 0
M  V30 47 H -2.300589 6.014370 -0.782245 0
M  V30 48 H -1.932698 5.733133 2.243321 0
M  V30 49 H -2.618321 7.086601 1.254541 0
M  V30 50 H -4.240476 5.563501 2.369446 0
M  V30 51 H -5.106655 3.857193 1.067146 0
M  V30 52 H -3.463671 3.403749 1.712994 0
M  V30 53 H -3.842810 4.522988 -1.094723 0
M  V30 54 H -3.551240 2.768639 -0.556431 0
M  V30 55 H 1.786424 2.128665 1.504691 0
M  V30 56 H 3.688229 -2.652230 -2.100879 0
M  V30 57 H 4.083212 -3.609029 -0.555906 0
M  V30 58 H 1.115075 -3.945352 0.402279 0
M  V30 59 H -0.174845 -7.304769 0.459093 0
M  V30 60 H -2.558954 -7.774546 1.297328 0
M  V30 61 H -4.238618 -1.928561 -3.448986 0
M  V30 62 H -3.212144 -0.960962 -2.326616 0
M  V30 63 H -2.480715 -1.981775 -3.680783 0
M  V30 END ATOM
M  V30 BEGIN BOND
M  V30 1 1 1 2
M  V30 2 1 2 3
M  V30 3 2 3 4
M  V30 4 1 4 5
M  V30 5 2 5 6
M  V30 6 1 6 7
M  V30 7 1 7 8
M  V30 8 2 8 9
M  V30 9 1 9 10
M  V30 10 2 10 11
M  V30 11 1 11 12
M  V30 12 1 12 13
M  V30 13 1 13 14
M  V30 14 1 14 15
M  V30 15 1 15 16
M  V30 16 1 16 17
M  V30 17 1 11 18
M  V30 18 2 18 19
M  V30 19 2 7 20
M  V30 20 1 20 21
M  V30 21 1 21 22
M  V30 22 1 22 23
M  V30 23 2 23 24
M  V30 24 1 24 25
M  V30 25 1 25 26
M  V30 26 1 26 27
M  V30 27 2 27 28
M  V30 28 1 28 29
M  V30 29 1 29 30
M  V30 30 1 30 31
M  V30 31 2 31 32
M  V30 32 1 31 33
M  V30 33 1 33 34
M  V30 34 1 25 35
M  V30 35 2 35 36
M  V30 36 1 21 37
M  V30 37 2 37 38
M  V30 38 1 38 3
M  V30 39 1 37 6
M  V30 40 1 19 8
M  V30 41 1 36 23
M  V30 42 1 17 12
M  V30 43 2 30 26
M  V30 44 1 1 39
M  V30 45 1 1 40
M  V30 46 1 1 41
M  V30 47 1 2 42
M  V30 48 1 5 43
M  V30 49 1 9 44
M  V30 50 1 10 45
M  V30 51 1 13 46
M  V30 52 1 13 47
M  V30 53 1 14 48
M  V30 54 1 14 49
M  V30 55 1 15 50
M  V30 56 1 16 51
M  V30 57 1 16 52
M  V30 58 1 17 53
M  V30 59 1 17 54
M  V30 60 1 19 55
M  V30 61 1 22 56
M  V30 62 1 22 57
M  V30 63 1 24 58
M  V30 64 1 27 59
M  V30 65 1 28 60
M  V30 66 1 34 61
M  V30 67 1 34 62
M  V30 68 1 34 63
M  V30 END BOND
M  V30 END CTAB
M  END
>  <Dataset>  (669) 
ChEMBL_Kinases

>  <Ligand_Instance>  (669) 
nan

>  <PDB_ID>  (669) 
nan

>  <Standardized_SMILES>  (669) 
CNc1ncc2c(-c3ccc(N4CCNCC4)nc3)nn(Cc3cn(-c4ccsc4C(=O)OC)nn3)c2n1

>  <Name>  (669) 
nan

>  <Pocket>  (669) 
nan

>  <ATP_Site>  (669) 
nan

>  <Peripheral>  (669) 
nan

>  <Num_H_Atoms_ProtBoundConf>  (669) 
nan

>  <Num_Resolved_Atoms>  (669) 
nan

>  <Num_Not_Resolved_Atoms>  (669) 
nan

$$$$
CHEMBL4205172
     RDKit          3D

  0  0  0  0  0  0  0  0  0  0999 V3000
M  V30 BEGIN CTAB
M  V30 COUNTS 46 49 0 0 0
M  V30 BEGIN ATOM
M  V30 1 C 2.063873 -4.960547 0.514666 0
M  V30 2 N 2.844217 -4.212142 -0.457320 0
M  V30 3 C 2.243339 -4.199909 -1.784569 0
M  V30 4 C 3.238817 -3.399964 -2.571902 0
M  V30 5 C 3.948599 -2.523818 -1.554620 0 CFG=1
M  V30 6 O 5.165201 -2.046838 -2.000564 0
M  V30 7 C 3.138678 -1.356083 -1.199277 0
M  V30 8 C 2.451190 -0.392492 -0.888464 0
M  V30 9 C 1.627304 0.726184 -0.511700 0
M  V30 10 C 1.790579 1.954762 -1.116663 0
M  V30 11 C 0.953009 2.968253 -0.688382 0
M  V30 12 C 0.003815 2.751546 0.296188 0
M  V30 13 C -0.126876 1.501626 0.877877 0
M  V30 14 C -1.156967 1.365444 1.910185 0
M  V30 15 N -0.933633 1.170451 3.241043 0
M  V30 16 C -2.081512 1.089443 3.901364 0
M  V30 17 C -2.366980 0.888222 5.319517 0
M  V30 18 N -1.287359 0.742615 6.234886 0
M  V30 19 O -3.518489 0.830978 5.815213 0
M  V30 20 C -3.093167 1.238091 2.959670 0
M  V30 21 C -4.462708 1.244352 3.034882 0
M  V30 22 C -5.230055 1.419152 1.890913 0
M  V30 23 C -4.616688 1.587837 0.669771 0
M  V30 24 C -3.226292 1.581526 0.593106 0
M  V30 25 N -2.508646 1.407176 1.738247 0
M  V30 26 C 0.691530 0.457119 0.479217 0
M  V30 27 C 4.081721 -3.475788 -0.409648 0
M  V30 28 O 4.856292 -3.844349 0.537051 0
M  V30 29 H 2.434093 -4.844543 1.549116 0
M  V30 30 H 2.036496 -6.027688 0.210089 0
M  V30 31 H 0.992482 -4.612045 0.558668 0
M  V30 32 H 1.270276 -3.685996 -1.788413 0
M  V30 33 H 2.181360 -5.226549 -2.195514 0
M  V30 34 H 2.692158 -2.728199 -3.250897 0
M  V30 35 H 3.951321 -4.002998 -3.161602 0
M  V30 36 H 5.794729 -2.793056 -2.091164 0
M  V30 37 H 2.544673 2.087246 -1.884368 0
M  V30 38 H 1.067951 3.940684 -1.153568 0
M  V30 39 H -0.635242 3.572681 0.605471 0
M  V30 40 H -0.689155 1.330258 6.885744 0
M  V30 41 H -0.705874 -0.058166 6.572615 0
M  V30 42 H -4.983212 1.113462 3.986238 0
M  V30 43 H -6.315399 1.435184 1.873938 0
M  V30 44 H -5.130768 1.729872 -0.269156 0
M  V30 45 H -2.679724 1.708157 -0.331044 0
M  V30 46 H 0.573340 -0.497620 0.941063 0
M  V30 END ATOM
M  V30 BEGIN BOND
M  V30 1 1 1 2
M  V30 2 1 2 3
M  V30 3 1 3 4
M  V30 4 1 4 5
M  V30 5 1 5 6
M  V30 6 1 5 7 CFG=1
M  V30 7 3 7 8
M  V30 8 1 8 9
M  V30 9 2 9 10
M  V30 10 1 10 11
M  V30 11 2 11 12
M  V30 12 1 12 13
M  V30 13 1 13 14
M  V30 14 2 14 15
M  V30 15 1 15 16
M  V30 16 1 16 17
M  V30 17 1 17 18
M  V30 18 2 17 19
M  V30 19 2 16 20
M  V30 20 1 20 21
M  V30 21 2 21 22
M  V30 22 1 22 23
M  V30 23 2 23 24
M  V30 24 1 24 25
M  V30 25 2 13 26
M  V30 26 1 5 27
M  V30 27 2 27 28
M  V30 28 1 27 2
M  V30 29 1 26 9
M  V30 30 1 25 14
M  V30 31 1 25 20
M  V30 32 1 1 29
M  V30 33 1 1 30
M  V30 34 1 1 31
M  V30 35 1 3 32
M  V30 36 1 3 33
M  V30 37 1 4 34
M  V30 38 1 4 35
M  V30 39 1 6 36
M  V30 40 1 10 37
M  V30 41 1 11 38
M  V30 42 1 12 39
M  V30 43 1 18 40
M  V30 44 1 18 41
M  V30 45 1 21 42
M  V30 46 1 22 43
M  V30 47 1 23 44
M  V30 48 1 24 45
M  V30 49 1 26 46
M  V30 END BOND
M  V30 END CTAB
M  END
>  <Dataset>  (670) 
ChEMBL_Kinases

>  <Ligand_Instance>  (670) 
nan

>  <PDB_ID>  (670) 
nan

>  <Standardized_SMILES>  (670) 
CN1CC[C@@](O)(C#Cc2cccc(-c3nc(C(N)=O)c4ccccn34)c2)C1=O

>  <Name>  (670) 
nan

>  <Pocket>  (670) 
nan

>  <ATP_Site>  (670) 
nan

>  <Peripheral>  (670) 
nan

>  <Num_H_Atoms_ProtBoundConf>  (670) 
nan

>  <Num_Resolved_Atoms>  (670) 
nan

>  <Num_Not_Resolved_Atoms>  (670) 
nan

$$$$
CHEMBL4784119
     RDKit          3D

  0  0  0  0  0  0  0  0  0  0999 V3000
M  V30 BEGIN CTAB
M  V30 COUNTS 54 58 0 0 0
M  V30 BEGIN ATOM
M  V30 1 C 1.531246 -3.422354 7.200718 0
M  V30 2 N 1.214989 -3.415026 5.775378 0
M  V30 3 C 1.849195 -2.603656 4.894852 0
M  V30 4 C 1.308947 -2.853874 3.651371 0
M  V30 5 C 1.649274 -2.234441 2.352827 0
M  V30 6 C 2.064272 -0.914742 2.388203 0
M  V30 7 C 2.391004 -0.294155 1.201425 0
M  V30 8 C 2.304539 -0.976953 0.012119 0
M  V30 9 C 2.637439 -0.331247 -1.173171 0
M  V30 10 N 3.074304 1.026451 -1.219847 0
M  V30 11 C 2.076641 2.052801 -1.328512 0
M  V30 12 C 2.452128 3.380777 -1.416054 0
M  V30 13 C 1.451073 4.322425 -1.514461 0
M  V30 14 C 0.121847 3.962822 -1.525765 0
M  V30 15 C -0.283330 2.660519 -1.440918 0
M  V30 16 N -1.668022 2.363981 -1.455939 0
M  V30 17 C -2.329183 1.135958 -1.383464 0
M  V30 18 O -1.663708 0.079268 -1.289916 0
M  V30 19 N -3.735030 0.946654 -1.405025 0
M  V30 20 C -4.094643 -0.435481 -1.313866 0
M  V30 21 C -4.288950 -0.988209 -0.047555 0
M  V30 22 C -4.640941 -2.327327 0.120667 0
M  V30 23 C -4.797137 -3.112156 -1.002059 0
M  V30 24 C -4.610378 -2.588821 -2.265667 0
M  V30 25 Cl -4.819329 -3.618589 -3.668653 0
M  V30 26 C -4.257911 -1.247895 -2.436780 0
M  V30 27 C 0.731790 1.744649 -1.344257 0
M  V30 28 N 2.532646 -1.053628 -2.325101 0
M  V30 29 C 2.126077 -2.333556 -2.320283 0
M  V30 30 N 1.806930 -2.953152 -1.185530 0
M  V30 31 C 1.887635 -2.293337 0.004479 0
M  V30 32 C 1.547524 -2.963067 1.169594 0
M  V30 33 C 0.342035 -3.828599 3.808704 0
M  V30 34 N 0.303737 -4.157924 5.129528 0
M  V30 35 H 0.670071 -3.768162 7.794764 0
M  V30 36 H 2.387171 -4.132008 7.320862 0
M  V30 37 H 1.896023 -2.421399 7.501059 0
M  V30 38 H 2.619240 -1.877479 4.996229 0
M  V30 39 H 2.125037 -0.396976 3.334748 0
M  V30 40 H 2.719996 0.734027 1.179271 0
M  V30 41 H 4.067000 1.298757 -1.178947 0
M  V30 42 H 3.483920 3.692816 -1.409400 0
M  V30 43 H 1.674672 5.375953 -1.586149 0
M  V30 44 H -0.637145 4.749986 -1.605486 0
M  V30 45 H -2.353504 3.157276 -1.532185 0
M  V30 46 H -4.339711 1.817132 -1.483183 0
M  V30 47 H -4.157003 -0.341619 0.809204 0
M  V30 48 H -4.763426 -2.642302 1.135685 0
M  V30 49 H -5.074607 -4.163411 -0.845605 0
M  V30 50 H -4.104609 -0.809735 -3.427298 0
M  V30 51 H 0.514378 0.707321 -1.274490 0
M  V30 52 H 2.025915 -2.950943 -3.204571 0
M  V30 53 H 1.219333 -3.994571 1.175113 0
M  V30 54 H -0.298506 -4.286232 3.062038 0
M  V30 END ATOM
M  V30 BEGIN BOND
M  V30 1 1 1 2
M  V30 2 1 2 3
M  V30 3 2 3 4
M  V30 4 1 4 5
M  V30 5 2 5 6
M  V30 6 1 6 7
M  V30 7 2 7 8
M  V30 8 1 8 9
M  V30 9 1 9 10
M  V30 10 1 10 11
M  V30 11 2 11 12
M  V30 12 1 12 13
M  V30 13 2 13 14
M  V30 14 1 14 15
M  V30 15 1 15 16
M  V30 16 1 16 17
M  V30 17 2 17 18
M  V30 18 1 17 19
M  V30 19 1 19 20
M  V30 20 2 20 21
M  V30 21 1 21 22
M  V30 22 2 22 23
M  V30 23 1 23 24
M  V30 24 1 24 25
M  V30 25 2 24 26
M  V30 26 2 15 27
M  V30 27 2 9 28
M  V30 28 1 28 29
M  V30 29 2 29 30
M  V30 30 1 30 31
M  V30 31 2 31 32
M  V30 32 1 4 33
M  V30 33 2 33 34
M  V30 34 1 34 2
M  V30 35 1 32 5
M  V30 36 1 31 8
M  V30 37 1 27 11
M  V30 38 1 26 20
M  V30 39 1 1 35
M  V30 40 1 1 36
M  V30 41 1 1 37
M  V30 42 1 3 38
M  V30 43 1 6 39
M  V30 44 1 7 40
M  V30 45 1 10 41
M  V30 46 1 12 42
M  V30 47 1 13 43
M  V30 48 1 14 44
M  V30 49 1 16 45
M  V30 50 1 19 46
M  V30 51 1 21 47
M  V30 52 1 22 48
M  V30 53 1 23 49
M  V30 54 1 26 50
M  V30 55 1 27 51
M  V30 56 1 29 52
M  V30 57 1 32 53
M  V30 58 1 33 54
M  V30 END BOND
M  V30 END CTAB
M  END
>  <Dataset>  (671) 
ChEMBL_Kinases

>  <Ligand_Instance>  (671) 
nan

>  <PDB_ID>  (671) 
nan

>  <Standardized_SMILES>  (671) 
Cn1cc(-c2ccc3c(Nc4cccc(NC(=O)Nc5cccc(Cl)c5)c4)ncnc3c2)cn1

>  <Name>  (671) 
nan

>  <Pocket>  (671) 
nan

>  <ATP_Site>  (671) 
nan

>  <Peripheral>  (671) 
nan

>  <Num_H_Atoms_ProtBoundConf>  (671) 
nan

>  <Num_Resolved_Atoms>  (671) 
nan

>  <Num_Not_Resolved_Atoms>  (671) 
nan

$$$$
CHEMBL4205137
     RDKit          3D

  0  0  0  0  0  0  0  0  0  0999 V3000
M  V30 BEGIN CTAB
M  V30 COUNTS 26 27 0 0 0
M  V30 BEGIN ATOM
M  V30 1 C -0.625084 -4.194875 0.394342 0
M  V30 2 C 0.066436 -3.119947 1.169600 0
M  V30 3 C 0.635072 -3.356055 2.408680 0
M  V30 4 C 1.261450 -2.292903 3.062902 0
M  V30 5 Br 2.036556 -2.661839 4.777205 0
M  V30 6 C 1.329696 -1.017980 2.511660 0
M  V30 7 C 0.750152 -0.851703 1.288748 0
M  V30 8 C 0.110816 -1.854546 0.576789 0
M  V30 9 N -0.378966 -1.329736 -0.663090 0
M  V30 10 C -0.048781 0.050813 -0.758691 0
M  V30 11 O -0.308198 0.839795 -1.689859 0
M  V30 12 C 0.673136 0.380267 0.476454 0
M  V30 13 N 1.138621 1.555683 0.755696 0
M  V30 14 N 1.013800 2.669736 -0.086782 0
M  V30 15 C -0.245511 3.311725 0.101995 0
M  V30 16 N -0.735550 4.468446 -0.568056 0
M  V30 17 S -1.454480 2.902135 1.124288 0
M  V30 18 H -0.038758 -4.538573 -0.481636 0
M  V30 19 H -0.808391 -5.060988 1.040894 0
M  V30 20 H -1.602618 -3.789106 0.056870 0
M  V30 21 H 0.588753 -4.348695 2.851202 0
M  V30 22 H 1.818439 -0.206525 3.031847 0
M  V30 23 H -0.895359 -1.907913 -1.362661 0
M  V30 24 H 1.581210 3.148806 -0.801778 0
M  V30 25 H -1.060015 5.372041 -0.161163 0
M  V30 26 H -1.026469 5.095008 -1.337311 0
M  V30 END ATOM
M  V30 BEGIN BOND
M  V30 1 1 1 2
M  V30 2 2 2 3
M  V30 3 1 3 4
M  V30 4 1 4 5
M  V30 5 2 4 6
M  V30 6 1 6 7
M  V30 7 2 7 8
M  V30 8 1 8 9
M  V30 9 1 9 10
M  V30 10 2 10 11
M  V30 11 1 10 12
M  V30 12 2 12 13
M  V30 13 1 13 14
M  V30 14 1 14 15
M  V30 15 1 15 16
M  V30 16 2 15 17
M  V30 17 1 8 2
M  V30 18 1 12 7
M  V30 19 1 1 18
M  V30 20 1 1 19
M  V30 21 1 1 20
M  V30 22 1 3 21
M  V30 23 1 6 22
M  V30 24 1 9 23
M  V30 25 1 14 24
M  V30 26 1 16 25
M  V30 27 1 16 26
M  V30 END BOND
M  V30 END CTAB
M  END
>  <Dataset>  (672) 
ChEMBL_Kinases

>  <Ligand_Instance>  (672) 
nan

>  <PDB_ID>  (672) 
nan

>  <Standardized_SMILES>  (672) 
Cc1cc(Br)cc2c1NC(=O)/C2=N\NC(N)=S

>  <Name>  (672) 
nan

>  <Pocket>  (672) 
nan

>  <ATP_Site>  (672) 
nan

>  <Peripheral>  (672) 
nan

>  <Num_H_Atoms_ProtBoundConf>  (672) 
nan

>  <Num_Resolved_Atoms>  (672) 
nan

>  <Num_Not_Resolved_Atoms>  (672) 
nan

$$$$
CHEMBL4205123
     RDKit          3D

  0  0  0  0  0  0  0  0  0  0999 V3000
M  V30 BEGIN CTAB
M  V30 COUNTS 53 56 0 0 0
M  V30 BEGIN ATOM
M  V30 1 C 3.158432 -0.909255 4.059149 0
M  V30 2 O 3.075500 0.027308 2.989057 0
M  V30 3 C 4.170601 0.129786 2.141355 0
M  V30 4 C 5.308133 -0.634716 2.307061 0
M  V30 5 C 6.380432 -0.508476 1.445915 0
M  V30 6 C 6.299873 0.411104 0.394563 0
M  V30 7 F 7.334743 0.548668 -0.455372 0
M  V30 8 C 5.173019 1.189336 0.205293 0
M  V30 9 F 5.108204 2.084004 -0.826525 0
M  V30 10 C 4.113559 1.039686 1.086062 0
M  V30 11 C 2.902070 1.837912 0.928862 0
M  V30 12 C 2.827647 3.074265 1.580912 0
M  V30 13 C 1.646629 3.801406 1.399064 0
M  V30 14 N 0.642028 3.312627 0.627253 0
M  V30 15 C 0.749994 2.107386 0.009216 0
M  V30 16 N -0.375184 1.716712 -0.767983 0
M  V30 17 C -1.453034 0.973065 -0.212761 0
M  V30 18 C -1.405491 0.622261 1.114889 0
M  V30 19 C -2.447739 -0.098596 1.659136 0
M  V30 20 C -3.519055 -0.451068 0.849139 0
M  V30 21 S -4.823502 -1.364544 1.570843 0
M  V30 22 O -6.131661 -1.013427 0.876677 0
M  V30 23 O -5.027320 -0.955035 3.017918 0
M  V30 24 N -4.570658 -3.068747 1.454723 0
M  V30 25 C -4.491469 -3.582517 0.129647 0
M  V30 26 O -5.585155 -3.994778 -0.503469 0
M  V30 27 N -5.290998 -4.420680 -1.686875 0
M  V30 28 C -3.971956 -4.324979 -1.935828 0
M  V30 29 C -3.164909 -4.680735 -3.132954 0
M  V30 30 C -3.452962 -3.780892 -0.756647 0
M  V30 31 C -2.070246 -3.443579 -0.420043 0
M  V30 32 C -3.547491 -0.087727 -0.486116 0
M  V30 33 C -2.503970 0.637334 -1.042741 0
M  V30 34 N 1.885932 1.400489 0.179947 0
M  V30 35 H 4.059944 -0.726329 4.686563 0
M  V30 36 H 3.275147 -1.930716 3.645422 0
M  V30 37 H 2.285848 -0.838032 4.732637 0
M  V30 38 H 5.368176 -1.345025 3.120611 0
M  V30 39 H 7.291588 -1.083149 1.533373 0
M  V30 40 H 3.630250 3.456113 2.192722 0
M  V30 41 H 1.525107 4.773537 1.880437 0
M  V30 42 H -0.357227 2.010664 -1.767699 0
M  V30 43 H -0.560933 0.915507 1.699142 0
M  V30 44 H -2.386819 -0.367768 2.724700 0
M  V30 45 H -4.482106 -3.679176 2.294237 0
M  V30 46 H -3.698338 -5.431086 -3.740126 0
M  V30 47 H -3.147071 -3.745480 -3.760283 0
M  V30 48 H -2.145046 -4.949234 -2.833436 0
M  V30 49 H -1.372378 -4.159681 -0.943393 0
M  V30 50 H -1.793881 -2.399354 -0.710434 0
M  V30 51 H -1.880351 -3.622356 0.676601 0
M  V30 52 H -4.406409 -0.388797 -1.070511 0
M  V30 53 H -2.563427 0.902783 -2.092326 0
M  V30 END ATOM
M  V30 BEGIN BOND
M  V30 1 1 1 2
M  V30 2 1 2 3
M  V30 3 2 3 4
M  V30 4 1 4 5
M  V30 5 2 5 6
M  V30 6 1 6 7
M  V30 7 1 6 8
M  V30 8 1 8 9
M  V30 9 2 8 10
M  V30 10 1 10 11
M  V30 11 2 11 12
M  V30 12 1 12 13
M  V30 13 2 13 14
M  V30 14 1 14 15
M  V30 15 1 15 16
M  V30 16 1 16 17
M  V30 17 2 17 18
M  V30 18 1 18 19
M  V30 19 2 19 20
M  V30 20 1 20 21
M  V30 21 2 21 22
M  V30 22 2 21 23
M  V30 23 1 21 24
M  V30 24 1 24 25
M  V30 25 1 25 26
M  V30 26 1 26 27
M  V30 27 2 27 28
M  V30 28 1 28 29
M  V30 29 1 28 30
M  V30 30 1 30 31
M  V30 31 1 20 32
M  V30 32 2 32 33
M  V30 33 2 15 34
M  V30 34 1 10 3
M  V30 35 1 34 11
M  V30 36 1 33 17
M  V30 37 2 30 25
M  V30 38 1 1 35
M  V30 39 1 1 36
M  V30 40 1 1 37
M  V30 41 1 4 38
M  V30 42 1 5 39
M  V30 43 1 12 40
M  V30 44 1 13 41
M  V30 45 1 16 42
M  V30 46 1 18 43
M  V30 47 1 19 44
M  V30 48 1 24 45
M  V30 49 1 29 46
M  V30 50 1 29 47
M  V30 51 1 29 48
M  V30 52 1 31 49
M  V30 53 1 31 50
M  V30 54 1 31 51
M  V30 55 1 32 52
M  V30 56 1 33 53
M  V30 END BOND
M  V30 END CTAB
M  END
>  <Dataset>  (673) 
ChEMBL_Kinases

>  <Ligand_Instance>  (673) 
nan

>  <PDB_ID>  (673) 
nan

>  <Standardized_SMILES>  (673) 
COc1ccc(F)c(F)c1-c1ccnc(Nc2ccc(S(=O)(=O)Nc3onc(C)c3C)cc2)n1

>  <Name>  (673) 
nan

>  <Pocket>  (673) 
nan

>  <ATP_Site>  (673) 
nan

>  <Peripheral>  (673) 
nan

>  <Num_H_Atoms_ProtBoundConf>  (673) 
nan

>  <Num_Resolved_Atoms>  (673) 
nan

>  <Num_Not_Resolved_Atoms>  (673) 
nan

$$$$
CHEMBL4205039
     RDKit          3D

  0  0  0  0  0  0  0  0  0  0999 V3000
M  V30 BEGIN CTAB
M  V30 COUNTS 32 34 0 0 0
M  V30 BEGIN ATOM
M  V30 1 C -2.329367 0.320872 0.904191 0
M  V30 2 N -1.261492 -0.564062 1.390988 0
M  V30 3 C 0.074356 -0.395635 0.933562 0
M  V30 4 C 1.010054 -0.805957 1.930474 0
M  V30 5 S 2.554372 -0.511630 1.147174 0
M  V30 6 C 1.904565 0.119232 -0.409459 0
M  V30 7 C 2.832370 0.515725 -1.429635 0
M  V30 8 C 4.221651 0.476766 -1.375563 0
M  V30 9 N 4.716613 0.936087 -2.539381 0
M  V30 10 N 3.747769 1.279631 -3.368076 0
M  V30 11 C 2.614495 1.023260 -2.691764 0
M  V30 12 C 0.583326 0.064498 -0.231589 0
M  V30 13 Br -0.474658 0.672689 -1.703327 0
M  V30 14 C 0.598305 -1.322983 3.230681 0
M  V30 15 O 1.572137 -1.628123 3.967407 0
M  V30 16 N -0.803807 -1.439124 3.556738 0
M  V30 17 C -1.592084 -1.625445 2.354025 0
M  V30 18 C -1.187911 -2.919589 1.635833 0
M  V30 19 C -3.053023 -1.716153 2.605453 0
M  V30 20 H -1.950372 1.360162 0.746747 0
M  V30 21 H -2.844713 -0.096721 0.032291 0
M  V30 22 H -3.056270 0.398487 1.739463 0
M  V30 23 H 4.857893 0.145709 -0.567717 0
M  V30 24 H 3.827084 1.663842 -4.331134 0
M  V30 25 H 1.644838 1.209006 -3.125949 0
M  V30 26 H -0.984218 -1.367768 4.590737 0
M  V30 27 H -1.158773 -2.794324 0.536163 0
M  V30 28 H -0.151980 -3.202661 1.958838 0
M  V30 29 H -1.922289 -3.727306 1.828592 0
M  V30 30 H -3.409649 -1.072680 3.458903 0
M  V30 31 H -3.260704 -2.765836 2.943210 0
M  V30 32 H -3.620632 -1.574267 1.689495 0
M  V30 END ATOM
M  V30 BEGIN BOND
M  V30 1 1 1 2
M  V30 2 1 2 3
M  V30 3 2 3 4
M  V30 4 1 4 5
M  V30 5 1 5 6
M  V30 6 1 6 7
M  V30 7 1 7 8
M  V30 8 2 8 9
M  V30 9 1 9 10
M  V30 10 1 10 11
M  V30 11 2 6 12
M  V30 12 1 12 13
M  V30 13 1 4 14
M  V30 14 2 14 15
M  V30 15 1 14 16
M  V30 16 1 16 17
M  V30 17 1 17 18
M  V30 18 1 17 19
M  V30 19 1 17 2
M  V30 20 1 12 3
M  V30 21 2 11 7
M  V30 22 1 1 20
M  V30 23 1 1 21
M  V30 24 1 1 22
M  V30 25 1 8 23
M  V30 26 1 10 24
M  V30 27 1 11 25
M  V30 28 1 16 26
M  V30 29 1 18 27
M  V30 30 1 18 28
M  V30 31 1 18 29
M  V30 32 1 19 30
M  V30 33 1 19 31
M  V30 34 1 19 32
M  V30 END BOND
M  V30 END CTAB
M  END
>  <Dataset>  (674) 
ChEMBL_Kinases

>  <Ligand_Instance>  (674) 
nan

>  <PDB_ID>  (674) 
nan

>  <Standardized_SMILES>  (674) 
CN1c2c(sc(-c3cn[nH]c3)c2Br)C(=O)NC1(C)C

>  <Name>  (674) 
nan

>  <Pocket>  (674) 
nan

>  <ATP_Site>  (674) 
nan

>  <Peripheral>  (674) 
nan

>  <Num_H_Atoms_ProtBoundConf>  (674) 
nan

>  <Num_Resolved_Atoms>  (674) 
nan

>  <Num_Not_Resolved_Atoms>  (674) 
nan

$$$$
CHEMBL4204893
     RDKit          3D

  0  0  0  0  0  0  0  0  0  0999 V3000
M  V30 BEGIN CTAB
M  V30 COUNTS 15 16 0 0 0
M  V30 BEGIN ATOM
M  V30 1 Cl -1.027177 -0.509191 3.300179 0
M  V30 2 C 0.158664 -0.692508 2.005285 0
M  V30 3 C 0.513390 -1.926222 1.505479 0
M  V30 4 C 1.431847 -2.120803 0.497548 0
M  V30 5 N 2.014153 -1.033280 -0.025966 0
M  V30 6 C 1.699712 0.206135 0.430989 0
M  V30 7 N 2.133023 1.420943 0.080110 0
M  V30 8 C 1.548159 2.397911 0.803327 0
M  V30 9 C 0.689239 1.751175 1.666866 0
M  V30 10 C 0.784496 0.396423 1.435016 0
M  V30 11 H 0.049127 -2.811794 1.921090 0
M  V30 12 H 1.686454 -3.120270 0.127939 0
M  V30 13 H 2.848306 1.669346 -0.666702 0
M  V30 14 H 1.716430 3.462650 0.723642 0
M  V30 15 H 0.044937 2.208325 2.404519 0
M  V30 END ATOM
M  V30 BEGIN BOND
M  V30 1 1 1 2
M  V30 2 2 2 3
M  V30 3 1 3 4
M  V30 4 2 4 5
M  V30 5 1 5 6
M  V30 6 1 6 7
M  V30 7 1 7 8
M  V30 8 2 8 9
M  V30 9 1 9 10
M  V30 10 1 10 2
M  V30 11 2 10 6
M  V30 12 1 3 11
M  V30 13 1 4 12
M  V30 14 1 7 13
M  V30 15 1 8 14
M  V30 16 1 9 15
M  V30 END BOND
M  V30 END CTAB
M  END
>  <Dataset>  (675) 
ChEMBL_Kinases

>  <Ligand_Instance>  (675) 
nan

>  <PDB_ID>  (675) 
nan

>  <Standardized_SMILES>  (675) 
Clc1ccnc2[nH]ccc12

>  <Name>  (675) 
nan

>  <Pocket>  (675) 
nan

>  <ATP_Site>  (675) 
nan

>  <Peripheral>  (675) 
nan

>  <Num_H_Atoms_ProtBoundConf>  (675) 
nan

>  <Num_Resolved_Atoms>  (675) 
nan

>  <Num_Not_Resolved_Atoms>  (675) 
nan

$$$$
CHEMBL4204878
     RDKit          3D

  0  0  0  0  0  0  0  0  0  0999 V3000
M  V30 BEGIN CTAB
M  V30 COUNTS 60 64 0 0 0
M  V30 BEGIN ATOM
M  V30 1 C 0.166607 -2.860159 4.915576 0
M  V30 2 N 1.586679 -2.881398 4.987223 0
M  V30 3 C 2.236999 -1.680942 5.378648 0
M  V30 4 C 2.885255 -0.898157 4.256222 0
M  V30 5 N 2.772582 -1.713170 3.025644 0
M  V30 6 C 2.252329 -1.587182 1.676276 0
M  V30 7 C 2.646708 -0.875358 0.595330 0
M  V30 8 C 1.859363 -0.980891 -0.539231 0
M  V30 9 N 2.349866 -0.182892 -1.641867 0
M  V30 10 C 1.164520 0.375744 -2.256358 0
M  V30 11 C 0.748204 1.521123 -1.557750 0
M  V30 12 C -0.407706 2.052821 -2.146437 0
M  V30 13 C -1.091979 3.279737 -1.601670 0
M  V30 14 C -1.308186 3.061359 -0.091492 0
M  V30 15 C -2.716182 2.580782 0.072376 0
M  V30 16 C -3.359284 2.551194 -1.302127 0
M  V30 17 C -2.453260 3.454648 -2.165286 0
M  V30 18 N -0.638246 1.226727 -3.160751 0
M  V30 19 N 0.253693 0.261770 -3.235438 0
M  V30 20 N 0.771249 -1.765895 -0.514705 0
M  V30 21 C 0.389138 -2.464467 0.551816 0
M  V30 22 S -1.095002 -3.488033 0.497456 0
M  V30 23 C -1.864758 -3.412488 -1.086668 0
M  V30 24 C -2.793573 -2.468991 -1.438898 0
M  V30 25 C -3.345396 -2.502893 -2.697851 0
M  V30 26 C -2.970945 -3.483375 -3.609374 0
M  V30 27 C -2.032010 -4.434720 -3.246957 0
M  V30 28 C -1.479303 -4.394108 -1.979672 0
M  V30 29 N 1.157109 -2.354489 1.645855 0
M  V30 30 C 3.379148 -3.002083 3.349495 0
M  V30 31 C 2.263251 -3.748585 4.097909 0
M  V30 32 H -0.217203 -3.669798 5.606354 0
M  V30 33 H -0.271814 -3.116906 3.929314 0
M  V30 34 H -0.289318 -1.906827 5.226467 0
M  V30 35 H 1.514108 -1.035815 5.889254 0
M  V30 36 H 3.030107 -1.959687 6.131365 0
M  V30 37 H 2.403211 0.074057 4.169547 0
M  V30 38 H 3.954528 -0.737909 4.494118 0
M  V30 39 H 3.535941 -0.321131 0.788984 0
M  V30 40 H 3.344258 -0.083458 -1.873868 0
M  V30 41 H 1.184036 2.019771 -0.670812 0
M  V30 42 H -0.401848 4.105320 -1.677082 0
M  V30 43 H -0.619669 2.285845 0.301321 0
M  V30 44 H -1.145081 3.987828 0.483468 0
M  V30 45 H -3.279045 3.255453 0.746951 0
M  V30 46 H -2.779646 1.518168 0.448856 0
M  V30 47 H -4.377293 2.967434 -1.315518 0
M  V30 48 H -3.358050 1.522737 -1.725800 0
M  V30 49 H -2.577492 3.270713 -3.231769 0
M  V30 50 H -2.769541 4.506191 -1.940094 0
M  V30 51 H -1.438744 1.361684 -3.795412 0
M  V30 52 H -3.051611 -1.724794 -0.677569 0
M  V30 53 H -4.084128 -1.719279 -2.928154 0
M  V30 54 H -3.414926 -3.494773 -4.590571 0
M  V30 55 H -1.736214 -5.208470 -3.940435 0
M  V30 56 H -0.747472 -5.159410 -1.746577 0
M  V30 57 H 3.589842 -3.554602 2.399201 0
M  V30 58 H 4.273616 -2.915651 3.974168 0
M  V30 59 H 2.751205 -4.560254 4.670440 0
M  V30 60 H 1.608050 -4.237034 3.341426 0
M  V30 END ATOM
M  V30 BEGIN BOND
M  V30 1 1 1 2
M  V30 2 1 2 3
M  V30 3 1 3 4
M  V30 4 1 4 5
M  V30 5 1 5 6
M  V30 6 2 6 7
M  V30 7 1 7 8
M  V30 8 1 8 9
M  V30 9 1 9 10
M  V30 10 1 10 11
M  V30 11 2 11 12
M  V30 12 1 12 13
M  V30 13 1 13 14
M  V30 14 1 14 15
M  V30 15 1 15 16
M  V30 16 1 16 17
M  V30 17 1 12 18
M  V30 18 1 18 19
M  V30 19 2 8 20
M  V30 20 1 20 21
M  V30 21 1 21 22
M  V30 22 1 22 23
M  V30 23 2 23 24
M  V30 24 1 24 25
M  V30 25 2 25 26
M  V30 26 1 26 27
M  V30 27 2 27 28
M  V30 28 2 21 29
M  V30 29 1 5 30
M  V30 30 1 30 31
M  V30 31 1 31 2
M  V30 32 1 29 6
M  V30 33 2 19 10
M  V30 34 1 28 23
M  V30 35 1 17 13
M  V30 36 1 1 32
M  V30 37 1 1 33
M  V30 38 1 1 34
M  V30 39 1 3 35
M  V30 40 1 3 36
M  V30 41 1 4 37
M  V30 42 1 4 38
M  V30 43 1 7 39
M  V30 44 1 9 40
M  V30 45 1 11 41
M  V30 46 1 13 42
M  V30 47 1 14 43
M  V30 48 1 14 44
M  V30 49 1 15 45
M  V30 50 1 15 46
M  V30 51 1 16 47
M  V30 52 1 16 48
M  V30 53 1 17 49
M  V30 54 1 17 50
M  V30 55 1 18 51
M  V30 56 1 24 52
M  V30 57 1 25 53
M  V30 58 1 26 54
M  V30 59 1 27 55
M  V30 60 1 28 56
M  V30 61 1 30 57
M  V30 62 1 30 58
M  V30 63 1 31 59
M  V30 64 1 31 60
M  V30 END BOND
M  V30 END CTAB
M  END
>  <Dataset>  (676) 
ChEMBL_Kinases

>  <Ligand_Instance>  (676) 
nan

>  <PDB_ID>  (676) 
nan

>  <Standardized_SMILES>  (676) 
CN1CCN(c2cc(Nc3cc(C4CCCC4)[nH]n3)nc(Sc3ccccc3)n2)CC1

>  <Name>  (676) 
nan

>  <Pocket>  (676) 
nan

>  <ATP_Site>  (676) 
nan

>  <Peripheral>  (676) 
nan

>  <Num_H_Atoms_ProtBoundConf>  (676) 
nan

>  <Num_Resolved_Atoms>  (676) 
nan

>  <Num_Not_Resolved_Atoms>  (676) 
nan

$$$$
CHEMBL4204860
     RDKit          3D

  0  0  0  0  0  0  0  0  0  0999 V3000
M  V30 BEGIN CTAB
M  V30 COUNTS 39 42 0 0 0
M  V30 BEGIN ATOM
M  V30 1 O -0.639175 -2.408912 0.535741 0
M  V30 2 C 0.552990 -2.174602 0.203146 0
M  V30 3 N 1.550202 -3.031397 -0.359551 0
M  V30 4 C 2.753970 -2.316204 -0.566057 0
M  V30 5 C 3.941941 -2.788063 -1.088091 0
M  V30 6 C 4.993848 -1.901960 -1.197984 0
M  V30 7 C 4.873995 -0.586808 -0.802793 0
M  V30 8 F 5.945047 0.234503 -0.936543 0
M  V30 9 C 3.674298 -0.104110 -0.273936 0
M  V30 10 C 2.629277 -0.997503 -0.168301 0
M  V30 11 C 1.260165 -0.895855 0.313848 0
M  V30 12 N 0.775331 0.217236 0.775651 0
M  V30 13 N -0.569632 0.270612 1.236732 0
M  V30 14 C -1.507236 0.547555 0.209809 0
M  V30 15 C -1.148667 1.180476 -0.959512 0
M  V30 16 C -2.046944 1.439340 -1.968433 0
M  V30 17 C -3.371829 1.074846 -1.863122 0
M  V30 18 C -3.777186 0.440846 -0.715957 0
M  V30 19 C -2.840449 0.203150 0.266830 0
M  V30 20 C -0.716048 0.041647 2.607323 0
M  V30 21 C 0.216740 -0.633908 3.345120 0
M  V30 22 C 0.099107 -0.855549 4.697956 0
M  V30 23 C -0.992565 -0.398029 5.404398 0
M  V30 24 C -1.959883 0.288663 4.706227 0
M  V30 25 C -1.787393 0.479971 3.353580 0
M  V30 26 H 1.366864 -4.053620 -0.574901 0
M  V30 27 H 4.059019 -3.808523 -1.402726 0
M  V30 28 H 5.921709 -2.287804 -1.610402 0
M  V30 29 H 3.564021 0.931304 0.042482 0
M  V30 30 H -0.099942 1.487852 -1.083226 0
M  V30 31 H -1.668836 1.949078 -2.864719 0
M  V30 32 H -3.986639 1.328141 -2.715739 0
M  V30 33 H -4.808747 0.159304 -0.638817 0
M  V30 34 H -3.249649 -0.309660 1.124982 0
M  V30 35 H 1.117497 -1.030256 2.851152 0
M  V30 36 H 0.884169 -1.404465 5.226159 0
M  V30 37 H -1.018734 -0.606160 6.452712 0
M  V30 38 H -2.803229 0.638427 5.269452 0
M  V30 39 H -2.600441 1.039633 2.913623 0
M  V30 END ATOM
M  V30 BEGIN BOND
M  V30 1 2 1 2
M  V30 2 1 2 3
M  V30 3 1 3 4
M  V30 4 2 4 5
M  V30 5 1 5 6
M  V30 6 2 6 7
M  V30 7 1 7 8
M  V30 8 1 7 9
M  V30 9 2 9 10
M  V30 10 1 10 11
M  V30 11 2 11 12 CFG=2
M  V30 12 1 12 13
M  V30 13 1 13 14
M  V30 14 2 14 15
M  V30 15 1 15 16
M  V30 16 2 16 17
M  V30 17 1 17 18
M  V30 18 2 18 19
M  V30 19 1 13 20
M  V30 20 2 20 21
M  V30 21 1 21 22
M  V30 22 2 22 23
M  V30 23 1 23 24
M  V30 24 2 24 25
M  V30 25 1 11 2
M  V30 26 1 19 14
M  V30 27 1 25 20
M  V30 28 1 10 4
M  V30 29 1 3 26
M  V30 30 1 5 27
M  V30 31 1 6 28
M  V30 32 1 9 29
M  V30 33 1 15 30
M  V30 34 1 16 31
M  V30 35 1 17 32
M  V30 36 1 18 33
M  V30 37 1 19 34
M  V30 38 1 21 35
M  V30 39 1 22 36
M  V30 40 1 23 37
M  V30 41 1 24 38
M  V30 42 1 25 39
M  V30 END BOND
M  V30 END CTAB
M  END
>  <Dataset>  (677) 
ChEMBL_Kinases

>  <Ligand_Instance>  (677) 
nan

>  <PDB_ID>  (677) 
nan

>  <Standardized_SMILES>  (677) 
O=C1Nc2ccc(F)cc2C1=NN(c1ccccc1)c1ccccc1

>  <Name>  (677) 
nan

>  <Pocket>  (677) 
nan

>  <ATP_Site>  (677) 
nan

>  <Peripheral>  (677) 
nan

>  <Num_H_Atoms_ProtBoundConf>  (677) 
nan

>  <Num_Resolved_Atoms>  (677) 
nan

>  <Num_Not_Resolved_Atoms>  (677) 
nan

$$$$
CHEMBL4204854
     RDKit          3D

  0  0  0  0  0  0  0  0  0  0999 V3000
M  V30 BEGIN CTAB
M  V30 COUNTS 55 59 0 0 0
M  V30 BEGIN ATOM
M  V30 1 O 0.811817 -3.318790 0.208274 0
M  V30 2 C 0.022872 -2.378513 0.529038 0
M  V30 3 N 0.489875 -1.442492 1.530224 0
M  V30 4 C -0.192336 -0.314046 2.069939 0
M  V30 5 C 0.773293 0.793244 2.420832 0
M  V30 6 N 1.872284 0.684194 1.473952 0
M  V30 7 C 2.289287 1.474385 0.367585 0
M  V30 8 N 2.182725 0.820323 -0.796827 0
M  V30 9 C 2.527944 1.439347 -1.953817 0
M  V30 10 N 2.983611 2.709878 -1.989801 0
M  V30 11 C 3.099482 3.386417 -0.834035 0
M  V30 12 N 3.498380 4.613496 -0.450925 0
M  V30 13 C 3.416091 4.778818 0.882284 0
M  V30 14 C 2.930738 3.588882 1.438297 0
M  V30 15 Cl 2.638432 3.252575 3.132392 0
M  V30 16 C 2.750720 2.764583 0.347313 0
M  V30 17 C 2.740612 -0.485347 1.717611 0
M  V30 18 C 1.807421 -1.616632 2.096896 0
M  V30 19 C -1.318772 -2.251141 -0.098711 0
M  V30 20 C -2.402089 -2.263614 0.914271 0
M  V30 21 C -3.509779 -1.480335 1.050684 0
M  V30 22 C -4.383240 -1.691932 2.097198 0
M  V30 23 C -4.203252 -2.673483 3.042205 0
M  V30 24 Cl -5.352327 -2.885361 4.343709 0
M  V30 25 C -3.082160 -3.465050 2.902764 0
M  V30 26 C -2.180526 -3.276035 1.855837 0
M  V30 27 C -1.522832 -3.544924 -0.910179 0
M  V30 28 C -0.734079 -3.406077 -2.168909 0
M  V30 29 N -1.531514 -2.603313 -3.085032 0
M  V30 30 C -2.183712 -1.569392 -2.345600 0
M  V30 31 C -1.408045 -1.141099 -1.092706 0
M  V30 32 H -0.681274 -0.595877 3.034089 0
M  V30 33 H -0.950754 0.116303 1.381374 0
M  V30 34 H 0.207947 1.743669 2.335933 0
M  V30 35 H 1.145520 0.641170 3.469355 0
M  V30 36 H 2.478570 0.994909 -2.959603 0
M  V30 37 H 3.837570 5.364016 -1.112632 0
M  V30 38 H 3.678264 5.674964 1.437068 0
M  V30 39 H 3.298589 -0.794431 0.835663 0
M  V30 40 H 3.421118 -0.321828 2.569971 0
M  V30 41 H 1.685221 -1.639938 3.202281 0
M  V30 42 H 2.210332 -2.601419 1.790511 0
M  V30 43 H -3.587320 -0.735809 0.278687 0
M  V30 44 H -5.240359 -1.036596 2.146952 0
M  V30 45 H -2.955566 -4.236364 3.659174 0
M  V30 46 H -1.346685 -3.977397 1.879744 0
M  V30 47 H -2.610166 -3.665986 -1.038776 0
M  V30 48 H -1.078598 -4.368452 -0.286227 0
M  V30 49 H 0.186612 -2.850305 -1.985727 0
M  V30 50 H -0.442595 -4.374957 -2.606870 0
M  V30 51 H -2.292871 -3.185590 -3.536162 0
M  V30 52 H -2.359363 -0.657778 -2.933821 0
M  V30 53 H -3.187310 -1.886949 -1.969443 0
M  V30 54 H -0.390507 -0.816315 -1.422291 0
M  V30 55 H -1.912217 -0.228543 -0.756769 0
M  V30 END ATOM
M  V30 BEGIN BOND
M  V30 1 2 1 2
M  V30 2 1 2 3
M  V30 3 1 3 4
M  V30 4 1 4 5
M  V30 5 1 5 6
M  V30 6 1 6 7
M  V30 7 2 7 8
M  V30 8 1 8 9
M  V30 9 2 9 10
M  V30 10 1 10 11
M  V30 11 1 11 12
M  V30 12 1 12 13
M  V30 13 2 13 14
M  V30 14 1 14 15
M  V30 15 1 14 16
M  V30 16 1 6 17
M  V30 17 1 17 18
M  V30 18 1 2 19
M  V30 19 1 19 20
M  V30 20 2 20 21
M  V30 21 1 21 22
M  V30 22 2 22 23
M  V30 23 1 23 24
M  V30 24 1 23 25
M  V30 25 2 25 26
M  V30 26 1 19 27
M  V30 27 1 27 28
M  V30 28 1 28 29
M  V30 29 1 29 30
M  V30 30 1 30 31
M  V30 31 1 18 3
M  V30 32 1 31 19
M  V30 33 1 16 7
M  V30 34 1 26 20
M  V30 35 2 16 11
M  V30 36 1 4 32
M  V30 37 1 4 33
M  V30 38 1 5 34
M  V30 39 1 5 35
M  V30 40 1 9 36
M  V30 41 1 12 37
M  V30 42 1 13 38
M  V30 43 1 17 39
M  V30 44 1 17 40
M  V30 45 1 18 41
M  V30 46 1 18 42
M  V30 47 1 21 43
M  V30 48 1 22 44
M  V30 49 1 25 45
M  V30 50 1 26 46
M  V30 51 1 27 47
M  V30 52 1 27 48
M  V30 53 1 28 49
M  V30 54 1 28 50
M  V30 55 1 29 51
M  V30 56 1 30 52
M  V30 57 1 30 53
M  V30 58 1 31 54
M  V30 59 1 31 55
M  V30 END BOND
M  V30 END CTAB
M  END
>  <Dataset>  (678) 
ChEMBL_Kinases

>  <Ligand_Instance>  (678) 
nan

>  <PDB_ID>  (678) 
nan

>  <Standardized_SMILES>  (678) 
O=C(N1CCN(c2ncnc3[nH]cc(Cl)c23)CC1)C1(c2ccc(Cl)cc2)CCNCC1

>  <Name>  (678) 
nan

>  <Pocket>  (678) 
nan

>  <ATP_Site>  (678) 
nan

>  <Peripheral>  (678) 
nan

>  <Num_H_Atoms_ProtBoundConf>  (678) 
nan

>  <Num_Resolved_Atoms>  (678) 
nan

>  <Num_Not_Resolved_Atoms>  (678) 
nan

$$$$
CHEMBL4204838
     RDKit          3D

  0  0  0  0  0  0  0  0  0  0999 V3000
M  V30 BEGIN CTAB
M  V30 COUNTS 50 55 0 0 0
M  V30 BEGIN ATOM
M  V30 1 O -0.699896 0.767655 2.109220 0
M  V30 2 C -0.213192 -0.134308 1.388474 0
M  V30 3 C 1.117402 -0.249140 1.787449 0
M  V30 4 C 2.048268 0.840684 2.003400 0
M  V30 5 C 2.849776 0.894479 3.158715 0
M  V30 6 C 3.729528 1.881068 3.437265 0
M  V30 7 C 3.893260 2.932116 2.563440 0
M  V30 8 C 3.146406 2.958117 1.404895 0
M  V30 9 C 3.298987 4.002048 0.512912 0
M  V30 10 C 2.562347 4.051444 -0.665174 0
M  V30 11 C 1.667773 3.000705 -0.899149 0
M  V30 12 C 1.556207 1.995917 0.013523 0
M  V30 13 C 2.280279 1.930776 1.190325 0
M  V30 14 O 1.816173 -1.163187 0.931874 0
M  V30 15 C 1.078762 -1.820762 -0.027757 0
M  V30 16 C 1.824084 -2.721540 -0.772963 0
M  V30 17 C 1.248207 -3.480255 -1.793921 0
M  V30 18 C -0.109240 -3.365418 -2.111685 0
M  V30 19 C -0.829251 -2.464261 -1.357335 0
M  V30 20 C -0.254624 -1.720982 -0.352462 0
M  V30 21 N -1.009045 -0.792293 0.416511 0
M  V30 22 C -2.398387 -0.560516 0.217600 0
M  V30 23 C -3.177890 -1.424362 1.136396 0
M  V30 24 C -3.505921 -0.904518 2.393992 0
M  V30 25 C -4.226684 -1.612771 3.333284 0
M  V30 26 C -4.664645 -2.892355 3.066530 0
M  V30 27 F -5.374373 -3.666017 3.916391 0
M  V30 28 C -4.364895 -3.445252 1.840004 0
M  V30 29 C -3.643718 -2.701269 0.935101 0
M  V30 30 O -0.395381 -4.224555 -3.148903 0
M  V30 31 C 0.820207 -4.759885 -3.639984 0
M  V30 32 O 1.781143 -4.439622 -2.672581 0
M  V30 33 H 1.081829 -0.838942 2.736204 0
M  V30 34 H 2.777690 0.094506 3.903096 0
M  V30 35 H 4.327567 1.877291 4.346337 0
M  V30 36 H 4.587098 3.737922 2.753966 0
M  V30 37 H 4.008969 4.794062 0.743555 0
M  V30 38 H 2.747484 4.905827 -1.302976 0
M  V30 39 H 1.116136 3.070288 -1.816880 0
M  V30 40 H 0.861292 1.243892 -0.247955 0
M  V30 41 H 2.894178 -2.902669 -0.622143 0
M  V30 42 H -1.878488 -2.331410 -1.568957 0
M  V30 43 H -2.750670 -0.663550 -0.828958 0
M  V30 44 H -2.623336 0.512980 0.477036 0
M  V30 45 H -3.247801 0.076910 2.765081 0
M  V30 46 H -4.501215 -1.251758 4.313123 0
M  V30 47 H -4.679561 -4.436249 1.577511 0
M  V30 48 H -3.424637 -3.154975 -0.016916 0
M  V30 49 H 1.011099 -4.243881 -4.616134 0
M  V30 50 H 0.742222 -5.843425 -3.741115 0
M  V30 END ATOM
M  V30 BEGIN BOND
M  V30 1 2 1 2
M  V30 2 1 2 3
M  V30 3 1 3 4
M  V30 4 2 4 5
M  V30 5 1 5 6
M  V30 6 2 6 7
M  V30 7 1 7 8
M  V30 8 2 8 9
M  V30 9 1 9 10
M  V30 10 2 10 11
M  V30 11 1 11 12
M  V30 12 2 12 13
M  V30 13 1 3 14
M  V30 14 1 14 15
M  V30 15 2 15 16
M  V30 16 1 16 17
M  V30 17 2 17 18
M  V30 18 1 18 19
M  V30 19 2 19 20
M  V30 20 1 20 21
M  V30 21 1 21 22
M  V30 22 1 22 23
M  V30 23 2 23 24
M  V30 24 1 24 25
M  V30 25 2 25 26
M  V30 26 1 26 27
M  V30 27 1 26 28
M  V30 28 2 28 29
M  V30 29 1 18 30
M  V30 30 1 30 31
M  V30 31 1 31 32
M  V30 32 1 21 2
M  V30 33 1 29 23
M  V30 34 1 13 4
M  V30 35 1 20 15
M  V30 36 1 13 8
M  V30 37 1 32 17
M  V30 38 1 3 33
M  V30 39 1 5 34
M  V30 40 1 6 35
M  V30 41 1 7 36
M  V30 42 1 9 37
M  V30 43 1 10 38
M  V30 44 1 11 39
M  V30 45 1 12 40
M  V30 46 1 16 41
M  V30 47 1 19 42
M  V30 48 1 22 43
M  V30 49 1 22 44
M  V30 50 1 24 45
M  V30 51 1 25 46
M  V30 52 1 28 47
M  V30 53 1 29 48
M  V30 54 1 31 49
M  V30 55 1 31 50
M  V30 END BOND
M  V30 END CTAB
M  END
>  <Dataset>  (679) 
ChEMBL_Kinases

>  <Ligand_Instance>  (679) 
nan

>  <PDB_ID>  (679) 
nan

>  <Standardized_SMILES>  (679) 
O=C1C(c2cccc3ccccc23)Oc2cc3c(cc2N1Cc1ccc(F)cc1)OCO3

>  <Name>  (679) 
nan

>  <Pocket>  (679) 
nan

>  <ATP_Site>  (679) 
nan

>  <Peripheral>  (679) 
nan

>  <Num_H_Atoms_ProtBoundConf>  (679) 
nan

>  <Num_Resolved_Atoms>  (679) 
nan

>  <Num_Not_Resolved_Atoms>  (679) 
nan

$$$$
CHEMBL4206052
     RDKit          3D

  0  0  0  0  0  0  0  0  0  0999 V3000
M  V30 BEGIN CTAB
M  V30 COUNTS 70 73 0 0 0
M  V30 BEGIN ATOM
M  V30 1 C 1.676824 -2.096100 5.778939 0
M  V30 2 O 0.776876 -2.150173 4.663322 0
M  V30 3 C 0.870859 -1.215585 3.644295 0
M  V30 4 C 1.823166 -0.215593 3.671562 0
M  V30 5 C 1.849107 0.670954 2.621726 0
M  V30 6 C 2.868266 1.699805 2.700229 0
M  V30 7 O 3.777553 1.724908 3.583447 0
M  V30 8 N 2.983176 2.794065 1.823103 0
M  V30 9 C 3.757488 3.950113 1.540895 0
M  V30 10 C 4.205491 4.122077 0.134465 0
M  V30 11 C 3.269816 4.992252 -0.674025 0
M  V30 12 N 1.965143 4.882312 -0.084941 0
M  V30 13 C 0.862311 5.125528 -0.950290 0
M  V30 14 C 1.973368 5.699523 1.112486 0
M  V30 15 C 2.958157 5.134449 2.063888 0
M  V30 16 C 0.969825 0.586303 1.569636 0
M  V30 17 C 0.032634 -0.425887 1.576915 0
M  V30 18 C -0.057143 -1.368238 2.612576 0
M  V30 19 N -1.075625 -2.388134 2.574985 0
M  V30 20 C -1.899851 -2.426570 1.391444 0
M  V30 21 N -2.768494 -1.451205 1.082649 0
M  V30 22 C -3.553533 -1.445007 -0.006000 0
M  V30 23 C -3.458149 -2.528551 -0.875892 0
M  V30 24 C -2.570319 -3.546101 -0.576888 0
M  V30 25 N -1.807077 -3.486320 0.541454 0
M  V30 26 N -2.445662 -4.689587 -1.431968 0
M  V30 27 C -2.040216 -5.971894 -0.898260 0
M  V30 28 C -0.762482 -6.497403 -1.503037 0
M  V30 29 C -3.140149 -6.952993 -1.263684 0
M  V30 30 C -2.741825 -4.537924 -2.856953 0 CFG=2
M  V30 31 C -1.704703 -3.667790 -3.531925 0
M  V30 32 C -4.051230 -3.796498 -2.927526 0
M  V30 33 O -5.060361 -4.058497 -3.666867 0
M  V30 34 N -4.215401 -2.648821 -2.070359 0
M  V30 35 C -5.154488 -1.565727 -2.389442 0
M  V30 36 H 2.737041 -2.075716 5.449548 0
M  V30 37 H 1.532532 -2.977566 6.437112 0
M  V30 38 H 1.434576 -1.166135 6.326361 0
M  V30 39 H 2.501371 -0.167295 4.503403 0
M  V30 40 H 2.245603 2.836089 1.053741 0
M  V30 41 H 4.675557 3.942112 2.203305 0
M  V30 42 H 4.149376 3.098093 -0.342272 0
M  V30 43 H 5.224818 4.547594 0.103139 0
M  V30 44 H 3.650122 6.034941 -0.690122 0
M  V30 45 H 3.246544 4.602256 -1.706111 0
M  V30 46 H 0.152614 4.257582 -0.814500 0
M  V30 47 H 1.093719 5.174309 -2.020522 0
M  V30 48 H 0.331420 6.045361 -0.589171 0
M  V30 49 H 2.225686 6.732419 0.794853 0
M  V30 50 H 0.952351 5.632449 1.542992 0
M  V30 51 H 3.664266 5.932242 2.390617 0
M  V30 52 H 2.435119 4.789397 2.988851 0
M  V30 53 H 0.992837 1.281006 0.751331 0
M  V30 54 H -0.643754 -0.459588 0.728866 0
M  V30 55 H -1.148169 -3.020415 3.391842 0
M  V30 56 H -4.251789 -0.649010 -0.244331 0
M  V30 57 H -1.994972 -5.894901 0.195527 0
M  V30 58 H -0.346001 -7.244913 -0.766204 0
M  V30 59 H 0.025976 -5.733286 -1.608992 0
M  V30 60 H -1.040005 -6.983851 -2.468056 0
M  V30 61 H -2.922702 -7.340223 -2.274009 0
M  V30 62 H -3.194513 -7.728834 -0.497316 0
M  V30 63 H -4.112334 -6.409367 -1.283649 0
M  V30 64 H -2.836438 -5.543306 -3.285495 0
M  V30 65 H -2.097887 -3.471241 -4.567347 0
M  V30 66 H -0.729580 -4.190482 -3.642877 0
M  V30 67 H -1.572234 -2.767767 -2.932956 0
M  V30 68 H -5.582830 -1.821423 -3.379297 0
M  V30 69 H -5.975203 -1.564865 -1.649102 0
M  V30 70 H -4.654698 -0.581683 -2.460617 0
M  V30 END ATOM
M  V30 BEGIN BOND
M  V30 1 1 1 2
M  V30 2 1 2 3
M  V30 3 2 3 4
M  V30 4 1 4 5
M  V30 5 1 5 6
M  V30 6 2 6 7
M  V30 7 1 6 8
M  V30 8 1 8 9
M  V30 9 1 9 10
M  V30 10 1 10 11
M  V30 11 1 11 12
M  V30 12 1 12 13
M  V30 13 1 12 14
M  V30 14 1 14 15
M  V30 15 2 5 16
M  V30 16 1 16 17
M  V30 17 2 17 18
M  V30 18 1 18 19
M  V30 19 1 19 20
M  V30 20 2 20 21
M  V30 21 1 21 22
M  V30 22 2 22 23
M  V30 23 1 23 24
M  V30 24 2 24 25
M  V30 25 1 24 26
M  V30 26 1 26 27
M  V30 27 1 27 28
M  V30 28 1 27 29
M  V30 29 1 26 30
M  V30 30 1 30 31
M  V30 31 1 30 32
M  V30 32 2 32 33
M  V30 33 1 32 34
M  V30 34 1 34 35
M  V30 35 1 18 3
M  V30 36 1 25 20
M  V30 37 1 15 9
M  V30 38 1 34 23
M  V30 39 1 1 36
M  V30 40 1 1 37
M  V30 41 1 1 38
M  V30 42 1 4 39
M  V30 43 1 8 40
M  V30 44 1 9 41
M  V30 45 1 10 42
M  V30 46 1 10 43
M  V30 47 1 11 44
M  V30 48 1 11 45
M  V30 49 1 13 46
M  V30 50 1 13 47
M  V30 51 1 13 48
M  V30 52 1 14 49
M  V30 53 1 14 50
M  V30 54 1 15 51
M  V30 55 1 15 52
M  V30 56 1 16 53
M  V30 57 1 17 54
M  V30 58 1 19 55
M  V30 59 1 22 56
M  V30 60 1 27 57
M  V30 61 1 28 58
M  V30 62 1 28 59
M  V30 63 1 28 60
M  V30 64 1 29 61
M  V30 65 1 29 62
M  V30 66 1 29 63
M  V30 67 1 30 64 CFG=3
M  V30 68 1 31 65
M  V30 69 1 31 66
M  V30 70 1 31 67
M  V30 71 1 35 68
M  V30 72 1 35 69
M  V30 73 1 35 70
M  V30 END BOND
M  V30 END CTAB
M  END
>  <Dataset>  (680) 
ChEMBL_Kinases

>  <Ligand_Instance>  (680) 
nan

>  <PDB_ID>  (680) 
nan

>  <Standardized_SMILES>  (680) 
COc1cc(C(=O)NC2CCN(C)CC2)ccc1Nc1ncc2c(n1)N(C(C)C)[C@H](C)C(=O)N2C

>  <Name>  (680) 
nan

>  <Pocket>  (680) 
nan

>  <ATP_Site>  (680) 
nan

>  <Peripheral>  (680) 
nan

>  <Num_H_Atoms_ProtBoundConf>  (680) 
nan

>  <Num_Resolved_Atoms>  (680) 
nan

>  <Num_Not_Resolved_Atoms>  (680) 
nan

$$$$
CHEMBL4204772
     RDKit          3D

  0  0  0  0  0  0  0  0  0  0999 V3000
M  V30 BEGIN CTAB
M  V30 COUNTS 34 37 0 0 0
M  V30 BEGIN ATOM
M  V30 1 F 1.830304 -1.652734 1.872772 0
M  V30 2 C 1.032669 -2.757041 1.809180 0
M  V30 3 C 0.850402 -3.336359 3.044690 0
M  V30 4 N 0.075729 -4.451366 3.057288 0
M  V30 5 C -0.467968 -4.942489 1.931250 0
M  V30 6 C -0.291732 -4.371131 0.690252 0
M  V30 7 C 0.500151 -3.215752 0.622440 0
M  V30 8 N 0.757941 -2.553109 -0.613953 0
M  V30 9 C 0.190772 -1.270183 -0.516739 0
M  V30 10 N 0.677846 -0.167077 0.119045 0
M  V30 11 C 0.025820 1.001770 0.129024 0
M  V30 12 C 0.636850 2.140607 0.870263 0
M  V30 13 C 1.836587 1.914194 1.524183 0
M  V30 14 C 2.403881 2.995536 2.227926 0
M  V30 15 C 1.628867 4.123354 2.132051 0
M  V30 16 C 0.439243 4.397633 1.500027 0
M  V30 17 N -0.048433 3.294517 0.838073 0
M  V30 18 N -1.164644 1.154308 -0.499888 0
M  V30 19 N -1.762269 0.149224 -1.167946 0
M  V30 20 C -2.900777 0.027377 -1.862235 0
M  V30 21 C -2.932802 -1.270818 -2.306780 0
M  V30 22 C -1.784185 -1.856108 -1.837441 0
M  V30 23 C -1.017357 -0.948676 -1.098866 0
M  V30 24 H 1.288332 -2.947340 3.977103 0
M  V30 25 H -1.087134 -5.853092 2.011593 0
M  V30 26 H -0.735767 -4.780929 -0.204336 0
M  V30 27 H 1.285941 -3.063333 -1.360247 0
M  V30 28 H 2.349444 0.969279 1.524023 0
M  V30 29 H 3.317879 2.950163 2.766155 0
M  V30 30 H 2.061276 4.985177 2.678498 0
M  V30 31 H -0.011596 5.360547 1.544203 0
M  V30 32 H -3.545673 0.904997 -1.944355 0
M  V30 33 H -3.793173 -1.555817 -2.893058 0
M  V30 34 H -1.648029 -2.918814 -2.105951 0
M  V30 END ATOM
M  V30 BEGIN BOND
M  V30 1 1 1 2
M  V30 2 2 2 3
M  V30 3 1 3 4
M  V30 4 2 4 5
M  V30 5 1 5 6
M  V30 6 2 6 7
M  V30 7 1 7 8
M  V30 8 1 8 9
M  V30 9 2 9 10
M  V30 10 1 10 11
M  V30 11 1 11 12
M  V30 12 2 12 13
M  V30 13 1 13 14
M  V30 14 2 14 15
M  V30 15 1 15 16
M  V30 16 2 16 17
M  V30 17 2 11 18
M  V30 18 1 18 19
M  V30 19 1 19 20
M  V30 20 2 20 21
M  V30 21 1 21 22
M  V30 22 2 22 23
M  V30 23 1 7 2
M  V30 24 1 23 9
M  V30 25 1 17 12
M  V30 26 1 23 19
M  V30 27 1 3 24
M  V30 28 1 5 25
M  V30 29 1 6 26
M  V30 30 1 8 27
M  V30 31 1 13 28
M  V30 32 1 14 29
M  V30 33 1 15 30
M  V30 34 1 16 31
M  V30 35 1 20 32
M  V30 36 1 21 33
M  V30 37 1 22 34
M  V30 END BOND
M  V30 END CTAB
M  END
>  <Dataset>  (681) 
ChEMBL_Kinases

>  <Ligand_Instance>  (681) 
nan

>  <PDB_ID>  (681) 
nan

>  <Standardized_SMILES>  (681) 
Fc1cnccc1Nc1nc(-c2ccccn2)nn2cccc12

>  <Name>  (681) 
nan

>  <Pocket>  (681) 
nan

>  <ATP_Site>  (681) 
nan

>  <Peripheral>  (681) 
nan

>  <Num_H_Atoms_ProtBoundConf>  (681) 
nan

>  <Num_Resolved_Atoms>  (681) 
nan

>  <Num_Not_Resolved_Atoms>  (681) 
nan

$$$$
CHEMBL4204752
     RDKit          3D

  0  0  0  0  0  0  0  0  0  0999 V3000
M  V30 BEGIN CTAB
M  V30 COUNTS 44 47 0 0 0
M  V30 BEGIN ATOM
M  V30 1 C 0.416333 -1.643479 3.551875 0
M  V30 2 C -0.291180 -1.783790 2.205003 0
M  V30 3 C -0.944482 -3.146536 2.177458 0
M  V30 4 N 0.761573 -1.785148 1.206966 0
M  V30 5 C 1.508843 -0.572144 0.967663 0
M  V30 6 C 2.765008 -0.519894 0.483585 0
M  V30 7 C 3.286773 0.770616 0.336433 0
M  V30 8 C 4.589809 1.336429 -0.143070 0
M  V30 9 C 4.755357 2.676952 -0.149487 0
M  V30 10 C 6.019250 3.049672 -0.622163 0
M  V30 11 N 6.949850 2.141256 -1.021014 0
M  V30 12 C 6.692490 0.821001 -0.978228 0
M  V30 13 C 5.461098 0.349122 -0.522377 0
M  V30 14 S 1.893760 1.902816 0.923532 0
M  V30 15 C 0.836334 0.567666 1.276227 0
M  V30 16 C -0.564357 0.532311 1.818505 0
M  V30 17 O -1.050998 1.666400 2.053857 0
M  V30 18 N -1.249855 -0.711989 2.033372 0
M  V30 19 C -2.678349 -0.672173 2.039855 0
M  V30 20 C -3.293846 -0.876802 0.698970 0
M  V30 21 C -3.521829 0.250121 -0.069603 0
M  V30 22 C -4.084476 0.264605 -1.340945 0
M  V30 23 C -4.444537 -0.967967 -1.873794 0
M  V30 24 C -4.227503 -2.125743 -1.122925 0
M  V30 25 C -3.665760 -2.076007 0.131864 0
M  V30 26 H 0.571850 -2.611400 4.056243 0
M  V30 27 H 1.431572 -1.185138 3.433598 0
M  V30 28 H -0.149534 -0.904899 4.181135 0
M  V30 29 H -0.372738 -3.886145 2.780374 0
M  V30 30 H -1.018589 -3.588675 1.166372 0
M  V30 31 H -1.970306 -3.130222 2.601696 0
M  V30 32 H 0.989586 -2.666127 0.650213 0
M  V30 33 H 3.440267 -1.305547 0.187891 0
M  V30 34 H 4.020660 3.388241 0.165147 0
M  V30 35 H 6.283280 4.116189 -0.678424 0
M  V30 36 H 7.439497 0.106123 -1.297775 0
M  V30 37 H 5.250304 -0.709160 -0.486340 0
M  V30 38 H -3.012379 0.310931 2.428601 0
M  V30 39 H -3.092437 -1.412752 2.781427 0
M  V30 40 H -3.247509 1.239376 0.325019 0
M  V30 41 H -4.225800 1.192535 -1.869217 0
M  V30 42 H -4.886858 -1.023047 -2.858220 0
M  V30 43 H -4.490488 -3.091608 -1.497289 0
M  V30 44 H -3.481798 -2.956788 0.745577 0
M  V30 END ATOM
M  V30 BEGIN BOND
M  V30 1 1 1 2
M  V30 2 1 2 3
M  V30 3 1 2 4
M  V30 4 1 4 5
M  V30 5 1 5 6
M  V30 6 2 6 7
M  V30 7 1 7 8
M  V30 8 2 8 9
M  V30 9 1 9 10
M  V30 10 2 10 11
M  V30 11 1 11 12
M  V30 12 2 12 13
M  V30 13 1 7 14
M  V30 14 1 14 15
M  V30 15 1 15 16
M  V30 16 2 16 17
M  V30 17 1 16 18
M  V30 18 1 18 19
M  V30 19 1 19 20
M  V30 20 2 20 21
M  V30 21 1 21 22
M  V30 22 2 22 23
M  V30 23 1 23 24
M  V30 24 2 24 25
M  V30 25 1 18 2
M  V30 26 1 25 20
M  V30 27 2 15 5
M  V30 28 1 13 8
M  V30 29 1 1 26
M  V30 30 1 1 27
M  V30 31 1 1 28
M  V30 32 1 3 29
M  V30 33 1 3 30
M  V30 34 1 3 31
M  V30 35 1 4 32
M  V30 36 1 6 33
M  V30 37 1 9 34
M  V30 38 1 10 35
M  V30 39 1 12 36
M  V30 40 1 13 37
M  V30 41 1 19 38
M  V30 42 1 19 39
M  V30 43 1 21 40
M  V30 44 1 22 41
M  V30 45 1 23 42
M  V30 46 1 24 43
M  V30 47 1 25 44
M  V30 END BOND
M  V30 END CTAB
M  END
>  <Dataset>  (682) 
ChEMBL_Kinases

>  <Ligand_Instance>  (682) 
nan

>  <PDB_ID>  (682) 
nan

>  <Standardized_SMILES>  (682) 
CC1(C)Nc2cc(-c3ccncc3)sc2C(=O)N1Cc1ccccc1

>  <Name>  (682) 
nan

>  <Pocket>  (682) 
nan

>  <ATP_Site>  (682) 
nan

>  <Peripheral>  (682) 
nan

>  <Num_H_Atoms_ProtBoundConf>  (682) 
nan

>  <Num_Resolved_Atoms>  (682) 
nan

>  <Num_Not_Resolved_Atoms>  (682) 
nan

$$$$
CHEMBL4204735
     RDKit          3D

  0  0  0  0  0  0  0  0  0  0999 V3000
M  V30 BEGIN CTAB
M  V30 COUNTS 24 24 0 0 0
M  V30 BEGIN ATOM
M  V30 1 C 2.434901 1.354138 3.556714 0
M  V30 2 N 2.450916 0.432327 2.437706 0
M  V30 3 C 1.443095 0.052475 1.506050 0
M  V30 4 C 0.187538 0.613991 1.609829 0
M  V30 5 C -0.749320 0.209566 0.681039 0
M  V30 6 C -0.485523 -0.707002 -0.316663 0
M  V30 7 C -1.493769 -1.127366 -1.297977 0
M  V30 8 C -2.855575 -0.504103 -1.167915 0
M  V30 9 O -1.156703 -1.974181 -2.176487 0
M  V30 10 C 0.795546 -1.219700 -0.348953 0
M  V30 11 C 1.790887 -0.869807 0.540334 0
M  V30 12 N 3.108075 -1.410096 0.491105 0
M  V30 13 H 1.426015 1.811038 3.645028 0
M  V30 14 H 3.142980 2.199671 3.439645 0
M  V30 15 H 2.579567 0.796051 4.504086 0
M  V30 16 H 3.406723 0.058786 2.424619 0
M  V30 17 H -0.084094 1.331198 2.360252 0
M  V30 18 H -1.737678 0.648022 0.758341 0
M  V30 19 H -3.299612 -0.865144 -0.223113 0
M  V30 20 H -2.691842 0.600041 -1.044683 0
M  V30 21 H -3.476669 -0.714128 -2.059764 0
M  V30 22 H 1.039417 -1.942344 -1.118936 0
M  V30 23 H 3.223151 -2.381620 0.903725 0
M  V30 24 H 3.854115 -0.800065 0.050029 0
M  V30 END ATOM
M  V30 BEGIN BOND
M  V30 1 1 1 2
M  V30 2 1 2 3
M  V30 3 2 3 4
M  V30 4 1 4 5
M  V30 5 2 5 6
M  V30 6 1 6 7
M  V30 7 1 7 8
M  V30 8 2 7 9
M  V30 9 1 6 10
M  V30 10 2 10 11
M  V30 11 1 11 12
M  V30 12 1 11 3
M  V30 13 1 1 13
M  V30 14 1 1 14
M  V30 15 1 1 15
M  V30 16 1 2 16
M  V30 17 1 4 17
M  V30 18 1 5 18
M  V30 19 1 8 19
M  V30 20 1 8 20
M  V30 21 1 8 21
M  V30 22 1 10 22
M  V30 23 1 12 23
M  V30 24 1 12 24
M  V30 END BOND
M  V30 END CTAB
M  END
>  <Dataset>  (683) 
ChEMBL_Kinases

>  <Ligand_Instance>  (683) 
nan

>  <PDB_ID>  (683) 
nan

>  <Standardized_SMILES>  (683) 
CNc1ccc(C(C)=O)cc1N

>  <Name>  (683) 
nan

>  <Pocket>  (683) 
nan

>  <ATP_Site>  (683) 
nan

>  <Peripheral>  (683) 
nan

>  <Num_H_Atoms_ProtBoundConf>  (683) 
nan

>  <Num_Resolved_Atoms>  (683) 
nan

>  <Num_Not_Resolved_Atoms>  (683) 
nan

$$$$
CHEMBL4784132
     RDKit          3D

  0  0  0  0  0  0  0  0  0  0999 V3000
M  V30 BEGIN CTAB
M  V30 COUNTS 66 69 0 0 0
M  V30 BEGIN ATOM
M  V30 1 C 1.577481 -4.957003 -0.792595 0
M  V30 2 C 0.670729 -4.306252 -1.801337 0
M  V30 3 C 1.176514 -2.945227 -2.251110 0
M  V30 4 S 0.064713 -2.210290 -3.414616 0
M  V30 5 O -1.297554 -1.997755 -2.775821 0
M  V30 6 O -0.145106 -3.137028 -4.590023 0
M  V30 7 N 0.620751 -0.678902 -3.939463 0
M  V30 8 C 0.942666 0.612182 -3.474863 0
M  V30 9 C 2.019593 0.782183 -2.644964 0
M  V30 10 C 2.351054 2.038773 -2.214632 0
M  V30 11 C 1.594104 3.108983 -2.624994 0
M  V30 12 F 1.841151 4.402598 -2.252254 0
M  V30 13 C 0.510772 3.022359 -3.450208 0
M  V30 14 C -0.349191 4.036529 -4.044175 0
M  V30 15 O -0.113665 5.210268 -4.427345 0
M  V30 16 C -1.774308 3.736168 -4.279750 0
M  V30 17 N -2.645899 4.056051 -5.221064 0
M  V30 18 N -3.861513 3.602360 -4.977826 0
M  V30 19 C -3.866787 2.932911 -3.816244 0
M  V30 20 N -4.831526 2.304683 -3.119858 0
M  V30 21 C -4.596244 1.706290 -1.926639 0
M  V30 22 C -3.323894 1.733953 -1.393645 0
M  V30 23 C -2.909139 1.125916 -0.112688 0
M  V30 24 C -3.406637 -0.026213 0.447481 0
M  V30 25 C -2.944048 -0.476241 1.663686 0
M  V30 26 C -1.973593 0.199158 2.369834 0
M  V30 27 S -1.266197 -0.258951 3.904813 0
M  V30 28 O -2.144518 -1.322528 4.507343 0
M  V30 29 O -1.165178 0.914961 4.828106 0
M  V30 30 N 0.275420 -0.992908 3.654976 0
M  V30 31 C 0.109240 -2.184970 2.868883 0
M  V30 32 C 1.431125 -2.882421 2.607192 0
M  V30 33 O 2.056640 -3.275518 3.778833 0
M  V30 34 C 2.362721 -1.935203 1.840192 0
M  V30 35 O 3.560206 -2.570586 1.530128 0
M  V30 36 C -1.449431 1.377596 1.823291 0
M  V30 37 C -1.917762 1.837696 0.586786 0
M  V30 38 C -2.366192 2.385247 -2.141026 0
M  V30 39 C -2.547750 3.011596 -3.363678 0
M  V30 40 C 0.197022 1.715101 -3.874600 0
M  V30 41 F -0.838294 1.412418 -4.719099 0
M  V30 42 H 2.082335 -5.847346 -1.213770 0
M  V30 43 H 2.369758 -4.295025 -0.400559 0
M  V30 44 H 1.010212 -5.318183 0.100523 0
M  V30 45 H 0.559716 -4.941786 -2.725261 0
M  V30 46 H -0.334421 -4.187726 -1.362091 0
M  V30 47 H 2.206377 -2.971005 -2.612339 0
M  V30 48 H 1.135028 -2.303956 -1.335778 0
M  V30 49 H 0.821979 -0.589393 -4.986342 0
M  V30 50 H 2.600846 -0.089107 -2.333399 0
M  V30 51 H 3.190764 2.216341 -1.563070 0
M  V30 52 H -4.678264 3.771103 -5.627873 0
M  V30 53 H -5.350924 1.194809 -1.346187 0
M  V30 54 H -4.157270 -0.539842 -0.104272 0
M  V30 55 H -3.312972 -1.376930 2.126919 0
M  V30 56 H 0.720673 -1.204581 4.569959 0
M  V30 57 H -0.524542 -2.882690 3.464257 0
M  V30 58 H -0.350511 -1.961688 1.890375 0
M  V30 59 H 1.245418 -3.760564 1.966229 0
M  V30 60 H 2.787640 -2.630605 3.969663 0
M  V30 61 H 2.623346 -1.083263 2.523457 0
M  V30 62 H 1.845023 -1.515527 0.968623 0
M  V30 63 H 4.109294 -1.889648 1.059262 0
M  V30 64 H -0.667011 1.958007 2.344426 0
M  V30 65 H -1.441518 2.775932 0.256576 0
M  V30 66 H -1.381196 2.412437 -1.708443 0
M  V30 END ATOM
M  V30 BEGIN BOND
M  V30 1 1 1 2
M  V30 2 1 2 3
M  V30 3 1 3 4
M  V30 4 2 4 5
M  V30 5 2 4 6
M  V30 6 1 4 7
M  V30 7 1 7 8
M  V30 8 2 8 9
M  V30 9 1 9 10
M  V30 10 2 10 11
M  V30 11 1 11 12
M  V30 12 1 11 13
M  V30 13 1 13 14
M  V30 14 2 14 15
M  V30 15 1 14 16
M  V30 16 2 16 17
M  V30 17 1 17 18
M  V30 18 1 18 19
M  V30 19 2 19 20
M  V30 20 1 20 21
M  V30 21 2 21 22
M  V30 22 1 22 23
M  V30 23 2 23 24
M  V30 24 1 24 25
M  V30 25 2 25 26
M  V30 26 1 26 27
M  V30 27 2 27 28
M  V30 28 2 27 29
M  V30 29 1 27 30
M  V30 30 1 30 31
M  V30 31 1 31 32
M  V30 32 1 32 33
M  V30 33 1 32 34
M  V30 34 1 34 35
M  V30 35 1 26 36
M  V30 36 2 36 37
M  V30 37 1 22 38
M  V30 38 2 38 39
M  V30 39 2 13 40
M  V30 40 1 40 41
M  V30 41 1 40 8
M  V30 42 1 39 16
M  V30 43 1 39 19
M  V30 44 1 37 23
M  V30 45 1 1 42
M  V30 46 1 1 43
M  V30 47 1 1 44
M  V30 48 1 2 45
M  V30 49 1 2 46
M  V30 50 1 3 47
M  V30 51 1 3 48
M  V30 52 1 7 49
M  V30 53 1 9 50
M  V30 54 1 10 51
M  V30 55 1 18 52
M  V30 56 1 21 53
M  V30 57 1 24 54
M  V30 58 1 25 55
M  V30 59 1 30 56
M  V30 60 1 31 57
M  V30 61 1 31 58
M  V30 62 1 32 59
M  V30 63 1 33 60
M  V30 64 1 34 61
M  V30 65 1 34 62
M  V30 66 1 35 63
M  V30 67 1 36 64
M  V30 68 1 37 65
M  V30 69 1 38 66
M  V30 END BOND
M  V30 END CTAB
M  END
>  <Dataset>  (684) 
ChEMBL_Kinases

>  <Ligand_Instance>  (684) 
nan

>  <PDB_ID>  (684) 
nan

>  <Standardized_SMILES>  (684) 
CCCS(=O)(=O)Nc1ccc(F)c(C(=O)c2n[nH]c3ncc(-c4ccc(S(=O)(=O)NCC(O)CO)cc4)cc23)c1F

>  <Name>  (684) 
nan

>  <Pocket>  (684) 
nan

>  <ATP_Site>  (684) 
nan

>  <Peripheral>  (684) 
nan

>  <Num_H_Atoms_ProtBoundConf>  (684) 
nan

>  <Num_Resolved_Atoms>  (684) 
nan

>  <Num_Not_Resolved_Atoms>  (684) 
nan

$$$$
CHEMBL4784139
     RDKit          3D

  0  0  0  0  0  0  0  0  0  0999 V3000
M  V30 BEGIN CTAB
M  V30 COUNTS 59 62 0 0 0
M  V30 BEGIN ATOM
M  V30 1 C 4.064007 -1.055009 2.958596 0
M  V30 2 C 2.904347 -1.698976 3.669651 0
M  V30 3 O 1.842464 -2.038017 2.800873 0
M  V30 4 C 1.163387 -1.108427 2.066737 0
M  V30 5 C 1.293253 0.247802 1.977595 0
M  V30 6 C 0.466283 0.962144 1.150628 0
M  V30 7 C 0.599235 2.383263 1.045963 0
M  V30 8 O 1.621138 2.423884 0.324705 0
M  V30 9 N 0.556729 3.763818 1.064511 0
M  V30 10 C 1.492193 4.627539 0.396917 0
M  V30 11 C 0.791101 5.759234 -0.331528 0
M  V30 12 N -0.631195 5.763125 -0.051835 0
M  V30 13 C -1.331320 4.875217 -0.920739 0
M  V30 14 C -0.925951 5.635077 1.337970 0
M  V30 15 C -0.541705 4.270317 1.829748 0
M  V30 16 C -0.531953 0.432894 0.361323 0
M  V30 17 C -0.672586 -0.968059 0.448238 0
M  V30 18 C 0.185555 -1.693617 1.302124 0
M  V30 19 N -0.241454 -2.999932 1.083039 0
M  V30 20 C -0.841726 -4.184756 0.722339 0
M  V30 21 N -0.484466 -4.662094 -0.515209 0
M  V30 22 C -1.014297 -5.804382 -1.005377 0
M  V30 23 O -0.724013 -6.365725 -2.234310 0
M  V30 24 C 0.160178 -5.838202 -3.166414 0
M  V30 25 C -0.212981 -4.457248 -3.647855 0
M  V30 26 C -1.909233 -6.399975 -0.151118 0
M  V30 27 C -2.619913 -7.564101 -0.333678 0
M  V30 28 C -3.392705 -7.788500 0.777784 0
M  V30 29 N -3.200577 -6.818553 1.650499 0
M  V30 30 C -2.313121 -5.986207 1.093694 0
M  V30 31 N -1.739557 -4.824691 1.524906 0
M  V30 32 H 3.837088 -0.778194 1.902298 0
M  V30 33 H 4.534931 -0.234171 3.542408 0
M  V30 34 H 4.867027 -1.840006 2.873590 0
M  V30 35 H 2.555185 -0.915449 4.415228 0
M  V30 36 H 3.255715 -2.574321 4.234508 0
M  V30 37 H 2.067911 0.651998 2.589517 0
M  V30 38 H 2.014264 4.055617 -0.397521 0
M  V30 39 H 2.266604 4.998366 1.074894 0
M  V30 40 H 0.948674 5.714728 -1.426241 0
M  V30 41 H 1.210450 6.707651 0.061382 0
M  V30 42 H -2.337782 4.684232 -0.525566 0
M  V30 43 H -0.733108 3.926982 -1.004809 0
M  V30 44 H -1.402814 5.336777 -1.943479 0
M  V30 45 H -0.371355 6.451771 1.868219 0
M  V30 46 H -2.028807 5.800618 1.442163 0
M  V30 47 H -1.476126 3.648404 1.741682 0
M  V30 48 H -0.303938 4.370949 2.925145 0
M  V30 49 H -1.150923 1.071713 -0.268045 0
M  V30 50 H -1.491617 -1.298068 -0.212604 0
M  V30 51 H 0.491270 -3.531145 1.663831 0
M  V30 52 H 0.124753 -6.533661 -4.057076 0
M  V30 53 H 1.183165 -5.832852 -2.743439 0
M  V30 54 H -0.117412 -4.378923 -4.765018 0
M  V30 55 H -1.263109 -4.198231 -3.421544 0
M  V30 56 H 0.456855 -3.731202 -3.173561 0
M  V30 57 H -2.585885 -8.211474 -1.204898 0
M  V30 58 H -4.079235 -8.618138 0.977609 0
M  V30 59 H -3.614032 -6.646751 2.611096 0
M  V30 END ATOM
M  V30 BEGIN BOND
M  V30 1 1 1 2
M  V30 2 1 2 3
M  V30 3 1 3 4
M  V30 4 2 4 5
M  V30 5 1 5 6
M  V30 6 1 6 7
M  V30 7 2 7 8
M  V30 8 1 7 9
M  V30 9 1 9 10
M  V30 10 1 10 11
M  V30 11 1 11 12
M  V30 12 1 12 13
M  V30 13 1 12 14
M  V30 14 1 14 15
M  V30 15 2 6 16
M  V30 16 1 16 17
M  V30 17 2 17 18
M  V30 18 1 18 19
M  V30 19 1 19 20
M  V30 20 2 20 21
M  V30 21 1 21 22
M  V30 22 1 22 23
M  V30 23 1 23 24
M  V30 24 1 24 25
M  V30 25 2 22 26
M  V30 26 1 26 27
M  V30 27 2 27 28
M  V30 28 1 28 29
M  V30 29 1 29 30
M  V30 30 2 30 31
M  V30 31 1 18 4
M  V30 32 1 31 20
M  V30 33 1 15 9
M  V30 34 1 30 26
M  V30 35 1 1 32
M  V30 36 1 1 33
M  V30 37 1 1 34
M  V30 38 1 2 35
M  V30 39 1 2 36
M  V30 40 1 5 37
M  V30 41 1 10 38
M  V30 42 1 10 39
M  V30 43 1 11 40
M  V30 44 1 11 41
M  V30 45 1 13 42
M  V30 46 1 13 43
M  V30 47 1 13 44
M  V30 48 1 14 45
M  V30 49 1 14 46
M  V30 50 1 15 47
M  V30 51 1 15 48
M  V30 52 1 16 49
M  V30 53 1 17 50
M  V30 54 1 19 51
M  V30 55 1 24 52
M  V30 56 1 24 53
M  V30 57 1 25 54
M  V30 58 1 25 55
M  V30 59 1 25 56
M  V30 60 1 27 57
M  V30 61 1 28 58
M  V30 62 1 29 59
M  V30 END BOND
M  V30 END CTAB
M  END
>  <Dataset>  (685) 
ChEMBL_Kinases

>  <Ligand_Instance>  (685) 
nan

>  <PDB_ID>  (685) 
nan

>  <Standardized_SMILES>  (685) 
CCOc1cc(C(=O)N2CCN(C)CC2)ccc1Nc1nc(OCC)c2cc[nH]c2n1

>  <Name>  (685) 
nan

>  <Pocket>  (685) 
nan

>  <ATP_Site>  (685) 
nan

>  <Peripheral>  (685) 
nan

>  <Num_H_Atoms_ProtBoundConf>  (685) 
nan

>  <Num_Resolved_Atoms>  (685) 
nan

>  <Num_Not_Resolved_Atoms>  (685) 
nan

$$$$
CHEMBL4204627
     RDKit          3D

  0  0  0  0  0  0  0  0  0  0999 V3000
M  V30 BEGIN CTAB
M  V30 COUNTS 41 43 0 0 0
M  V30 BEGIN ATOM
M  V30 1 O 4.087163 -4.060441 2.134031 0
M  V30 2 C 4.235523 -2.845024 2.464048 0
M  V30 3 N 4.725281 -2.369376 3.703927 0
M  V30 4 C 4.812866 -0.936592 3.867701 0
M  V30 5 S 5.871748 -0.239215 4.932784 0
M  V30 6 S 3.552110 -0.389213 2.669285 0
M  V30 7 C 3.886956 -1.755067 1.519579 0
M  V30 8 C 3.829996 -1.679022 0.231172 0
M  V30 9 C 3.461034 -0.507126 -0.543215 0
M  V30 10 C 4.206510 -0.136103 -1.675525 0
M  V30 11 C 3.746481 0.979748 -2.331147 0
M  V30 12 C 2.635155 1.697134 -1.923352 0
M  V30 13 C 1.894293 1.316723 -0.787343 0
M  V30 14 O 0.890583 2.219283 -0.673595 0
M  V30 15 C -0.109070 2.212590 0.295361 0
M  V30 16 C -1.025134 1.010862 0.252244 0
M  V30 17 O -2.032927 1.058959 1.262727 0
M  V30 18 C -2.940166 0.011755 1.288909 0
M  V30 19 C -3.920416 0.015234 2.255054 0
M  V30 20 C -4.871959 -0.984181 2.363762 0
M  V30 21 C -4.881381 -2.061522 1.480974 0
M  V30 22 N -5.870086 -3.062159 1.616362 0 CHG=1 VAL=4
M  V30 23 O -5.933601 -4.038436 0.851921 0
M  V30 24 O -6.873826 -3.137406 2.544979 0 CHG=-1 VAL=1
M  V30 25 C -3.891351 -2.068916 0.502594 0
M  V30 26 C -2.959584 -1.065825 0.415931 0
M  V30 27 C 2.369152 0.216171 -0.160104 0
M  V30 28 H 5.013828 -3.051211 4.470377 0
M  V30 29 H 4.098143 -2.622502 -0.274819 0
M  V30 30 H 5.033348 -0.761823 -1.891295 0
M  V30 31 H 4.383391 1.197654 -3.200930 0
M  V30 32 H 2.497337 2.530479 -2.618949 0
M  V30 33 H -0.719047 3.140612 0.270976 0
M  V30 34 H 0.334419 2.225103 1.339706 0
M  V30 35 H -0.497317 0.060011 0.376861 0
M  V30 36 H -1.548636 0.978165 -0.739117 0
M  V30 37 H -3.987011 0.812304 2.980067 0
M  V30 38 H -5.641240 -0.980449 3.124731 0
M  V30 39 H -3.893905 -2.908080 -0.189510 0
M  V30 40 H -2.199556 -1.095777 -0.351910 0
M  V30 41 H 1.783730 -0.023370 0.699832 0
M  V30 END ATOM
M  V30 BEGIN BOND
M  V30 1 2 1 2
M  V30 2 1 2 3
M  V30 3 1 3 4
M  V30 4 2 4 5
M  V30 5 1 4 6
M  V30 6 1 6 7
M  V30 7 2 7 8
M  V30 8 1 8 9
M  V30 9 2 9 10
M  V30 10 1 10 11
M  V30 11 2 11 12
M  V30 12 1 12 13
M  V30 13 1 13 14
M  V30 14 1 14 15
M  V30 15 1 15 16
M  V30 16 1 16 17
M  V30 17 1 17 18
M  V30 18 2 18 19
M  V30 19 1 19 20
M  V30 20 2 20 21
M  V30 21 1 21 22
M  V30 22 2 22 23
M  V30 23 1 22 24
M  V30 24 1 21 25
M  V30 25 2 25 26
M  V30 26 2 13 27
M  V30 27 1 7 2
M  V30 28 1 27 9
M  V30 29 1 26 18
M  V30 30 1 3 28
M  V30 31 1 8 29
M  V30 32 1 10 30
M  V30 33 1 11 31
M  V30 34 1 12 32
M  V30 35 1 15 33
M  V30 36 1 15 34
M  V30 37 1 16 35
M  V30 38 1 16 36
M  V30 39 1 19 37
M  V30 40 1 20 38
M  V30 41 1 25 39
M  V30 42 1 26 40
M  V30 43 1 27 41
M  V30 END BOND
M  V30 END CTAB
M  END
>  <Dataset>  (686) 
ChEMBL_Kinases

>  <Ligand_Instance>  (686) 
nan

>  <PDB_ID>  (686) 
nan

>  <Standardized_SMILES>  (686) 
O=C1NC(=S)S/C1=C\c1cccc(OCCOc2ccc([N+](=O)[O-])cc2)c1

>  <Name>  (686) 
nan

>  <Pocket>  (686) 
nan

>  <ATP_Site>  (686) 
nan

>  <Peripheral>  (686) 
nan

>  <Num_H_Atoms_ProtBoundConf>  (686) 
nan

>  <Num_Resolved_Atoms>  (686) 
nan

>  <Num_Not_Resolved_Atoms>  (686) 
nan

$$$$
CHEMBL4204540
     RDKit          3D

  0  0  0  0  0  0  0  0  0  0999 V3000
M  V30 BEGIN CTAB
M  V30 COUNTS 35 37 0 0 0
M  V30 BEGIN ATOM
M  V30 1 C -0.786357 -1.935861 1.890094 0
M  V30 2 C 0.301217 -1.356120 1.066582 0
M  V30 3 C 1.550298 -1.920692 1.266974 0
M  V30 4 C 2.149822 -2.923778 2.004695 0
M  V30 5 C 3.500207 -3.249171 2.034593 0
M  V30 6 N 3.700462 -4.302519 2.868023 0
M  V30 7 N 2.562261 -4.685871 3.385058 0
M  V30 8 C 1.634231 -3.862352 2.869473 0
M  V30 9 S 2.675596 -0.937164 0.128500 0
M  V30 10 C 1.312129 0.145946 -0.504457 0
M  V30 11 C 0.134029 -0.324097 0.191068 0
M  V30 12 N -0.995584 0.408892 -0.233195 0
M  V30 13 C -2.321558 -0.225058 -0.282218 0
M  V30 14 C -0.817334 1.787266 -0.632568 0
M  V30 15 C -0.416967 2.692538 0.513784 0
M  V30 16 C -2.155163 2.276442 -1.136435 0
M  V30 17 N 0.117263 1.923745 -1.733488 0
M  V30 18 C 1.324109 1.234941 -1.442984 0
M  V30 19 O 2.458741 1.481862 -1.938609 0
M  V30 20 H -1.737599 -1.417193 1.791675 0
M  V30 21 H -0.467376 -1.946537 2.989356 0
M  V30 22 H -0.949520 -3.002046 1.640216 0
M  V30 23 H 4.370161 -2.841510 1.544989 0
M  V30 24 H 2.455787 -5.474912 4.054720 0
M  V30 25 H 0.618625 -3.989667 3.146022 0
M  V30 26 H -2.981223 0.079112 0.526534 0
M  V30 27 H -2.194255 -1.292416 -0.471610 0
M  V30 28 H -2.858947 0.144134 -1.216496 0
M  V30 29 H 0.682284 2.765959 0.633703 0
M  V30 30 H -0.751086 3.724352 0.210855 0
M  V30 31 H -0.953682 2.442590 1.430881 0
M  V30 32 H -2.980884 2.035495 -0.456804 0
M  V30 33 H -2.282632 1.875624 -2.171690 0
M  V30 34 H -2.086432 3.388057 -1.276614 0
M  V30 35 H 0.083542 2.408553 -2.661337 0
M  V30 END ATOM
M  V30 BEGIN BOND
M  V30 1 1 1 2
M  V30 2 2 2 3
M  V30 3 1 3 4
M  V30 4 1 4 5
M  V30 5 2 5 6
M  V30 6 1 6 7
M  V30 7 1 7 8
M  V30 8 1 3 9
M  V30 9 1 9 10
M  V30 10 2 10 11
M  V30 11 1 11 12
M  V30 12 1 12 13
M  V30 13 1 12 14
M  V30 14 1 14 15
M  V30 15 1 14 16
M  V30 16 1 14 17
M  V30 17 1 17 18
M  V30 18 2 18 19
M  V30 19 1 11 2
M  V30 20 2 8 4
M  V30 21 1 18 10
M  V30 22 1 1 20
M  V30 23 1 1 21
M  V30 24 1 1 22
M  V30 25 1 5 23
M  V30 26 1 7 24
M  V30 27 1 8 25
M  V30 28 1 13 26
M  V30 29 1 13 27
M  V30 30 1 13 28
M  V30 31 1 15 29
M  V30 32 1 15 30
M  V30 33 1 15 31
M  V30 34 1 16 32
M  V30 35 1 16 33
M  V30 36 1 16 34
M  V30 37 1 17 35
M  V30 END BOND
M  V30 END CTAB
M  END
>  <Dataset>  (687) 
ChEMBL_Kinases

>  <Ligand_Instance>  (687) 
nan

>  <PDB_ID>  (687) 
nan

>  <Standardized_SMILES>  (687) 
Cc1c(-c2cn[nH]c2)sc2c1N(C)C(C)(C)NC2=O

>  <Name>  (687) 
nan

>  <Pocket>  (687) 
nan

>  <ATP_Site>  (687) 
nan

>  <Peripheral>  (687) 
nan

>  <Num_H_Atoms_ProtBoundConf>  (687) 
nan

>  <Num_Resolved_Atoms>  (687) 
nan

>  <Num_Not_Resolved_Atoms>  (687) 
nan

$$$$
CHEMBL4204515
     RDKit          3D

  0  0  0  0  0  0  0  0  0  0999 V3000
M  V30 BEGIN CTAB
M  V30 COUNTS 71 75 0 0 0
M  V30 BEGIN ATOM
M  V30 1 C 3.784669 -4.373262 6.441774 0
M  V30 2 N 4.249103 -3.270832 5.615087 0
M  V30 3 C 3.527992 -2.836384 4.462633 0
M  V30 4 N 3.955031 -1.815565 3.695183 0
M  V30 5 C 3.258531 -1.424290 2.614754 0
M  V30 6 C 2.092680 -2.086169 2.299689 0
M  V30 7 C 1.141054 -1.992365 1.323259 0
M  V30 8 C 1.137852 -1.021370 0.220428 0
M  V30 9 C 1.417412 0.321564 0.378418 0
M  V30 10 C 1.396579 1.181204 -0.701984 0
M  V30 11 C 1.098546 0.737797 -1.970202 0
M  V30 12 N 1.047311 1.518530 -3.157897 0
M  V30 13 C 0.685167 0.993729 -4.459810 0
M  V30 14 C -0.416823 1.865689 -5.080991 0
M  V30 15 N -0.972019 2.715044 -4.015444 0
M  V30 16 C -2.249704 2.746960 -3.409780 0
M  V30 17 O -2.632056 3.530928 -2.478715 0
M  V30 18 C -3.428965 1.906671 -3.692731 0
M  V30 19 C -4.592771 2.274334 -2.769388 0
M  V30 20 C -3.188092 0.430202 -3.481393 0
M  V30 21 C -3.855550 2.204468 -5.111106 0
M  V30 22 C 0.043838 3.639787 -3.588986 0
M  V30 23 C 1.342175 2.933194 -3.268150 0
M  V30 24 N 0.829020 -0.564979 -2.113064 0
M  V30 25 C 0.845083 -1.416567 -1.070352 0
M  V30 26 N 0.195667 -2.909636 1.499361 0
M  V30 27 N 0.501505 -3.627375 2.593134 0
M  V30 28 C -0.336187 -4.696695 3.040467 0
M  V30 29 C -1.414652 -4.306683 3.997157 0
M  V30 30 C -0.947029 -3.692960 5.274401 0
M  V30 31 C -1.027397 -2.189154 5.099053 0
M  V30 32 C -1.888212 -1.937272 3.880939 0
M  V30 33 C -2.332766 -3.272352 3.362971 0
M  V30 34 C 1.645790 -3.132948 3.078432 0
M  V30 35 N 2.375103 -3.497379 4.158356 0
M  V30 36 H 2.660790 -4.372070 6.421305 0
M  V30 37 H 4.126320 -4.272129 7.491302 0
M  V30 38 H 4.088434 -5.362729 6.043394 0
M  V30 39 H 5.144191 -2.774520 5.870234 0
M  V30 40 H 3.567206 -0.621821 1.986612 0
M  V30 41 H 1.653891 0.687885 1.369182 0
M  V30 42 H 1.611528 2.237070 -0.605773 0
M  V30 43 H 0.425136 -0.072835 -4.463566 0
M  V30 44 H 1.570902 1.116658 -5.115558 0
M  V30 45 H -1.158263 1.211789 -5.533692 0
M  V30 46 H -0.011663 2.514029 -5.879013 0
M  V30 47 H -4.620153 1.646480 -1.861775 0
M  V30 48 H -4.546597 3.336389 -2.467203 0
M  V30 49 H -5.580119 2.151653 -3.275173 0
M  V30 50 H -2.770164 -0.096920 -4.337546 0
M  V30 51 H -2.501350 0.254300 -2.626238 0
M  V30 52 H -4.183717 -0.044383 -3.289481 0
M  V30 53 H -4.746830 2.847499 -5.081793 0
M  V30 54 H -3.025660 2.694626 -5.692771 0
M  V30 55 H -4.142491 1.221223 -5.572978 0
M  V30 56 H 0.197548 4.460978 -4.327706 0
M  V30 57 H -0.294563 4.088145 -2.619711 0
M  V30 58 H 2.057225 3.106236 -4.124755 0
M  V30 59 H 1.787605 3.313196 -2.326056 0
M  V30 60 H 0.620324 -2.475526 -1.220980 0
M  V30 61 H 0.256989 -5.519867 3.502137 0
M  V30 62 H -0.844073 -5.186755 2.170506 0
M  V30 63 H -1.983589 -5.238241 4.231416 0
M  V30 64 H -1.719877 -3.947370 6.059100 0
M  V30 65 H 0.052415 -4.019777 5.615436 0
M  V30 66 H -1.493377 -1.708588 6.007506 0
M  V30 67 H -0.014849 -1.781704 5.031569 0
M  V30 68 H -1.401229 -1.288944 3.132668 0
M  V30 69 H -2.808049 -1.360294 4.188301 0
M  V30 70 H -3.372163 -3.490369 3.649424 0
M  V30 71 H -2.252338 -3.318616 2.255769 0
M  V30 END ATOM
M  V30 BEGIN BOND
M  V30 1 1 1 2
M  V30 2 1 2 3
M  V30 3 2 3 4
M  V30 4 1 4 5
M  V30 5 2 5 6
M  V30 6 1 6 7
M  V30 7 1 7 8
M  V30 8 2 8 9
M  V30 9 1 9 10
M  V30 10 2 10 11
M  V30 11 1 11 12
M  V30 12 1 12 13
M  V30 13 1 13 14
M  V30 14 1 14 15
M  V30 15 1 15 16
M  V30 16 2 16 17
M  V30 17 1 16 18
M  V30 18 1 18 19
M  V30 19 1 18 20
M  V30 20 1 18 21
M  V30 21 1 15 22
M  V30 22 1 22 23
M  V30 23 1 11 24
M  V30 24 2 24 25
M  V30 25 2 7 26
M  V30 26 1 26 27
M  V30 27 1 27 28
M  V30 28 1 28 29
M  V30 29 1 29 30
M  V30 30 1 30 31
M  V30 31 1 31 32
M  V30 32 1 32 33
M  V30 33 1 27 34
M  V30 34 2 34 35
M  V30 35 1 35 3
M  V30 36 1 34 6
M  V30 37 1 25 8
M  V30 38 1 33 29
M  V30 39 1 23 12
M  V30 40 1 1 36
M  V30 41 1 1 37
M  V30 42 1 1 38
M  V30 43 1 2 39
M  V30 44 1 5 40
M  V30 45 1 9 41
M  V30 46 1 10 42
M  V30 47 1 13 43
M  V30 48 1 13 44
M  V30 49 1 14 45
M  V30 50 1 14 46
M  V30 51 1 19 47
M  V30 52 1 19 48
M  V30 53 1 19 49
M  V30 54 1 20 50
M  V30 55 1 20 51
M  V30 56 1 20 52
M  V30 57 1 21 53
M  V30 58 1 21 54
M  V30 59 1 21 55
M  V30 60 1 22 56
M  V30 61 1 22 57
M  V30 62 1 23 58
M  V30 63 1 23 59
M  V30 64 1 25 60
M  V30 65 1 28 61
M  V30 66 1 28 62
M  V30 67 1 29 63
M  V30 68 1 30 64
M  V30 69 1 30 65
M  V30 70 1 31 66
M  V30 71 1 31 67
M  V30 72 1 32 68
M  V30 73 1 32 69
M  V30 74 1 33 70
M  V30 75 1 33 71
M  V30 END BOND
M  V30 END CTAB
M  END
>  <Dataset>  (688) 
ChEMBL_Kinases

>  <Ligand_Instance>  (688) 
nan

>  <PDB_ID>  (688) 
nan

>  <Standardized_SMILES>  (688) 
CNc1ncc2c(-c3ccc(N4CCN(C(=O)C(C)(C)C)CC4)nc3)nn(CC3CCCC3)c2n1

>  <Name>  (688) 
nan

>  <Pocket>  (688) 
nan

>  <ATP_Site>  (688) 
nan

>  <Peripheral>  (688) 
nan

>  <Num_H_Atoms_ProtBoundConf>  (688) 
nan

>  <Num_Resolved_Atoms>  (688) 
nan

>  <Num_Not_Resolved_Atoms>  (688) 
nan

$$$$
CHEMBL420450
     RDKit          3D

  0  0  0  0  0  0  0  0  0  0999 V3000
M  V30 BEGIN CTAB
M  V30 COUNTS 65 65 0 0 0
M  V30 BEGIN ATOM
M  V30 1 C 4.079659 -1.982702 4.070944 0
M  V30 2 C 4.913849 -3.144012 3.710413 0
M  V30 3 C 5.181060 -3.320271 2.266421 0
M  V30 4 C 5.898497 -2.264904 1.529273 0
M  V30 5 C 5.285373 -0.933666 1.357142 0
M  V30 6 C 3.993024 -0.938187 0.557351 0
M  V30 7 C 4.235041 -1.465509 -0.846844 0
M  V30 8 C 2.992911 -1.490091 -1.698691 0
M  V30 9 C 1.951488 -2.364579 -1.091988 0
M  V30 10 C 0.685612 -2.427844 -1.921697 0
M  V30 11 C 0.036227 -1.068270 -2.106312 0
M  V30 12 C -1.221926 -1.169211 -2.936602 0
M  V30 13 C -1.826995 0.217492 -3.096881 0
M  V30 14 C -2.177785 0.808134 -1.807506 0
M  V30 15 C -3.346466 1.186603 -1.311294 0
M  V30 16 C -3.868559 1.793895 -0.043523 0
M  V30 17 C -5.245692 1.233844 0.058396 0
M  V30 18 C -5.259913 -0.206129 0.518524 0
M  V30 19 O -6.522849 -0.759954 0.417589 0
M  V30 20 C -6.069291 2.112887 0.950184 0
M  V30 21 O -5.527306 1.966322 2.269463 0
M  V30 22 C -6.085203 2.671224 3.354033 0
M  V30 23 C -5.352196 2.352544 4.606018 0
M  V30 24 O -7.073153 3.430523 3.119886 0
M  V30 25 O -5.663834 1.270192 -1.308199 0
M  V30 26 C -4.566243 1.018128 -2.121131 0
M  V30 27 O -4.695379 0.709219 -3.318193 0
M  V30 28 H 4.703989 -1.131312 4.472381 0
M  V30 29 H 3.365081 -1.615497 3.325004 0
M  V30 30 H 3.425505 -2.220168 4.988496 0
M  V30 31 H 4.410414 -4.070851 4.147916 0
M  V30 32 H 5.887802 -3.124462 4.306320 0
M  V30 33 H 4.238488 -3.654875 1.743817 0
M  V30 34 H 5.828905 -4.258391 2.187815 0
M  V30 35 H 6.305950 -2.653032 0.540555 0
M  V30 36 H 6.864811 -2.080577 2.111683 0
M  V30 37 H 5.115878 -0.419535 2.294138 0
M  V30 38 H 6.012351 -0.321794 0.753621 0
M  V30 39 H 3.218026 -1.522360 1.049290 0
M  V30 40 H 3.677921 0.119249 0.454224 0
M  V30 41 H 4.603417 -2.510162 -0.769134 0
M  V30 42 H 5.033094 -0.848830 -1.300764 0
M  V30 43 H 3.307681 -1.807133 -2.706600 0
M  V30 44 H 2.636288 -0.422074 -1.738481 0
M  V30 45 H 1.659048 -2.049887 -0.092863 0
M  V30 46 H 2.337016 -3.400468 -1.059664 0
M  V30 47 H 0.895736 -2.920795 -2.878780 0
M  V30 48 H -0.032084 -3.062683 -1.366056 0
M  V30 49 H -0.122340 -0.558189 -1.148047 0
M  V30 50 H 0.772739 -0.455778 -2.682702 0
M  V30 51 H -1.943958 -1.868241 -2.463948 0
M  V30 52 H -1.003223 -1.508853 -3.969192 0
M  V30 53 H -2.557975 0.269273 -3.895790 0
M  V30 54 H -0.949557 0.821909 -3.515214 0
M  V30 55 H -1.380144 1.000676 -1.084187 0
M  V30 56 H -3.990258 2.886369 -0.288938 0
M  V30 57 H -3.213721 1.612217 0.820776 0
M  V30 58 H -4.559834 -0.826882 -0.066029 0
M  V30 59 H -4.955462 -0.211223 1.587008 0
M  V30 60 H -6.413114 -1.749374 0.273531 0
M  V30 61 H -6.104148 3.149236 0.622594 0
M  V30 62 H -7.106604 1.682569 1.015127 0
M  V30 63 H -4.243354 2.524421 4.494759 0
M  V30 64 H -5.462921 1.290549 4.894759 0
M  V30 65 H -5.692455 3.073475 5.370594 0
M  V30 END ATOM
M  V30 BEGIN BOND
M  V30 1 1 1 2
M  V30 2 1 2 3
M  V30 3 1 3 4
M  V30 4 1 4 5
M  V30 5 1 5 6
M  V30 6 1 6 7
M  V30 7 1 7 8
M  V30 8 1 8 9
M  V30 9 1 9 10
M  V30 10 1 10 11
M  V30 11 1 11 12
M  V30 12 1 12 13
M  V30 13 1 13 14
M  V30 14 2 14 15
M  V30 15 1 15 16
M  V30 16 1 16 17
M  V30 17 1 17 18
M  V30 18 1 18 19
M  V30 19 1 17 20
M  V30 20 1 20 21
M  V30 21 1 21 22
M  V30 22 1 22 23
M  V30 23 2 22 24
M  V30 24 1 17 25
M  V30 25 1 25 26
M  V30 26 2 26 27
M  V30 27 1 26 15
M  V30 28 1 1 28
M  V30 29 1 1 29
M  V30 30 1 1 30
M  V30 31 1 2 31
M  V30 32 1 2 32
M  V30 33 1 3 33
M  V30 34 1 3 34
M  V30 35 1 4 35
M  V30 36 1 4 36
M  V30 37 1 5 37
M  V30 38 1 5 38
M  V30 39 1 6 39
M  V30 40 1 6 40
M  V30 41 1 7 41
M  V30 42 1 7 42
M  V30 43 1 8 43
M  V30 44 1 8 44
M  V30 45 1 9 45
M  V30 46 1 9 46
M  V30 47 1 10 47
M  V30 48 1 10 48
M  V30 49 1 11 49
M  V30 50 1 11 50
M  V30 51 1 12 51
M  V30 52 1 12 52
M  V30 53 1 13 53
M  V30 54 1 13 54
M  V30 55 1 14 55
M  V30 56 1 16 56
M  V30 57 1 16 57
M  V30 58 1 18 58
M  V30 59 1 18 59
M  V30 60 1 19 60
M  V30 61 1 20 61
M  V30 62 1 20 62
M  V30 63 1 23 63
M  V30 64 1 23 64
M  V30 65 1 23 65
M  V30 END BOND
M  V30 END CTAB
M  END
>  <Dataset>  (689) 
ChEMBL_Kinases

>  <Ligand_Instance>  (689) 
nan

>  <PDB_ID>  (689) 
nan

>  <Standardized_SMILES>  (689) 
CCCCCCCCCCCCC/C=C1/CC(CO)(COC(C)=O)OC1=O

>  <Name>  (689) 
nan

>  <Pocket>  (689) 
nan

>  <ATP_Site>  (689) 
nan

>  <Peripheral>  (689) 
nan

>  <Num_H_Atoms_ProtBoundConf>  (689) 
nan

>  <Num_Resolved_Atoms>  (689) 
nan

>  <Num_Not_Resolved_Atoms>  (689) 
nan

$$$$
CHEMBL478420
     RDKit          3D

  0  0  0  0  0  0  0  0  0  0999 V3000
M  V30 BEGIN CTAB
M  V30 COUNTS 59 62 0 0 0
M  V30 BEGIN ATOM
M  V30 1 C -3.274722 -0.035432 3.011623 0
M  V30 2 C -1.812176 0.175190 2.986691 0
M  V30 3 C -1.347852 1.243785 3.727686 0
M  V30 4 C 0.010805 1.494285 3.745518 0
M  V30 5 C 0.844913 0.665334 3.021751 0
M  V30 6 N 2.271458 0.904505 3.022630 0
M  V30 7 C 2.575993 1.785064 1.943503 0
M  V30 8 O 1.533117 2.115456 1.285456 0
M  V30 9 C 3.932470 2.278363 1.598407 0
M  V30 10 C 4.547362 3.049130 2.732091 0
M  V30 11 C 5.915048 3.529124 2.229635 0
M  V30 12 C 5.631183 4.582716 1.176194 0
M  V30 13 C 5.032301 3.863110 -0.026375 0
M  V30 14 C 3.794805 3.096844 0.335780 0
M  V30 15 C 0.364463 -0.411854 2.276340 0
M  V30 16 C -1.009152 -0.673028 2.252393 0
M  V30 17 C -1.531763 -1.793707 1.479703 0
M  V30 18 C -2.454478 -2.710185 1.851974 0
M  V30 19 C -2.838220 -3.726220 0.968747 0
M  V30 20 C -2.266285 -3.783955 -0.285196 0
M  V30 21 C -2.710120 -4.866524 -1.155451 0
M  V30 22 O -3.573676 -5.669295 -0.717288 0
M  V30 23 N -2.238565 -5.089599 -2.476214 0
M  V30 24 C -2.750035 -6.201458 -3.257242 0
M  V30 25 C -4.242678 -6.130692 -3.475219 0
M  V30 26 C -4.737978 -4.918823 -4.195973 0
M  V30 27 C -4.777880 -6.216076 -4.877968 0
M  V30 28 C -1.323087 -2.861002 -0.688405 0
M  V30 29 C -0.954980 -1.857350 0.206271 0
M  V30 30 H -3.828343 0.946731 3.086924 0
M  V30 31 H -3.682853 -0.481939 2.075923 0
M  V30 32 H -3.634268 -0.602220 3.899290 0
M  V30 33 H -2.010368 1.887305 4.291418 0
M  V30 34 H 0.474357 2.310619 4.298012 0
M  V30 35 H 3.087586 0.581622 3.621288 0
M  V30 36 H 4.636676 1.449351 1.346006 0
M  V30 37 H 4.745480 2.313475 3.539964 0
M  V30 38 H 3.910271 3.894190 3.062514 0
M  V30 39 H 6.364407 2.660937 1.700478 0
M  V30 40 H 6.540115 3.916269 3.050917 0
M  V30 41 H 6.587659 5.029068 0.815530 0
M  V30 42 H 4.911640 5.340609 1.530934 0
M  V30 43 H 5.786778 3.230980 -0.519882 0
M  V30 44 H 4.729095 4.672455 -0.730932 0
M  V30 45 H 2.887839 3.759474 0.358613 0
M  V30 46 H 3.610801 2.370871 -0.497282 0
M  V30 47 H 1.072158 -1.025258 1.729487 0
M  V30 48 H -2.850300 -2.602770 2.830120 0
M  V30 49 H -3.589251 -4.420731 1.355857 0
M  V30 50 H -1.522192 -4.436114 -2.860068 0
M  V30 51 H -2.461533 -7.140602 -2.751027 0
M  V30 52 H -2.265660 -6.199522 -4.233098 0
M  V30 53 H -4.857253 -6.599458 -2.695761 0
M  V30 54 H -3.982714 -4.178785 -4.537345 0
M  V30 55 H -5.678513 -4.420796 -3.844578 0
M  V30 56 H -5.776758 -6.676983 -5.029118 0
M  V30 57 H -4.069938 -6.365024 -5.729087 0
M  V30 58 H -0.877137 -2.909998 -1.672639 0
M  V30 59 H -0.199181 -1.156399 -0.179973 0
M  V30 END ATOM
M  V30 BEGIN BOND
M  V30 1 1 1 2
M  V30 2 2 2 3
M  V30 3 1 3 4
M  V30 4 2 4 5
M  V30 5 1 5 6
M  V30 6 1 6 7
M  V30 7 2 7 8
M  V30 8 1 7 9
M  V30 9 1 9 10
M  V30 10 1 10 11
M  V30 11 1 11 12
M  V30 12 1 12 13
M  V30 13 1 13 14
M  V30 14 1 5 15
M  V30 15 2 15 16
M  V30 16 1 16 17
M  V30 17 2 17 18
M  V30 18 1 18 19
M  V30 19 2 19 20
M  V30 20 1 20 21
M  V30 21 2 21 22
M  V30 22 1 21 23
M  V30 23 1 23 24
M  V30 24 1 24 25
M  V30 25 1 25 26
M  V30 26 1 26 27
M  V30 27 1 20 28
M  V30 28 2 28 29
M  V30 29 1 16 2
M  V30 30 1 29 17
M  V30 31 1 14 9
M  V30 32 1 27 25
M  V30 33 1 1 30
M  V30 34 1 1 31
M  V30 35 1 1 32
M  V30 36 1 3 33
M  V30 37 1 4 34
M  V30 38 1 6 35
M  V30 39 1 9 36
M  V30 40 1 10 37
M  V30 41 1 10 38
M  V30 42 1 11 39
M  V30 43 1 11 40
M  V30 44 1 12 41
M  V30 45 1 12 42
M  V30 46 1 13 43
M  V30 47 1 13 44
M  V30 48 1 14 45
M  V30 49 1 14 46
M  V30 50 1 15 47
M  V30 51 1 18 48
M  V30 52 1 19 49
M  V30 53 1 23 50
M  V30 54 1 24 51
M  V30 55 1 24 52
M  V30 56 1 25 53
M  V30 57 1 26 54
M  V30 58 1 26 55
M  V30 59 1 27 56
M  V30 60 1 27 57
M  V30 61 1 28 58
M  V30 62 1 29 59
M  V30 END BOND
M  V30 END CTAB
M  END
>  <Dataset>  (690) 
ChEMBL_Kinases

>  <Ligand_Instance>  (690) 
nan

>  <PDB_ID>  (690) 
nan

>  <Standardized_SMILES>  (690) 
Cc1ccc(NC(=O)C2CCCCC2)cc1-c1ccc(C(=O)NCC2CC2)cc1

>  <Name>  (690) 
nan

>  <Pocket>  (690) 
nan

>  <ATP_Site>  (690) 
nan

>  <Peripheral>  (690) 
nan

>  <Num_H_Atoms_ProtBoundConf>  (690) 
nan

>  <Num_Resolved_Atoms>  (690) 
nan

>  <Num_Not_Resolved_Atoms>  (690) 
nan

$$$$
CHEMBL4204410
     RDKit          3D

  0  0  0  0  0  0  0  0  0  0999 V3000
M  V30 BEGIN CTAB
M  V30 COUNTS 57 60 0 0 0
M  V30 BEGIN ATOM
M  V30 1 C 3.351521 -0.607655 5.468249 0
M  V30 2 C 3.643598 0.464100 4.462548 0
M  V30 3 N 3.565446 0.108967 3.124436 0
M  V30 4 C 4.553905 -0.799885 2.620964 0
M  V30 5 C 5.939419 -0.187493 2.578987 0
M  V30 6 C 2.828854 0.844649 2.183314 0
M  V30 7 C 1.368142 0.731391 2.375503 0 CFG=1
M  V30 8 C 0.806893 1.209345 3.673798 0
M  V30 9 N 0.610922 1.273501 1.235701 0
M  V30 10 C -0.236377 0.533842 0.369451 0
M  V30 11 O -0.315561 -0.678694 0.635966 0
M  V30 12 C -0.927123 1.213816 -0.726092 0
M  V30 13 C -0.842675 2.555163 -1.063822 0
M  V30 14 C -1.564403 3.048803 -2.131522 0
M  V30 15 N -2.363602 2.232231 -2.862614 0
M  V30 16 C -2.462153 0.918345 -2.551691 0
M  V30 17 C -3.353467 0.130298 -3.403942 0
M  V30 18 C -4.069929 0.603174 -4.455898 0
M  V30 19 N -4.784291 -0.396987 -5.014231 0
M  V30 20 N -4.542681 -1.518095 -4.339049 0
M  V30 21 C -4.993728 -2.775626 -4.482622 0
M  V30 22 C -4.568499 -3.774967 -3.618583 0
M  V30 23 C -3.679388 -3.457269 -2.614853 0
M  V30 24 C -3.149564 -4.399177 -1.640469 0
M  V30 25 C -3.445540 -5.702157 -1.574550 0
M  V30 26 C -2.902625 -6.520582 -0.625220 0
M  V30 27 C -1.975695 -5.814059 0.293484 0
M  V30 28 S -2.001019 -4.030496 -0.332896 0
M  V30 29 N -3.256994 -2.185840 -2.511538 0
M  V30 30 C -3.674852 -1.218505 -3.355695 0
M  V30 31 C -1.759894 0.390291 -1.497577 0
M  V30 32 H 2.495112 -0.259043 6.090611 0
M  V30 33 H 3.030924 -1.569164 5.019694 0
M  V30 34 H 4.187627 -0.728628 6.182125 0
M  V30 35 H 4.723913 0.783361 4.677017 0
M  V30 36 H 3.078673 1.388409 4.680801 0
M  V30 37 H 4.283598 -1.031709 1.567777 0
M  V30 38 H 4.543430 -1.765823 3.162593 0
M  V30 39 H 6.498890 -0.376795 3.539601 0
M  V30 40 H 5.880007 0.895804 2.376581 0
M  V30 41 H 6.566655 -0.637214 1.781479 0
M  V30 42 H 3.181940 1.926306 2.254293 0
M  V30 43 H 3.051682 0.509717 1.128589 0
M  V30 44 H 1.132062 -0.377629 2.340111 0
M  V30 45 H -0.323944 1.278572 3.494158 0
M  V30 46 H 0.887899 0.523671 4.512554 0
M  V30 47 H 1.064246 2.278612 3.900165 0
M  V30 48 H 0.784854 2.298960 1.147673 0
M  V30 49 H -0.184630 3.142540 -0.433783 0
M  V30 50 H -1.456695 4.120726 -2.351407 0
M  V30 51 H -4.121435 1.595073 -4.851173 0
M  V30 52 H -5.694505 -3.064244 -5.261270 0
M  V30 53 H -4.869084 -4.816528 -3.646479 0
M  V30 54 H -4.136886 -6.200173 -2.269588 0
M  V30 55 H -3.028877 -7.569992 -0.432207 0
M  V30 56 H -1.432835 -6.383713 1.159796 0
M  V30 57 H -1.879246 -0.665278 -1.298159 0
M  V30 END ATOM
M  V30 BEGIN BOND
M  V30 1 1 1 2
M  V30 2 1 2 3
M  V30 3 1 3 4
M  V30 4 1 4 5
M  V30 5 1 3 6
M  V30 6 1 6 7
M  V30 7 1 7 8
M  V30 8 1 7 9
M  V30 9 1 9 10
M  V30 10 2 10 11
M  V30 11 1 10 12
M  V30 12 2 12 13
M  V30 13 1 13 14
M  V30 14 2 14 15
M  V30 15 1 15 16
M  V30 16 1 16 17
M  V30 17 1 17 18
M  V30 18 2 18 19
M  V30 19 1 19 20
M  V30 20 1 20 21
M  V30 21 2 21 22
M  V30 22 1 22 23
M  V30 23 1 23 24
M  V30 24 2 24 25
M  V30 25 1 25 26
M  V30 26 2 26 27
M  V30 27 1 27 28
M  V30 28 2 23 29
M  V30 29 1 29 30
M  V30 30 2 16 31
M  V30 31 1 31 12
M  V30 32 2 30 17
M  V30 33 1 30 20
M  V30 34 1 28 24
M  V30 35 1 1 32
M  V30 36 1 1 33
M  V30 37 1 1 34
M  V30 38 1 2 35
M  V30 39 1 2 36
M  V30 40 1 4 37
M  V30 41 1 4 38
M  V30 42 1 5 39
M  V30 43 1 5 40
M  V30 44 1 5 41
M  V30 45 1 6 42
M  V30 46 1 6 43
M  V30 47 1 7 44 CFG=1
M  V30 48 1 8 45
M  V30 49 1 8 46
M  V30 50 1 8 47
M  V30 51 1 9 48
M  V30 52 1 13 49
M  V30 53 1 14 50
M  V30 54 1 18 51
M  V30 55 1 21 52
M  V30 56 1 22 53
M  V30 57 1 25 54
M  V30 58 1 26 55
M  V30 59 1 27 56
M  V30 60 1 31 57
M  V30 END BOND
M  V30 END CTAB
M  END
>  <Dataset>  (691) 
ChEMBL_Kinases

>  <Ligand_Instance>  (691) 
nan

>  <PDB_ID>  (691) 
nan

>  <Standardized_SMILES>  (691) 
CCN(CC)C[C@@H](C)NC(=O)c1ccnc(-c2cnn3ccc(-c4cccs4)nc23)c1

>  <Name>  (691) 
nan

>  <Pocket>  (691) 
nan

>  <ATP_Site>  (691) 
nan

>  <Peripheral>  (691) 
nan

>  <Num_H_Atoms_ProtBoundConf>  (691) 
nan

>  <Num_Resolved_Atoms>  (691) 
nan

>  <Num_Not_Resolved_Atoms>  (691) 
nan

$$$$
CHEMBL4204392
     RDKit          3D

  0  0  0  0  0  0  0  0  0  0999 V3000
M  V30 BEGIN CTAB
M  V30 COUNTS 41 44 0 0 0
M  V30 BEGIN ATOM
M  V30 1 O -0.980904 -3.009480 3.870267 0
M  V30 2 C -0.014558 -3.534997 3.259573 0
M  V30 3 N 0.808029 -4.615752 3.744939 0
M  V30 4 C 1.805830 -4.931244 2.753823 0
M  V30 5 C 1.538924 -3.984252 1.650096 0
M  V30 6 C 2.195223 -3.842157 0.443484 0
M  V30 7 C 1.819404 -2.898746 -0.491791 0
M  V30 8 C 0.750263 -2.060430 -0.223818 0
M  V30 9 C 0.238627 -1.012659 -1.121642 0
M  V30 10 N -0.052406 0.192923 -0.620742 0
M  V30 11 C -0.521778 1.242565 -1.297676 0
M  V30 12 N -0.824138 2.502832 -0.766105 0
M  V30 13 C -0.684119 2.963032 0.605127 0
M  V30 14 C 0.758421 3.028312 0.982160 0
M  V30 15 C 1.302298 1.843237 1.660559 0
M  V30 16 O 0.432997 1.048026 2.352971 0
M  V30 17 C -0.715572 1.731868 2.753047 0
M  V30 18 C -1.511371 2.175514 1.559722 0
M  V30 19 N -0.693620 0.989538 -2.603139 0
M  V30 20 C -0.436428 -0.173972 -3.208614 0
M  V30 21 C 0.043794 -1.219258 -2.468536 0
M  V30 22 Cl 0.417945 -2.789392 -3.146141 0
M  V30 23 C 0.102486 -2.214010 0.988285 0
M  V30 24 C 0.464739 -3.151836 1.934975 0
M  V30 25 H 0.739065 -5.123382 4.653698 0
M  V30 26 H 1.728558 -5.989783 2.483728 0
M  V30 27 H 2.813739 -4.775812 3.204179 0
M  V30 28 H 3.022777 -4.470918 0.204128 0
M  V30 29 H 2.307389 -2.764834 -1.433801 0
M  V30 30 H -1.207100 3.210715 -1.471016 0
M  V30 31 H -1.089023 4.026363 0.628551 0
M  V30 32 H 0.974196 3.990413 1.539928 0
M  V30 33 H 1.382396 3.176275 0.035795 0
M  V30 34 H 2.111423 2.231803 2.379517 0
M  V30 35 H 1.937388 1.244284 0.938647 0
M  V30 36 H -1.297045 1.096126 3.420605 0
M  V30 37 H -0.412862 2.635315 3.335327 0
M  V30 38 H -1.959136 1.281335 1.072942 0
M  V30 39 H -2.395137 2.746631 1.948256 0
M  V30 40 H -0.601555 -0.298417 -4.266084 0
M  V30 41 H -0.746326 -1.591826 1.269857 0
M  V30 END ATOM
M  V30 BEGIN BOND
M  V30 1 2 1 2
M  V30 2 1 2 3
M  V30 3 1 3 4
M  V30 4 1 4 5
M  V30 5 2 5 6
M  V30 6 1 6 7
M  V30 7 2 7 8
M  V30 8 1 8 9
M  V30 9 2 9 10
M  V30 10 1 10 11
M  V30 11 1 11 12
M  V30 12 1 12 13
M  V30 13 1 13 14
M  V30 14 1 14 15
M  V30 15 1 15 16
M  V30 16 1 16 17
M  V30 17 1 17 18
M  V30 18 2 11 19
M  V30 19 1 19 20
M  V30 20 2 20 21
M  V30 21 1 21 22
M  V30 22 1 8 23
M  V30 23 2 23 24
M  V30 24 1 24 2
M  V30 25 1 24 5
M  V30 26 1 21 9
M  V30 27 1 18 13
M  V30 28 1 3 25
M  V30 29 1 4 26
M  V30 30 1 4 27
M  V30 31 1 6 28
M  V30 32 1 7 29
M  V30 33 1 12 30
M  V30 34 1 13 31
M  V30 35 1 14 32
M  V30 36 1 14 33
M  V30 37 1 15 34
M  V30 38 1 15 35
M  V30 39 1 17 36
M  V30 40 1 17 37
M  V30 41 1 18 38
M  V30 42 1 18 39
M  V30 43 1 20 40
M  V30 44 1 23 41
M  V30 END BOND
M  V30 END CTAB
M  END
>  <Dataset>  (692) 
ChEMBL_Kinases

>  <Ligand_Instance>  (692) 
nan

>  <PDB_ID>  (692) 
nan

>  <Standardized_SMILES>  (692) 
O=C1NCc2ccc(-c3nc(NC4CCOCC4)ncc3Cl)cc21

>  <Name>  (692) 
nan

>  <Pocket>  (692) 
nan

>  <ATP_Site>  (692) 
nan

>  <Peripheral>  (692) 
nan

>  <Num_H_Atoms_ProtBoundConf>  (692) 
nan

>  <Num_Resolved_Atoms>  (692) 
nan

>  <Num_Not_Resolved_Atoms>  (692) 
nan

$$$$
CHEMBL4204814
     RDKit          3D

  0  0  0  0  0  0  0  0  0  0999 V3000
M  V30 BEGIN CTAB
M  V30 COUNTS 26 27 0 0 0
M  V30 BEGIN ATOM
M  V30 1 C -1.489715 -3.771172 1.415534 0
M  V30 2 C -0.548773 -2.665136 1.738781 0
M  V30 3 C 0.063668 -2.559687 2.974074 0
M  V30 4 C 0.920499 -1.508972 3.195797 0
M  V30 5 C 1.225729 -0.533676 2.272330 0
M  V30 6 C 0.602712 -0.658580 1.045114 0
M  V30 7 C -0.271433 -1.709353 0.783584 0
M  V30 8 Br -1.114006 -1.853219 -0.917890 0
M  V30 9 C 1.042178 0.460216 0.191645 0
M  V30 10 N 0.641301 0.625159 -1.007232 0
M  V30 11 N 1.089784 1.704110 -1.773448 0
M  V30 12 C -0.074365 2.477272 -2.099215 0
M  V30 13 N -1.268781 1.929898 -1.565180 0
M  V30 14 S -0.538224 3.824473 -2.902035 0
M  V30 15 C 1.956119 1.259112 0.965025 0
M  V30 16 O 2.498830 2.282316 0.508887 0
M  V30 17 N 2.042214 0.622987 2.224420 0
M  V30 18 H -1.354645 -4.664870 2.038912 0
M  V30 19 H -2.515248 -3.329470 1.515735 0
M  V30 20 H -1.266568 -4.041006 0.350421 0
M  V30 21 H -0.173883 -3.320807 3.696241 0
M  V30 22 H 1.390177 -1.448815 4.177717 0
M  V30 23 H 1.910704 2.171936 -2.199837 0
M  V30 24 H -1.435883 1.440937 -0.680001 0
M  V30 25 H -2.198130 1.558000 -1.255792 0
M  V30 26 H 2.641697 0.971419 3.024557 0
M  V30 END ATOM
M  V30 BEGIN BOND
M  V30 1 1 1 2
M  V30 2 2 2 3
M  V30 3 1 3 4
M  V30 4 2 4 5
M  V30 5 1 5 6
M  V30 6 2 6 7
M  V30 7 1 7 8
M  V30 8 1 6 9
M  V30 9 2 9 10
M  V30 10 1 10 11
M  V30 11 1 11 12
M  V30 12 1 12 13
M  V30 13 2 12 14
M  V30 14 1 9 15
M  V30 15 2 15 16
M  V30 16 1 15 17
M  V30 17 1 7 2
M  V30 18 1 17 5
M  V30 19 1 1 18
M  V30 20 1 1 19
M  V30 21 1 1 20
M  V30 22 1 3 21
M  V30 23 1 4 22
M  V30 24 1 11 23
M  V30 25 1 13 24
M  V30 26 1 13 25
M  V30 27 1 17 26
M  V30 END BOND
M  V30 END CTAB
M  END
>  <Dataset>  (693) 
ChEMBL_Kinases

>  <Ligand_Instance>  (693) 
nan

>  <PDB_ID>  (693) 
nan

>  <Standardized_SMILES>  (693) 
Cc1ccc2c(c1Br)/C(=N/NC(N)=S)C(=O)N2

>  <Name>  (693) 
nan

>  <Pocket>  (693) 
nan

>  <ATP_Site>  (693) 
nan

>  <Peripheral>  (693) 
nan

>  <Num_H_Atoms_ProtBoundConf>  (693) 
nan

>  <Num_Resolved_Atoms>  (693) 
nan

>  <Num_Not_Resolved_Atoms>  (693) 
nan

$$$$
CHEMBL4784034
     RDKit          3D

  0  0  0  0  0  0  0  0  0  0999 V3000
M  V30 BEGIN CTAB
M  V30 COUNTS 48 51 0 0 0
M  V30 BEGIN ATOM
M  V30 1 C 2.101743 -2.356225 5.340989 0
M  V30 2 C 3.580614 -2.405937 5.511449 0
M  V30 3 C 4.331282 -2.871267 4.296397 0
M  V30 4 N 4.194345 -2.058979 3.124743 0
M  V30 5 C 3.196127 -1.633160 2.235310 0
M  V30 6 O 2.023205 -2.034264 2.415062 0
M  V30 7 N 3.326904 -0.776988 1.112777 0
M  V30 8 C 2.074056 -0.559362 0.426982 0
M  V30 9 C 1.616224 -1.352006 -0.605989 0
M  V30 10 C 0.386076 -1.045179 -1.195818 0
M  V30 11 C -0.351732 0.039269 -0.741889 0
M  V30 12 C 0.137708 0.809463 0.293167 0
M  V30 13 C 1.360481 0.528487 0.901002 0
M  V30 14 O -0.474150 1.933258 0.870952 0
M  V30 15 C -1.791076 2.359290 0.829848 0
M  V30 16 N -2.190180 3.157812 1.835840 0
M  V30 17 C -3.438273 3.646681 1.926366 0
M  V30 18 C -4.408859 3.352351 0.970570 0
M  V30 19 C -4.051323 2.528293 -0.096033 0
M  V30 20 C -2.745749 2.049254 -0.141519 0
M  V30 21 C -2.573868 1.211505 -1.326132 0
M  V30 22 O -3.345387 1.390152 -2.291906 0
M  V30 23 N -1.574137 0.183294 -1.472294 0
M  V30 24 C -1.865002 -0.798681 -2.476019 0
M  V30 25 C -2.583810 -1.888310 -1.981333 0
M  V30 26 C -2.938226 -2.919249 -2.835972 0
M  V30 27 N -2.576118 -2.839187 -4.128462 0
M  V30 28 C -1.883660 -1.800015 -4.628402 0
M  V30 29 C -1.512054 -0.754202 -3.810476 0
M  V30 30 H 1.707388 -1.367907 4.990386 0
M  V30 31 H 1.695858 -3.223510 4.792670 0
M  V30 32 H 1.632300 -2.445861 6.378811 0
M  V30 33 H 3.780881 -3.091521 6.387299 0
M  V30 34 H 3.998514 -1.411629 5.840352 0
M  V30 35 H 5.406903 -2.970303 4.521790 0
M  V30 36 H 3.923192 -3.921360 4.065658 0
M  V30 37 H 5.104908 -1.615168 2.780859 0
M  V30 38 H 4.284672 -0.409863 0.912282 0
M  V30 39 H 2.233899 -2.187688 -0.921253 0
M  V30 40 H 0.022740 -1.676117 -2.017275 0
M  V30 41 H 1.714659 1.156463 1.713373 0
M  V30 42 H -3.708133 4.288121 2.761011 0
M  V30 43 H -5.410065 3.733150 1.025900 0
M  V30 44 H -4.736777 2.252326 -0.874664 0
M  V30 45 H -2.901502 -2.009772 -0.961348 0
M  V30 46 H -3.494364 -3.787495 -2.509311 0
M  V30 47 H -1.577514 -1.709248 -5.669779 0
M  V30 48 H -0.958694 0.134074 -4.081245 0
M  V30 END ATOM
M  V30 BEGIN BOND
M  V30 1 1 1 2
M  V30 2 1 2 3
M  V30 3 1 3 4
M  V30 4 1 4 5
M  V30 5 2 5 6
M  V30 6 1 5 7
M  V30 7 1 7 8
M  V30 8 2 8 9
M  V30 9 1 9 10
M  V30 10 2 10 11
M  V30 11 1 11 12
M  V30 12 2 12 13
M  V30 13 1 12 14
M  V30 14 1 14 15
M  V30 15 2 15 16
M  V30 16 1 16 17
M  V30 17 2 17 18
M  V30 18 1 18 19
M  V30 19 2 19 20
M  V30 20 1 20 21
M  V30 21 2 21 22
M  V30 22 1 21 23
M  V30 23 1 23 24
M  V30 24 2 24 25
M  V30 25 1 25 26
M  V30 26 2 26 27
M  V30 27 1 27 28
M  V30 28 2 28 29
M  V30 29 1 13 8
M  V30 30 1 20 15
M  V30 31 1 29 24
M  V30 32 1 23 11
M  V30 33 1 1 30
M  V30 34 1 1 31
M  V30 35 1 1 32
M  V30 36 1 2 33
M  V30 37 1 2 34
M  V30 38 1 3 35
M  V30 39 1 3 36
M  V30 40 1 4 37
M  V30 41 1 7 38
M  V30 42 1 9 39
M  V30 43 1 10 40
M  V30 44 1 13 41
M  V30 45 1 17 42
M  V30 46 1 18 43
M  V30 47 1 19 44
M  V30 48 1 25 45
M  V30 49 1 26 46
M  V30 50 1 28 47
M  V30 51 1 29 48
M  V30 END BOND
M  V30 END CTAB
M  END
>  <Dataset>  (694) 
ChEMBL_Kinases

>  <Ligand_Instance>  (694) 
nan

>  <PDB_ID>  (694) 
nan

>  <Standardized_SMILES>  (694) 
CCCNC(=O)Nc1ccc2c(c1)Oc1ncccc1C(=O)N2c1ccncc1

>  <Name>  (694) 
nan

>  <Pocket>  (694) 
nan

>  <ATP_Site>  (694) 
nan

>  <Peripheral>  (694) 
nan

>  <Num_H_Atoms_ProtBoundConf>  (694) 
nan

>  <Num_Resolved_Atoms>  (694) 
nan

>  <Num_Not_Resolved_Atoms>  (694) 
nan

$$$$
CHEMBL4205997
     RDKit          3D

  0  0  0  0  0  0  0  0  0  0999 V3000
M  V30 BEGIN CTAB
M  V30 COUNTS 70 74 0 0 0
M  V30 BEGIN ATOM
M  V30 1 C 3.791546 -1.302087 5.026157 0
M  V30 2 C 3.119045 -2.635448 5.019915 0
M  V30 3 N 2.357689 -2.992294 3.908152 0
M  V30 4 C 1.753927 -4.269994 4.007340 0
M  V30 5 C 0.673211 -4.382539 5.040154 0
M  V30 6 C 1.806006 -2.072532 3.018118 0 CFG=1
M  V30 7 C 0.901250 -1.026341 3.599857 0
M  V30 8 C 2.784611 -1.475700 2.024931 0
M  V30 9 N 2.037565 -0.550073 1.193403 0
M  V30 10 C 0.947122 -0.782745 0.345851 0
M  V30 11 O 0.494577 -1.973722 0.245231 0
M  V30 12 C 0.247946 0.205690 -0.458797 0
M  V30 13 C -0.819192 -0.184254 -1.234530 0
M  V30 14 C -1.509829 0.730558 -2.017034 0
M  V30 15 C -2.641319 0.353060 -2.849465 0
M  V30 16 C -3.350560 1.231317 -3.641097 0
M  V30 17 N -4.326135 0.545426 -4.271787 0
M  V30 18 N -4.274589 -0.740318 -3.918581 0
M  V30 19 C -5.010295 -1.812172 -4.259891 0
M  V30 20 C -4.749975 -3.085696 -3.739028 0
M  V30 21 C -3.688129 -3.135969 -2.859960 0
M  V30 22 C -3.383684 -4.480540 -2.285761 0
M  V30 23 C -2.432852 -4.837865 -1.421106 0
M  V30 24 C -2.301126 -6.118942 -1.003494 0
M  V30 25 C -3.256243 -7.027810 -1.565572 0
M  V30 26 S -4.269423 -5.892631 -2.669330 0
M  V30 27 N -2.973824 -2.071340 -2.534357 0
M  V30 28 C -3.250713 -0.859866 -3.053518 0
M  V30 29 N -1.131260 2.019353 -2.018089 0
M  V30 30 C -0.100993 2.477250 -1.288495 0
M  V30 31 N 0.250891 3.852078 -1.334314 0
M  V30 32 C 1.302635 4.525892 -0.642657 0
M  V30 33 C 0.920235 5.857934 -0.054802 0
M  V30 34 O -0.301317 6.339369 -0.490027 0
M  V30 35 C -0.305076 6.194344 -1.879559 0
M  V30 36 C -0.516381 4.746916 -2.175813 0
M  V30 37 C 0.563037 1.545499 -0.523689 0
M  V30 38 H 4.067743 -1.111653 6.109893 0
M  V30 39 H 3.149833 -0.442844 4.766212 0
M  V30 40 H 4.754850 -1.353634 4.509942 0
M  V30 41 H 2.607703 -2.833783 6.015720 0
M  V30 42 H 3.974283 -3.382321 5.074316 0
M  V30 43 H 2.523222 -5.041097 4.223890 0
M  V30 44 H 1.284756 -4.596779 3.037453 0
M  V30 45 H 1.051900 -4.332860 6.084780 0
M  V30 46 H -0.122167 -3.631740 4.927066 0
M  V30 47 H 0.227622 -5.397690 4.925014 0
M  V30 48 H 1.113528 -2.683826 2.342631 0
M  V30 49 H 0.775784 -1.072611 4.696232 0
M  V30 50 H 1.297782 -0.014153 3.305945 0
M  V30 51 H -0.128598 -1.034218 3.188642 0
M  V30 52 H 3.187500 -2.325945 1.402584 0
M  V30 53 H 3.603978 -0.915626 2.474064 0
M  V30 54 H 2.297274 0.480245 1.170256 0
M  V30 55 H -1.164326 -1.187142 -1.274450 0
M  V30 56 H -3.239827 2.303953 -3.810290 0
M  V30 57 H -5.828531 -1.714377 -4.952568 0
M  V30 58 H -5.378600 -3.911796 -4.052148 0
M  V30 59 H -1.751833 -4.063655 -1.050998 0
M  V30 60 H -1.566979 -6.505289 -0.309689 0
M  V30 61 H -3.260394 -8.156895 -1.295678 0
M  V30 62 H 2.141027 4.718687 -1.347923 0
M  V30 63 H 1.717897 3.894512 0.157094 0
M  V30 64 H 0.865463 5.766080 1.046958 0
M  V30 65 H 1.689336 6.642150 -0.241614 0
M  V30 66 H -1.148001 6.763242 -2.316590 0
M  V30 67 H 0.674535 6.571390 -2.234015 0
M  V30 68 H -0.293943 4.593532 -3.266304 0
M  V30 69 H -1.590703 4.526076 -1.991555 0
M  V30 70 H 1.391281 1.901940 0.065277 0
M  V30 END ATOM
M  V30 BEGIN BOND
M  V30 1 1 1 2
M  V30 2 1 2 3
M  V30 3 1 3 4
M  V30 4 1 4 5
M  V30 5 1 3 6
M  V30 6 1 6 7
M  V30 7 1 6 8
M  V30 8 1 8 9
M  V30 9 1 9 10
M  V30 10 2 10 11
M  V30 11 1 10 12
M  V30 12 2 12 13
M  V30 13 1 13 14
M  V30 14 1 14 15
M  V30 15 1 15 16
M  V30 16 2 16 17
M  V30 17 1 17 18
M  V30 18 1 18 19
M  V30 19 2 19 20
M  V30 20 1 20 21
M  V30 21 1 21 22
M  V30 22 2 22 23
M  V30 23 1 23 24
M  V30 24 2 24 25
M  V30 25 1 25 26
M  V30 26 2 21 27
M  V30 27 1 27 28
M  V30 28 2 14 29
M  V30 29 1 29 30
M  V30 30 1 30 31
M  V30 31 1 31 32
M  V30 32 1 32 33
M  V30 33 1 33 34
M  V30 34 1 34 35
M  V30 35 1 35 36
M  V30 36 2 30 37
M  V30 37 1 37 12
M  V30 38 2 28 15
M  V30 39 1 36 31
M  V30 40 1 28 18
M  V30 41 1 26 22
M  V30 42 1 1 38
M  V30 43 1 1 39
M  V30 44 1 1 40
M  V30 45 1 2 41
M  V30 46 1 2 42
M  V30 47 1 4 43
M  V30 48 1 4 44
M  V30 49 1 5 45
M  V30 50 1 5 46
M  V30 51 1 5 47
M  V30 52 1 6 48 CFG=3
M  V30 53 1 7 49
M  V30 54 1 7 50
M  V30 55 1 7 51
M  V30 56 1 8 52
M  V30 57 1 8 53
M  V30 58 1 9 54
M  V30 59 1 13 55
M  V30 60 1 16 56
M  V30 61 1 19 57
M  V30 62 1 20 58
M  V30 63 1 23 59
M  V30 64 1 24 60
M  V30 65 1 25 61
M  V30 66 1 32 62
M  V30 67 1 32 63
M  V30 68 1 33 64
M  V30 69 1 33 65
M  V30 70 1 35 66
M  V30 71 1 35 67
M  V30 72 1 36 68
M  V30 73 1 36 69
M  V30 74 1 37 70
M  V30 END BOND
M  V30 END CTAB
M  END
>  <Dataset>  (695) 
ChEMBL_Kinases

>  <Ligand_Instance>  (695) 
nan

>  <PDB_ID>  (695) 
nan

>  <Standardized_SMILES>  (695) 
CCN(CC)[C@@H](C)CNC(=O)c1cc(-c2cnn3ccc(-c4cccs4)nc23)nc(N2CCOCC2)c1

>  <Name>  (695) 
nan

>  <Pocket>  (695) 
nan

>  <ATP_Site>  (695) 
nan

>  <Peripheral>  (695) 
nan

>  <Num_H_Atoms_ProtBoundConf>  (695) 
nan

>  <Num_Resolved_Atoms>  (695) 
nan

>  <Num_Not_Resolved_Atoms>  (695) 
nan

$$$$
CHEMBL4205988
     RDKit          3D

  0  0  0  0  0  0  0  0  0  0999 V3000
M  V30 BEGIN CTAB
M  V30 COUNTS 49 51 0 0 0
M  V30 BEGIN ATOM
M  V30 1 C 2.556272 -6.269565 0.834892 0
M  V30 2 N 2.311032 -5.262704 -0.151596 0
M  V30 3 C 2.283256 -5.624791 -1.559573 0
M  V30 4 C 2.090837 -3.891724 0.215375 0
M  V30 5 C 2.113960 -3.516534 1.541932 0
M  V30 6 C 1.902537 -2.214434 1.867403 0
M  V30 7 C 1.672055 -1.317073 0.848549 0
M  V30 8 C 1.632977 -1.610622 -0.493792 0
M  V30 9 N 1.392697 -0.710440 -1.547999 0
M  V30 10 C 1.068510 0.666272 -1.454893 0
M  V30 11 N 0.899789 1.396111 -2.570544 0
M  V30 12 C 0.594030 2.685061 -2.608445 0
M  V30 13 C 0.429567 3.357787 -1.434309 0
M  V30 14 C 0.588273 2.668428 -0.250872 0
M  V30 15 N 0.431236 3.336004 0.993681 0
M  V30 16 C 0.540479 2.685683 2.283562 0
M  V30 17 C -0.550320 1.633678 2.419129 0
M  V30 18 O -1.784353 2.320035 2.303365 0
M  V30 19 C -3.010349 1.681106 2.378884 0
M  V30 20 C -4.222589 2.334231 2.268463 0
M  V30 21 C -5.411111 1.606157 2.357478 0
M  V30 22 C -5.381548 0.240913 2.554698 0
M  V30 23 C -4.165677 -0.426767 2.667256 0
M  V30 24 C -2.992504 0.307785 2.577057 0
M  V30 25 N 0.895060 1.377450 -0.347174 0
M  V30 26 C 1.854828 -2.945517 -0.754343 0
M  V30 27 H 2.359495 -7.266837 0.388633 0
M  V30 28 H 3.607444 -6.217139 1.186348 0
M  V30 29 H 1.855204 -6.107946 1.701239 0
M  V30 30 H 1.286545 -5.485507 -2.000897 0
M  V30 31 H 3.055289 -5.035495 -2.132787 0
M  V30 32 H 2.568754 -6.670187 -1.687256 0
M  V30 33 H 2.296151 -4.226356 2.339856 0
M  V30 34 H 1.917200 -1.901566 2.905819 0
M  V30 35 H 1.513668 -0.295879 1.161737 0
M  V30 36 H 1.462125 -1.103953 -2.517006 0
M  V30 37 H 0.471766 3.217198 -3.550259 0
M  V30 38 H 0.178517 4.416039 -1.432326 0
M  V30 39 H 0.224197 4.356899 0.990697 0
M  V30 40 H 1.553091 2.183673 2.261683 0
M  V30 41 H 0.535853 3.405525 3.099384 0
M  V30 42 H -0.442932 1.035004 3.323015 0
M  V30 43 H -0.469418 0.968779 1.551323 0
M  V30 44 H -4.239334 3.398120 2.114900 0
M  V30 45 H -6.364783 2.107497 2.272373 0
M  V30 46 H -6.283117 -0.382025 2.632620 0
M  V30 47 H -4.050083 -1.497071 2.823353 0
M  V30 48 H -2.029936 -0.212149 2.664864 0
M  V30 49 H 1.848265 -3.300601 -1.789896 0
M  V30 END ATOM
M  V30 BEGIN BOND
M  V30 1 1 1 2
M  V30 2 1 2 3
M  V30 3 1 2 4
M  V30 4 2 4 5
M  V30 5 1 5 6
M  V30 6 2 6 7
M  V30 7 1 7 8
M  V30 8 1 8 9
M  V30 9 1 9 10
M  V30 10 2 10 11
M  V30 11 1 11 12
M  V30 12 2 12 13
M  V30 13 1 13 14
M  V30 14 1 14 15
M  V30 15 1 15 16
M  V30 16 1 16 17
M  V30 17 1 17 18
M  V30 18 1 18 19
M  V30 19 2 19 20
M  V30 20 1 20 21
M  V30 21 2 21 22
M  V30 22 1 22 23
M  V30 23 2 23 24
M  V30 24 2 14 25
M  V30 25 2 8 26
M  V30 26 1 26 4
M  V30 27 1 25 10
M  V30 28 1 24 19
M  V30 29 1 1 27
M  V30 30 1 1 28
M  V30 31 1 1 29
M  V30 32 1 3 30
M  V30 33 1 3 31
M  V30 34 1 3 32
M  V30 35 1 5 33
M  V30 36 1 6 34
M  V30 37 1 7 35
M  V30 38 1 9 36
M  V30 39 1 12 37
M  V30 40 1 13 38
M  V30 41 1 15 39
M  V30 42 1 16 40
M  V30 43 1 16 41
M  V30 44 1 17 42
M  V30 45 1 17 43
M  V30 46 1 20 44
M  V30 47 1 21 45
M  V30 48 1 22 46
M  V30 49 1 23 47
M  V30 50 1 24 48
M  V30 51 1 26 49
M  V30 END BOND
M  V30 END CTAB
M  END
>  <Dataset>  (696) 
ChEMBL_Kinases

>  <Ligand_Instance>  (696) 
nan

>  <PDB_ID>  (696) 
nan

>  <Standardized_SMILES>  (696) 
CN(C)c1cccc(Nc2nccc(NCCOc3ccccc3)n2)c1

>  <Name>  (696) 
nan

>  <Pocket>  (696) 
nan

>  <ATP_Site>  (696) 
nan

>  <Peripheral>  (696) 
nan

>  <Num_H_Atoms_ProtBoundConf>  (696) 
nan

>  <Num_Resolved_Atoms>  (696) 
nan

>  <Num_Not_Resolved_Atoms>  (696) 
nan

$$$$
CHEMBL4205979
     RDKit          3D

  0  0  0  0  0  0  0  0  0  0999 V3000
M  V30 BEGIN CTAB
M  V30 COUNTS 43 47 0 0 0
M  V30 BEGIN ATOM
M  V30 1 C -0.151019 -7.401921 0.525577 0
M  V30 2 C -0.116387 -6.097979 -0.184363 0
M  V30 3 C -0.417423 -6.088813 -1.548726 0
M  V30 4 C -0.381902 -4.876292 -2.189467 0
M  V30 5 C -0.069795 -3.678833 -1.571872 0
M  V30 6 C 0.216263 -3.760625 -0.227181 0
M  V30 7 C 0.561750 -2.567897 0.536363 0
M  V30 8 N 0.593815 -1.382680 -0.085655 0
M  V30 9 C 0.908605 -0.252597 0.576808 0
M  V30 10 N 0.921610 0.948131 -0.166191 0
M  V30 11 C 1.084717 2.342055 0.011611 0
M  V30 12 C 2.117254 3.075132 -0.564075 0
M  V30 13 C 2.211392 4.445336 -0.360292 0
M  V30 14 N 1.289629 5.054495 0.402024 0
M  V30 15 C 0.271362 4.403667 0.983947 0
M  V30 16 C -0.629626 5.139622 1.757117 0
M  V30 17 C -1.669403 4.423855 2.341705 0
M  V30 18 C -1.834848 3.055414 2.187882 0
M  V30 19 C -0.909194 2.410104 1.415187 0
M  V30 20 C 0.160330 3.043406 0.793907 0
M  V30 21 C 1.192947 -0.384646 1.914166 0
M  V30 22 C 1.549922 0.554547 2.852886 0
M  V30 23 C 1.742560 -0.035872 4.067782 0
M  V30 24 C 1.494900 -1.376260 3.858151 0
M  V30 25 N 1.168911 -1.564862 2.567052 0
M  V30 26 N 0.852115 -2.606442 1.841493 0
M  V30 27 N 0.189960 -4.932788 0.427974 0
M  V30 28 H 0.373194 -8.153782 -0.082227 0
M  V30 29 H 0.434105 -7.280625 1.468862 0
M  V30 30 H -1.168181 -7.699778 0.824757 0
M  V30 31 H -0.668294 -7.002303 -2.077787 0
M  V30 32 H -0.607748 -4.817578 -3.250008 0
M  V30 33 H -0.044751 -2.730415 -2.083923 0
M  V30 34 H 0.767255 0.912048 -1.196080 0
M  V30 35 H 2.839281 2.568674 -1.166614 0
M  V30 36 H 3.050910 4.949398 -0.846045 0
M  V30 37 H -0.528377 6.213289 1.898882 0
M  V30 38 H -2.389392 4.983989 2.955154 0
M  V30 39 H -2.650443 2.531665 2.654009 0
M  V30 40 H -1.046760 1.343898 1.300201 0
M  V30 41 H 1.678810 1.613362 2.699115 0
M  V30 42 H 2.030045 0.460912 4.997243 0
M  V30 43 H 1.556867 -2.159392 4.629441 0
M  V30 END ATOM
M  V30 BEGIN BOND
M  V30 1 1 1 2
M  V30 2 2 2 3
M  V30 3 1 3 4
M  V30 4 2 4 5
M  V30 5 1 5 6
M  V30 6 1 6 7
M  V30 7 1 7 8
M  V30 8 2 8 9
M  V30 9 1 9 10
M  V30 10 1 10 11
M  V30 11 2 11 12
M  V30 12 1 12 13
M  V30 13 2 13 14
M  V30 14 1 14 15
M  V30 15 2 15 16
M  V30 16 1 16 17
M  V30 17 2 17 18
M  V30 18 1 18 19
M  V30 19 2 19 20
M  V30 20 1 9 21
M  V30 21 2 21 22
M  V30 22 1 22 23
M  V30 23 2 23 24
M  V30 24 1 24 25
M  V30 25 1 25 26
M  V30 26 2 6 27
M  V30 27 1 27 2
M  V30 28 2 26 7
M  V30 29 1 20 11
M  V30 30 1 25 21
M  V30 31 1 20 15
M  V30 32 1 1 28
M  V30 33 1 1 29
M  V30 34 1 1 30
M  V30 35 1 3 31
M  V30 36 1 4 32
M  V30 37 1 5 33
M  V30 38 1 10 34
M  V30 39 1 12 35
M  V30 40 1 13 36
M  V30 41 1 16 37
M  V30 42 1 17 38
M  V30 43 1 18 39
M  V30 44 1 19 40
M  V30 45 1 22 41
M  V30 46 1 23 42
M  V30 47 1 24 43
M  V30 END BOND
M  V30 END CTAB
M  END
>  <Dataset>  (697) 
ChEMBL_Kinases

>  <Ligand_Instance>  (697) 
nan

>  <PDB_ID>  (697) 
nan

>  <Standardized_SMILES>  (697) 
Cc1cccc(-c2nc(Nc3ccnc4ccccc34)c3cccn3n2)n1

>  <Name>  (697) 
nan

>  <Pocket>  (697) 
nan

>  <ATP_Site>  (697) 
nan

>  <Peripheral>  (697) 
nan

>  <Num_H_Atoms_ProtBoundConf>  (697) 
nan

>  <Num_Resolved_Atoms>  (697) 
nan

>  <Num_Not_Resolved_Atoms>  (697) 
nan

$$$$
CHEMBL4205942
     RDKit          3D

  0  0  0  0  0  0  0  0  0  0999 V3000
M  V30 BEGIN CTAB
M  V30 COUNTS 80 85 0 0 0
M  V30 BEGIN ATOM
M  V30 1 C 3.013037 -7.795080 -0.754076 0
M  V30 2 C 3.336821 -6.646377 -1.632080 0
M  V30 3 C 3.956729 -6.801935 -2.849839 0
M  V30 4 C 4.261823 -5.712468 -3.663736 0
M  V30 5 C 3.946457 -4.426233 -3.267274 0
M  V30 6 N 4.246806 -3.243046 -4.042670 0
M  V30 7 C 3.752196 -1.993660 -3.510744 0
M  V30 8 N 2.666616 -1.350775 -4.024985 0
M  V30 9 C 2.236453 -0.189377 -3.448290 0
M  V30 10 C 2.890333 0.329767 -2.357859 0
M  V30 11 C 4.005128 -0.343432 -1.835448 0
M  V30 12 N 4.421777 -1.501937 -2.426937 0
M  V30 13 N 4.671593 0.040783 -0.638356 0
M  V30 14 C 5.834347 -0.714093 -0.197927 0
M  V30 15 C 4.203659 1.158275 0.117014 0
M  V30 16 O 4.754300 1.552440 1.174667 0
M  V30 17 N 3.059700 1.788044 -0.427714 0
M  V30 18 C 2.239273 2.658639 0.360255 0
M  V30 19 C 1.115340 2.023475 0.931249 0
M  V30 20 C 0.139876 2.613570 1.749452 0
M  V30 21 N -0.890218 1.736793 2.165130 0
M  V30 22 C -1.109694 0.827752 3.235906 0
M  V30 23 O -0.179606 0.766853 4.034399 0
M  V30 24 C -2.381544 0.129127 3.200998 0
M  V30 25 C -3.434373 0.392598 2.355832 0
M  V30 26 C -4.592777 -0.314792 2.327605 0
M  V30 27 N -5.604571 0.078077 1.403158 0
M  V30 28 C -5.634155 1.377385 0.773062 0
M  V30 29 C -5.125635 1.173501 -0.636306 0
M  V30 30 C -5.485672 -0.205119 -1.156784 0
M  V30 31 O -5.694207 -0.085174 -2.525062 0
M  V30 32 C -6.766873 -0.718925 -0.536898 0
M  V30 33 C -6.695350 -0.792003 0.979069 0
M  V30 34 C -4.709718 -1.364056 3.209124 0
M  V30 35 C -3.653400 -1.652837 4.080014 0
M  V30 36 C -3.807144 -2.815419 5.026651 0
M  V30 37 F -4.377074 -3.876860 4.347207 0
M  V30 38 F -4.586060 -2.478582 6.101885 0
M  V30 39 F -2.564617 -3.219239 5.421956 0
M  V30 40 C -2.479573 -0.914581 4.089667 0
M  V30 41 C 0.344387 3.962377 1.995338 0
M  V30 42 C 1.437674 4.604848 1.447415 0
M  V30 43 C 2.349395 3.983606 0.661629 0
M  V30 44 C 3.518605 4.662599 0.068048 0
M  V30 45 C 2.492705 1.637215 -1.751092 0
M  V30 46 C 3.315699 -4.316251 -2.021135 0
M  V30 47 N 3.030927 -5.383633 -1.251459 0
M  V30 48 H 2.387493 -7.462374 0.123218 0
M  V30 49 H 3.905994 -8.276515 -0.345941 0
M  V30 50 H 2.377556 -8.495606 -1.338296 0
M  V30 51 H 4.206649 -7.800788 -3.175436 0
M  V30 52 H 4.739900 -5.803315 -4.611473 0
M  V30 53 H 4.802668 -3.454832 -4.922608 0
M  V30 54 H 1.358691 0.311839 -3.878024 0
M  V30 55 H 5.674580 -1.792529 -0.441712 0
M  V30 56 H 6.035439 -0.605423 0.893631 0
M  V30 57 H 6.764303 -0.435309 -0.721593 0
M  V30 58 H 0.993194 0.964229 0.713063 0
M  V30 59 H -1.496271 1.992346 1.357617 0
M  V30 60 H -3.306276 1.216318 1.684433 0
M  V30 61 H -6.714686 1.697414 0.707706 0
M  V30 62 H -5.032246 2.148186 1.281452 0
M  V30 63 H -5.516069 1.950058 -1.291484 0
M  V30 64 H -4.025584 1.279874 -0.616302 0
M  V30 65 H -4.673271 -0.911629 -0.985789 0
M  V30 66 H -5.062065 -0.662489 -3.012303 0
M  V30 67 H -7.606788 -0.110280 -0.906077 0
M  V30 68 H -6.920162 -1.751142 -0.906010 0
M  V30 69 H -7.631389 -0.374814 1.387809 0
M  V30 70 H -6.512315 -1.801480 1.356129 0
M  V30 71 H -5.634067 -1.925712 3.186096 0
M  V30 72 H -1.707439 -1.200882 4.795049 0
M  V30 73 H -0.427188 4.387651 2.630840 0
M  V30 74 H 1.539733 5.662131 1.678131 0
M  V30 75 H 3.715528 4.372950 -0.962107 0
M  V30 76 H 4.428771 4.576144 0.723583 0
M  V30 77 H 3.307752 5.774862 0.056277 0
M  V30 78 H 2.888452 2.489830 -2.350465 0
M  V30 79 H 1.397312 1.704533 -1.790459 0
M  V30 80 H 3.043819 -3.333634 -1.655206 0
M  V30 END ATOM
M  V30 BEGIN BOND
M  V30 1 1 1 2
M  V30 2 2 2 3
M  V30 3 1 3 4
M  V30 4 2 4 5
M  V30 5 1 5 6
M  V30 6 1 6 7
M  V30 7 2 7 8
M  V30 8 1 8 9
M  V30 9 2 9 10
M  V30 10 1 10 11
M  V30 11 2 11 12
M  V30 12 1 11 13
M  V30 13 1 13 14
M  V30 14 1 13 15
M  V30 15 2 15 16
M  V30 16 1 15 17
M  V30 17 1 17 18
M  V30 18 2 18 19
M  V30 19 1 19 20
M  V30 20 1 20 21
M  V30 21 1 21 22
M  V30 22 2 22 23
M  V30 23 1 22 24
M  V30 24 2 24 25
M  V30 25 1 25 26
M  V30 26 1 26 27
M  V30 27 1 27 28
M  V30 28 1 28 29
M  V30 29 1 29 30
M  V30 30 1 30 31
M  V30 31 1 30 32
M  V30 32 1 32 33
M  V30 33 2 26 34
M  V30 34 1 34 35
M  V30 35 1 35 36
M  V30 36 1 36 37
M  V30 37 1 36 38
M  V30 38 1 36 39
M  V30 39 2 35 40
M  V30 40 2 20 41
M  V30 41 1 41 42
M  V30 42 2 42 43
M  V30 43 1 43 44
M  V30 44 1 17 45
M  V30 45 1 5 46
M  V30 46 2 46 47
M  V30 47 1 47 2
M  V30 48 1 12 7
M  V30 49 1 43 18
M  V30 50 1 45 10
M  V30 51 1 40 24
M  V30 52 1 33 27
M  V30 53 1 1 48
M  V30 54 1 1 49
M  V30 55 1 1 50
M  V30 56 1 3 51
M  V30 57 1 4 52
M  V30 58 1 6 53
M  V30 59 1 9 54
M  V30 60 1 14 55
M  V30 61 1 14 56
M  V30 62 1 14 57
M  V30 63 1 19 58
M  V30 64 1 21 59
M  V30 65 1 25 60
M  V30 66 1 28 61
M  V30 67 1 28 62
M  V30 68 1 29 63
M  V30 69 1 29 64
M  V30 70 1 30 65
M  V30 71 1 31 66
M  V30 72 1 32 67
M  V30 73 1 32 68
M  V30 74 1 33 69
M  V30 75 1 33 70
M  V30 76 1 34 71
M  V30 77 1 40 72
M  V30 78 1 41 73
M  V30 79 1 42 74
M  V30 80 1 44 75
M  V30 81 1 44 76
M  V30 82 1 44 77
M  V30 83 1 45 78
M  V30 84 1 45 79
M  V30 85 1 46 80
M  V30 END BOND
M  V30 END CTAB
M  END
>  <Dataset>  (698) 
ChEMBL_Kinases

>  <Ligand_Instance>  (698) 
nan

>  <PDB_ID>  (698) 
nan

>  <Standardized_SMILES>  (698) 
Cc1ccc(Nc2ncc3c(n2)N(C)C(=O)N(c2cc(NC(=O)c4cc(N5CCC(O)CC5)cc(C(F)(F)F)c4)ccc2C)C3)cn1

>  <Name>  (698) 
nan

>  <Pocket>  (698) 
nan

>  <ATP_Site>  (698) 
nan

>  <Peripheral>  (698) 
nan

>  <Num_H_Atoms_ProtBoundConf>  (698) 
nan

>  <Num_Resolved_Atoms>  (698) 
nan

>  <Num_Not_Resolved_Atoms>  (698) 
nan

$$$$
CHEMBL4205929
     RDKit          3D

  0  0  0  0  0  0  0  0  0  0999 V3000
M  V30 BEGIN CTAB
M  V30 COUNTS 53 57 0 0 0
M  V30 BEGIN ATOM
M  V30 1 C 3.475958 -2.145571 5.509517 0
M  V30 2 C 3.923623 -1.912555 4.092243 0
M  V30 3 C 4.671005 -2.845065 3.404741 0
M  V30 4 C 5.025362 -2.520296 2.108149 0
M  V30 5 C 4.681369 -1.340519 1.475407 0
M  V30 6 C 3.926522 -0.442281 2.224735 0
M  V30 7 C 3.477229 0.904517 1.640120 0
M  V30 8 N 2.216582 0.728276 1.034248 0
M  V30 9 C 0.967474 0.554095 0.433820 0
M  V30 10 N 0.108147 1.344645 -0.185520 0
M  V30 11 C -1.058838 0.953279 -0.695034 0
M  V30 12 N -1.790053 1.994981 -1.303542 0
M  V30 13 C -1.332999 3.361992 -1.416229 0
M  V30 14 C -2.465785 4.205767 -0.819206 0
M  V30 15 O -3.414559 3.453579 -0.172684 0
M  V30 16 C -4.061014 2.511171 -0.928061 0
M  V30 17 C -3.098702 1.778209 -1.875728 0
M  V30 18 N -1.354157 -0.332868 -0.555576 0
M  V30 19 C -0.582893 -1.246285 0.046198 0
M  V30 20 C 0.637252 -0.813407 0.573586 0
M  V30 21 N 1.147463 -1.949260 1.092454 0
M  V30 22 C 0.285317 -2.954874 0.878866 0
M  V30 23 N -0.814292 -2.550512 0.223549 0
M  V30 24 C -1.960726 -3.274823 -0.200247 0
M  V30 25 C -3.227786 -2.768590 -0.044953 0
M  V30 26 C -4.379384 -3.422747 -0.436068 0
M  V30 27 C -4.244961 -4.667703 -1.021461 0
M  V30 28 C -2.990517 -5.216726 -1.198306 0
M  V30 29 F -2.839095 -6.441784 -1.772413 0
M  V30 30 C -1.849479 -4.537731 -0.796151 0
M  V30 31 N 3.590168 -0.771997 3.481775 0
M  V30 32 H 3.202485 -1.152422 5.951953 0
M  V30 33 H 2.551443 -2.757834 5.518947 0
M  V30 34 H 4.290154 -2.621654 6.106587 0
M  V30 35 H 4.957851 -3.778928 3.870901 0
M  V30 36 H 5.620128 -3.260053 1.561662 0
M  V30 37 H 4.957209 -1.091163 0.470371 0
M  V30 38 H 3.522895 1.567477 2.537866 0
M  V30 39 H 4.282893 1.217686 0.925616 0
M  V30 40 H 2.245691 1.786627 0.826284 0
M  V30 41 H -0.387853 3.552656 -0.895704 0
M  V30 42 H -1.273908 3.671115 -2.499288 0
M  V30 43 H -1.998508 4.856721 -0.034331 0
M  V30 44 H -2.917286 4.890524 -1.562828 0
M  V30 45 H -4.965618 2.842504 -1.445094 0
M  V30 46 H -4.390294 1.698133 -0.213857 0
M  V30 47 H -3.164722 2.300398 -2.870838 0
M  V30 48 H -3.363354 0.722185 -1.958643 0
M  V30 49 H 0.469846 -3.988490 1.209055 0
M  V30 50 H -3.375254 -1.795788 0.410230 0
M  V30 51 H -5.385473 -3.048771 -0.327408 0
M  V30 52 H -5.078405 -5.268008 -1.364491 0
M  V30 53 H -0.882083 -4.991813 -0.947614 0
M  V30 END ATOM
M  V30 BEGIN BOND
M  V30 1 1 1 2
M  V30 2 2 2 3
M  V30 3 1 3 4
M  V30 4 2 4 5
M  V30 5 1 5 6
M  V30 6 1 6 7
M  V30 7 1 7 8
M  V30 8 1 8 9
M  V30 9 2 9 10
M  V30 10 1 10 11
M  V30 11 1 11 12
M  V30 12 1 12 13
M  V30 13 1 13 14
M  V30 14 1 14 15
M  V30 15 1 15 16
M  V30 16 1 16 17
M  V30 17 2 11 18
M  V30 18 1 18 19
M  V30 19 2 19 20
M  V30 20 1 20 21
M  V30 21 2 21 22
M  V30 22 1 22 23
M  V30 23 1 23 24
M  V30 24 2 24 25
M  V30 25 1 25 26
M  V30 26 2 26 27
M  V30 27 1 27 28
M  V30 28 1 28 29
M  V30 29 2 28 30
M  V30 30 2 6 31
M  V30 31 1 31 2
M  V30 32 1 20 9
M  V30 33 1 30 24
M  V30 34 1 17 12
M  V30 35 1 23 19
M  V30 36 1 1 32
M  V30 37 1 1 33
M  V30 38 1 1 34
M  V30 39 1 3 35
M  V30 40 1 4 36
M  V30 41 1 5 37
M  V30 42 1 7 38
M  V30 43 1 7 39
M  V30 44 1 8 40
M  V30 45 1 13 41
M  V30 46 1 13 42
M  V30 47 1 14 43
M  V30 48 1 14 44
M  V30 49 1 16 45
M  V30 50 1 16 46
M  V30 51 1 17 47
M  V30 52 1 17 48
M  V30 53 1 22 49
M  V30 54 1 25 50
M  V30 55 1 26 51
M  V30 56 1 27 52
M  V30 57 1 30 53
M  V30 END BOND
M  V30 END CTAB
M  END
>  <Dataset>  (699) 
ChEMBL_Kinases

>  <Ligand_Instance>  (699) 
nan

>  <PDB_ID>  (699) 
nan

>  <Standardized_SMILES>  (699) 
Cc1cccc(CNc2nc(N3CCOCC3)nc3c2ncn3-c2cccc(F)c2)n1

>  <Name>  (699) 
nan

>  <Pocket>  (699) 
nan

>  <ATP_Site>  (699) 
nan

>  <Peripheral>  (699) 
nan

>  <Num_H_Atoms_ProtBoundConf>  (699) 
nan

>  <Num_Resolved_Atoms>  (699) 
nan

>  <Num_Not_Resolved_Atoms>  (699) 
nan

$$$$
CHEMBL4205851
     RDKit          3D

  0  0  0  0  0  0  0  0  0  0999 V3000
M  V30 BEGIN CTAB
M  V30 COUNTS 43 47 0 0 0
M  V30 BEGIN ATOM
M  V30 1 N -1.288897 -5.440571 2.427895 0
M  V30 2 C -1.571840 -5.507734 0.993801 0
M  V30 3 C -0.969146 -4.360047 0.282989 0
M  V30 4 C 0.317635 -4.520588 -0.192306 0
M  V30 5 C 0.960379 -3.494870 -0.871151 0
M  V30 6 C 0.241613 -2.308294 -1.043492 0
M  V30 7 N 0.805667 -1.172930 -1.733043 0
M  V30 8 C 1.086016 -1.074165 -3.053243 0
M  V30 9 N 1.604306 0.148591 -3.310021 0
M  V30 10 C 1.654251 0.833293 -2.144572 0
M  V30 11 C 2.073309 2.092356 -1.784536 0
M  V30 12 C 1.979445 2.478240 -0.462968 0
M  V30 13 C 1.472415 1.638361 0.536336 0
M  V30 14 C 1.465798 2.254094 1.866327 0
M  V30 15 C 2.608127 2.942562 2.264596 0
M  V30 16 C 2.708792 3.566916 3.512357 0
M  V30 17 N 1.651312 3.498658 4.367907 0
M  V30 18 C 0.539521 2.838119 4.000768 0
M  V30 19 N -0.641525 2.620086 4.651025 0
M  V30 20 C -1.455014 1.883811 3.838039 0
M  V30 21 C -0.807474 1.611234 2.637955 0
M  V30 22 C 0.425008 2.218027 2.775318 0
M  V30 23 C 1.053719 0.374558 0.164365 0
M  V30 24 C 1.154287 0.005064 -1.159316 0
M  V30 25 C -1.051207 -2.142052 -0.567945 0
M  V30 26 C -1.671103 -3.177599 0.105238 0
M  V30 27 H -0.288132 -5.397361 2.649445 0
M  V30 28 H -1.667903 -6.325716 2.834699 0
M  V30 29 H -2.664154 -5.438802 0.885956 0
M  V30 30 H -1.209108 -6.489592 0.625745 0
M  V30 31 H 0.911128 -5.423725 -0.080609 0
M  V30 32 H 1.968445 -3.545642 -1.273450 0
M  V30 33 H 0.901188 -1.886241 -3.751199 0
M  V30 34 H 2.460717 2.730598 -2.555467 0
M  V30 35 H 2.330959 3.483489 -0.267747 0
M  V30 36 H 3.501385 3.055003 1.659656 0
M  V30 37 H 3.580172 4.094792 3.821967 0
M  V30 38 H -0.932268 2.934000 5.601957 0
M  V30 39 H -2.471325 1.537373 4.055887 0
M  V30 40 H -1.191129 1.050867 1.795829 0
M  V30 41 H 0.681910 -0.204223 0.975891 0
M  V30 42 H -1.605172 -1.232352 -0.698812 0
M  V30 43 H -2.677139 -3.126969 0.506720 0
M  V30 END ATOM
M  V30 BEGIN BOND
M  V30 1 1 1 2
M  V30 2 1 2 3
M  V30 3 2 3 4
M  V30 4 1 4 5
M  V30 5 2 5 6
M  V30 6 1 6 7
M  V30 7 1 7 8
M  V30 8 2 8 9
M  V30 9 1 9 10
M  V30 10 2 10 11
M  V30 11 1 11 12
M  V30 12 2 12 13
M  V30 13 1 13 14
M  V30 14 2 14 15
M  V30 15 1 15 16
M  V30 16 2 16 17
M  V30 17 1 17 18
M  V30 18 1 18 19
M  V30 19 1 19 20
M  V30 20 2 20 21
M  V30 21 1 21 22
M  V30 22 1 13 23
M  V30 23 2 23 24
M  V30 24 1 6 25
M  V30 25 2 25 26
M  V30 26 1 26 3
M  V30 27 1 24 7
M  V30 28 1 24 10
M  V30 29 1 22 14
M  V30 30 2 22 18
M  V30 31 1 1 27
M  V30 32 1 1 28
M  V30 33 1 2 29
M  V30 34 1 2 30
M  V30 35 1 4 31
M  V30 36 1 5 32
M  V30 37 1 8 33
M  V30 38 1 11 34
M  V30 39 1 12 35
M  V30 40 1 15 36
M  V30 41 1 16 37
M  V30 42 1 19 38
M  V30 43 1 20 39
M  V30 44 1 21 40
M  V30 45 1 23 41
M  V30 46 1 25 42
M  V30 47 1 26 43
M  V30 END BOND
M  V30 END CTAB
M  END
>  <Dataset>  (700) 
ChEMBL_Kinases

>  <Ligand_Instance>  (700) 
nan

>  <PDB_ID>  (700) 
nan

>  <Standardized_SMILES>  (700) 
NCc1ccc(-n2cnc3ccc(-c4ccnc5[nH]ccc45)cc32)cc1

>  <Name>  (700) 
nan

>  <Pocket>  (700) 
nan

>  <ATP_Site>  (700) 
nan

>  <Peripheral>  (700) 
nan

>  <Num_H_Atoms_ProtBoundConf>  (700) 
nan

>  <Num_Resolved_Atoms>  (700) 
nan

>  <Num_Not_Resolved_Atoms>  (700) 
nan

$$$$
CHEMBL4205811
     RDKit          3D

  0  0  0  0  0  0  0  0  0  0999 V3000
M  V30 BEGIN CTAB
M  V30 COUNTS 54 58 0 0 0
M  V30 BEGIN ATOM
M  V30 1 O 0.515897 -0.333858 1.081699 0
M  V30 2 C 0.042430 -0.270868 2.249553 0
M  V30 3 N 0.995753 -0.430937 3.291795 0
M  V30 4 C 2.425066 -0.652384 3.043492 0
M  V30 5 C 3.082918 0.442974 2.293212 0
M  V30 6 N 4.472359 0.306788 2.009927 0
M  V30 7 C 5.035144 1.443411 1.319010 0
M  V30 8 C 4.740690 1.425000 -0.160853 0
M  V30 9 O 4.358823 0.155839 -0.580130 0
M  V30 10 C 5.190882 -0.825307 -0.017647 0
M  V30 11 C 4.903247 -0.947212 1.468422 0
M  V30 12 C -1.377889 -0.050227 2.500362 0
M  V30 13 C -2.009697 0.039453 3.711741 0
M  V30 14 C -3.370665 0.250174 3.797733 0
M  V30 15 C -4.164858 0.381312 2.676105 0
M  V30 16 C -3.561533 0.296290 1.436122 0
M  V30 17 C -4.318695 0.420280 0.171197 0
M  V30 18 C -5.310517 1.315942 -0.234985 0
M  V30 19 N -5.662187 0.983871 -1.491447 0
M  V30 20 C -4.930248 -0.092210 -1.902756 0
M  V30 21 C -4.920681 -0.797187 -3.092763 0
M  V30 22 C -4.049655 -1.882438 -3.249560 0
M  V30 23 C -3.247380 -2.165287 -2.165096 0
M  V30 24 C -2.332737 -3.258413 -2.253176 0
M  V30 25 C -1.435683 -3.790921 -1.413172 0
M  V30 26 C -0.658172 -4.865329 -1.738247 0
M  V30 27 C -0.903012 -5.368090 -3.081026 0
M  V30 28 S -2.211428 -4.257451 -3.732334 0
M  V30 29 N -3.290616 -1.452431 -1.026962 0
M  V30 30 N -4.126837 -0.414703 -0.883625 0
M  V30 31 C -2.200038 0.085257 1.380530 0
M  V30 32 H 0.586541 -0.377102 4.272333 0
M  V30 33 H 2.895213 -0.674648 4.071007 0
M  V30 34 H 2.552440 -1.667928 2.665119 0
M  V30 35 H 2.588463 0.685353 1.315517 0
M  V30 36 H 2.982231 1.415260 2.859550 0
M  V30 37 H 6.137125 1.383407 1.431191 0
M  V30 38 H 4.695939 2.358738 1.822395 0
M  V30 39 H 3.922721 2.133891 -0.429190 0
M  V30 40 H 5.608499 1.727489 -0.786187 0
M  V30 41 H 4.952859 -1.766119 -0.552527 0
M  V30 42 H 6.222677 -0.485250 -0.133509 0
M  V30 43 H 4.225951 -1.792975 1.584573 0
M  V30 44 H 5.861570 -1.221126 1.968342 0
M  V30 45 H -1.395500 -0.062200 4.576852 0
M  V30 46 H -3.807290 0.311178 4.790335 0
M  V30 47 H -5.226927 0.545822 2.741062 0
M  V30 48 H -5.619179 2.076461 0.463131 0
M  V30 49 H -5.585148 -0.491386 -3.867837 0
M  V30 50 H -4.059234 -2.418493 -4.187959 0
M  V30 51 H -1.356904 -3.316596 -0.444314 0
M  V30 52 H 0.075099 -5.326731 -1.096221 0
M  V30 53 H -0.294124 -6.274610 -3.447346 0
M  V30 54 H -1.752745 0.022775 0.385263 0
M  V30 END ATOM
M  V30 BEGIN BOND
M  V30 1 2 1 2
M  V30 2 1 2 3
M  V30 3 1 3 4
M  V30 4 1 4 5
M  V30 5 1 5 6
M  V30 6 1 6 7
M  V30 7 1 7 8
M  V30 8 1 8 9
M  V30 9 1 9 10
M  V30 10 1 10 11
M  V30 11 1 2 12
M  V30 12 2 12 13
M  V30 13 1 13 14
M  V30 14 2 14 15
M  V30 15 1 15 16
M  V30 16 1 16 17
M  V30 17 2 17 18
M  V30 18 1 18 19
M  V30 19 2 19 20
M  V30 20 1 20 21
M  V30 21 2 21 22
M  V30 22 1 22 23
M  V30 23 1 23 24
M  V30 24 2 24 25
M  V30 25 1 25 26
M  V30 26 2 26 27
M  V30 27 1 27 28
M  V30 28 2 23 29
M  V30 29 1 29 30
M  V30 30 2 16 31
M  V30 31 1 11 6
M  V30 32 1 31 12
M  V30 33 1 30 17
M  V30 34 1 30 20
M  V30 35 1 28 24
M  V30 36 1 3 32
M  V30 37 1 4 33
M  V30 38 1 4 34
M  V30 39 1 5 35
M  V30 40 1 5 36
M  V30 41 1 7 37
M  V30 42 1 7 38
M  V30 43 1 8 39
M  V30 44 1 8 40
M  V30 45 1 10 41
M  V30 46 1 10 42
M  V30 47 1 11 43
M  V30 48 1 11 44
M  V30 49 1 13 45
M  V30 50 1 14 46
M  V30 51 1 15 47
M  V30 52 1 18 48
M  V30 53 1 21 49
M  V30 54 1 22 50
M  V30 55 1 25 51
M  V30 56 1 26 52
M  V30 57 1 27 53
M  V30 58 1 31 54
M  V30 END BOND
M  V30 END CTAB
M  END
>  <Dataset>  (701) 
ChEMBL_Kinases

>  <Ligand_Instance>  (701) 
nan

>  <PDB_ID>  (701) 
nan

>  <Standardized_SMILES>  (701) 
O=C(NCCN1CCOCC1)c1cccc(-c2cnc3ccc(-c4cccs4)nn23)c1

>  <Name>  (701) 
nan

>  <Pocket>  (701) 
nan

>  <ATP_Site>  (701) 
nan

>  <Peripheral>  (701) 
nan

>  <Num_H_Atoms_ProtBoundConf>  (701) 
nan

>  <Num_Resolved_Atoms>  (701) 
nan

>  <Num_Not_Resolved_Atoms>  (701) 
nan

$$$$
CHEMBL4205739
     RDKit          3D

  0  0  0  0  0  0  0  0  0  0999 V3000
M  V30 BEGIN CTAB
M  V30 COUNTS 27 30 0 0 0
M  V30 BEGIN ATOM
M  V30 1 C -1.503684 -3.329567 0.786691 0
M  V30 2 C -0.415628 -2.496661 0.715908 0
M  V30 3 C -0.544692 -1.110899 0.816514 0
M  V30 4 C 0.654640 -0.325802 0.712626 0
M  V30 5 C 0.982519 0.947465 1.065503 0
M  V30 6 C 2.198969 1.559543 0.934903 0
M  V30 7 C 3.225499 0.829586 0.389747 0
M  V30 8 N 4.516277 1.066922 0.107359 0
M  V30 9 C 5.034204 -0.073992 -0.437109 0
M  V30 10 C 4.038841 -1.026439 -0.487726 0
M  V30 11 N 2.924951 -0.430191 0.035349 0
M  V30 12 N 1.727326 -0.944215 0.194304 0
M  V30 13 C -1.841384 -0.717007 0.984668 0
M  V30 14 C -2.346279 0.550311 1.095101 0
M  V30 15 C -3.711249 0.491830 1.233286 0
M  V30 16 N -4.057370 -0.806858 1.207725 0
M  V30 17 C -2.932608 -1.525303 1.057272 0
M  V30 18 N -2.740444 -2.846226 0.955281 0
M  V30 19 H -1.376696 -4.392857 0.707429 0
M  V30 20 H 0.549723 -2.984017 0.577243 0
M  V30 21 H 0.208688 1.528521 1.521405 0
M  V30 22 H 2.337591 2.580682 1.252026 0
M  V30 23 H 6.056272 -0.219043 -0.776856 0
M  V30 24 H 4.167564 -2.039419 -0.877458 0
M  V30 25 H -1.870847 1.502187 1.075518 0
M  V30 26 H -4.420707 1.296824 1.344538 0
M  V30 27 H -5.015815 -1.229736 1.286988 0
M  V30 END ATOM
M  V30 BEGIN BOND
M  V30 1 2 1 2
M  V30 2 1 2 3
M  V30 3 1 3 4
M  V30 4 1 4 5
M  V30 5 2 5 6
M  V30 6 1 6 7
M  V30 7 2 7 8
M  V30 8 1 8 9
M  V30 9 2 9 10
M  V30 10 1 10 11
M  V30 11 1 11 12
M  V30 12 2 3 13
M  V30 13 1 13 14
M  V30 14 2 14 15
M  V30 15 1 15 16
M  V30 16 1 16 17
M  V30 17 2 17 18
M  V30 18 1 18 1
M  V30 19 2 12 4
M  V30 20 1 17 13
M  V30 21 1 11 7
M  V30 22 1 1 19
M  V30 23 1 2 20
M  V30 24 1 5 21
M  V30 25 1 6 22
M  V30 26 1 9 23
M  V30 27 1 10 24
M  V30 28 1 14 25
M  V30 29 1 15 26
M  V30 30 1 16 27
M  V30 END BOND
M  V30 END CTAB
M  END
>  <Dataset>  (702) 
ChEMBL_Kinases

>  <Ligand_Instance>  (702) 
nan

>  <PDB_ID>  (702) 
nan

>  <Standardized_SMILES>  (702) 
c1cc(-c2ccc3nccn3n2)c2cc[nH]c2n1

>  <Name>  (702) 
nan

>  <Pocket>  (702) 
nan

>  <ATP_Site>  (702) 
nan

>  <Peripheral>  (702) 
nan

>  <Num_H_Atoms_ProtBoundConf>  (702) 
nan

>  <Num_Resolved_Atoms>  (702) 
nan

>  <Num_Not_Resolved_Atoms>  (702) 
nan

$$$$
CHEMBL4784037
     RDKit          3D

  0  0  0  0  0  0  0  0  0  0999 V3000
M  V30 BEGIN CTAB
M  V30 COUNTS 86 89 0 0 0
M  V30 BEGIN ATOM
M  V30 1 C -5.437172 -4.695008 0.009800 0
M  V30 2 C -5.645458 -6.081468 -0.550133 0
M  V30 3 C -7.103523 -6.212495 -0.892756 0
M  V30 4 C -4.724076 -6.423854 -1.655840 0
M  V30 5 C -4.772875 -5.572179 -2.869815 0
M  V30 6 N -4.483183 -4.184739 -2.682595 0
M  V30 7 C -3.241249 -3.732061 -2.155568 0
M  V30 8 O -2.319502 -4.491435 -1.816528 0
M  V30 9 C -2.943364 -2.232627 -1.961629 0 CFG=2
M  V30 10 C -3.100662 -1.538275 -3.236654 0
M  V30 11 C -2.871685 -0.097984 -3.316376 0
M  V30 12 C -3.675884 0.882768 -2.579175 0
M  V30 13 C -3.176283 2.290361 -2.975469 0
M  V30 14 C -1.886362 2.657177 -2.333135 0
M  V30 15 C -1.936904 2.539796 -0.817161 0
M  V30 16 C -2.291202 1.064492 -0.542014 0
M  V30 17 C -3.686981 0.865075 -1.092038 0
M  V30 18 N -1.613948 -2.256338 -1.379183 0
M  V30 19 C -1.412931 -2.129708 0.042680 0
M  V30 20 O -2.523233 -2.002437 0.662603 0
M  V30 21 C -0.136845 -2.141357 0.707823 0
M  V30 22 C 1.089607 -2.263316 0.111949 0
M  V30 23 C 2.260351 -2.265618 0.839269 0
M  V30 24 C 2.252979 -2.145143 2.200783 0
M  V30 25 C 3.409379 -2.131376 3.131723 0
M  V30 26 N 3.926192 -0.801598 3.383143 0
M  V30 27 C 4.725686 -0.015899 2.532264 0
M  V30 28 O 5.056708 -0.478518 1.411115 0
M  V30 29 C 5.161353 1.302617 2.938402 0
M  V30 30 C 4.858506 1.920280 4.149504 0
M  V30 31 N 5.445322 3.135367 4.149459 0
M  V30 32 N 6.098440 3.318832 3.011935 0
M  V30 33 C 6.817681 4.516324 2.732105 0
M  V30 34 C 6.045243 5.491313 2.098530 0
M  V30 35 C 6.606626 6.716662 1.758713 0
M  V30 36 C 7.944582 6.941952 2.064445 0
M  V30 37 C 8.725069 5.970613 2.698899 0
M  V30 38 C 8.150141 4.758264 3.029195 0
M  V30 39 C 5.942538 2.203198 2.240998 0
M  V30 40 N 6.496580 2.034351 0.958388 0
M  V30 41 C 1.010636 -2.018624 2.834420 0
M  V30 42 C -0.149967 -2.019271 2.082366 0
M  V30 43 H -4.379471 -4.606532 0.355683 0
M  V30 44 H -6.039732 -4.650141 0.954509 0
M  V30 45 H -5.755140 -3.886914 -0.660434 0
M  V30 46 H -5.479262 -6.783456 0.312699 0
M  V30 47 H -7.416413 -7.255788 -1.108216 0
M  V30 48 H -7.649551 -5.926181 0.052423 0
M  V30 49 H -7.453771 -5.508173 -1.658928 0
M  V30 50 H -4.908044 -7.485166 -1.977258 0
M  V30 51 H -3.682233 -6.469885 -1.224472 0
M  V30 52 H -4.005421 -5.950193 -3.601524 0
M  V30 53 H -5.748985 -5.657323 -3.385355 0
M  V30 54 H -5.184001 -3.424069 -2.932004 0
M  V30 55 H -3.674976 -1.915120 -1.212239 0
M  V30 56 H -2.541460 -2.097629 -4.056863 0
M  V30 57 H -4.186050 -1.760054 -3.566741 0
M  V30 58 H -3.016250 0.177267 -4.426416 0
M  V30 59 H -1.752150 0.111484 -3.220079 0
M  V30 60 H -4.727986 0.840238 -2.930621 0
M  V30 61 H -3.966609 3.027196 -2.737035 0
M  V30 62 H -3.042407 2.286022 -4.072377 0
M  V30 63 H -1.714747 3.734311 -2.535275 0
M  V30 64 H -1.027597 2.111075 -2.740832 0
M  V30 65 H -0.953429 2.801561 -0.433148 0
M  V30 66 H -2.781146 3.140741 -0.433387 0
M  V30 67 H -1.515598 0.490622 -1.092397 0
M  V30 68 H -2.201966 0.805991 0.521485 0
M  V30 69 H -4.297466 0.130720 -0.589866 0
M  V30 70 H -4.211749 1.859185 -0.814073 0
M  V30 71 H -0.756301 -2.365890 -1.968565 0
M  V30 72 H 1.113865 -2.359433 -0.964941 0
M  V30 73 H 3.239836 -2.360011 0.395561 0
M  V30 74 H 4.255315 -2.699451 2.675909 0
M  V30 75 H 3.185320 -2.650933 4.082855 0
M  V30 76 H 3.671738 -0.374808 4.312523 0
M  V30 77 H 4.259464 1.509471 4.958309 0
M  V30 78 H 4.999139 5.392165 1.827132 0
M  V30 79 H 6.039888 7.503528 1.264631 0
M  V30 80 H 8.417231 7.880672 1.817637 0
M  V30 81 H 9.755742 6.121819 2.944127 0
M  V30 82 H 8.685393 3.940428 3.527342 0
M  V30 83 H 7.546463 2.096525 0.918066 0
M  V30 84 H 6.088813 1.855223 0.016152 0
M  V30 85 H 0.915332 -1.918104 3.908296 0
M  V30 86 H -1.106484 -1.917104 2.620643 0
M  V30 END ATOM
M  V30 BEGIN BOND
M  V30 1 1 1 2
M  V30 2 1 2 3
M  V30 3 1 2 4
M  V30 4 1 4 5
M  V30 5 1 5 6
M  V30 6 1 6 7
M  V30 7 2 7 8
M  V30 8 1 7 9
M  V30 9 1 9 10
M  V30 10 1 10 11
M  V30 11 1 11 12
M  V30 12 1 12 13
M  V30 13 1 13 14
M  V30 14 1 14 15
M  V30 15 1 15 16
M  V30 16 1 16 17
M  V30 17 1 9 18
M  V30 18 1 18 19
M  V30 19 2 19 20
M  V30 20 1 19 21
M  V30 21 2 21 22
M  V30 22 1 22 23
M  V30 23 2 23 24
M  V30 24 1 24 25
M  V30 25 1 25 26
M  V30 26 1 26 27
M  V30 27 2 27 28
M  V30 28 1 27 29
M  V30 29 1 29 30
M  V30 30 2 30 31
M  V30 31 1 31 32
M  V30 32 1 32 33
M  V30 33 2 33 34
M  V30 34 1 34 35
M  V30 35 2 35 36
M  V30 36 1 36 37
M  V30 37 2 37 38
M  V30 38 1 32 39
M  V30 39 1 39 40
M  V30 40 1 24 41
M  V30 41 2 41 42
M  V30 42 1 17 12
M  V30 43 1 42 21
M  V30 44 2 39 29
M  V30 45 1 38 33
M  V30 46 1 1 43
M  V30 47 1 1 44
M  V30 48 1 1 45
M  V30 49 1 2 46
M  V30 50 1 3 47
M  V30 51 1 3 48
M  V30 52 1 3 49
M  V30 53 1 4 50
M  V30 54 1 4 51
M  V30 55 1 5 52
M  V30 56 1 5 53
M  V30 57 1 6 54
M  V30 58 1 9 55 CFG=1
M  V30 59 1 10 56
M  V30 60 1 10 57
M  V30 61 1 11 58
M  V30 62 1 11 59
M  V30 63 1 12 60
M  V30 64 1 13 61
M  V30 65 1 13 62
M  V30 66 1 14 63
M  V30 67 1 14 64
M  V30 68 1 15 65
M  V30 69 1 15 66
M  V30 70 1 16 67
M  V30 71 1 16 68
M  V30 72 1 17 69
M  V30 73 1 17 70
M  V30 74 1 18 71
M  V30 75 1 22 72
M  V30 76 1 23 73
M  V30 77 1 25 74
M  V30 78 1 25 75
M  V30 79 1 26 76
M  V30 80 1 30 77
M  V30 81 1 34 78
M  V30 82 1 35 79
M  V30 83 1 36 80
M  V30 84 1 37 81
M  V30 85 1 38 82
M  V30 86 1 40 83
M  V30 87 1 40 84
M  V30 88 1 41 85
M  V30 89 1 42 86
M  V30 END BOND
M  V30 END CTAB
M  END
>  <Dataset>  (703) 
ChEMBL_Kinases

>  <Ligand_Instance>  (703) 
nan

>  <PDB_ID>  (703) 
nan

>  <Standardized_SMILES>  (703) 
CC(C)CCNC(=O)[C@H](CCC1CCCCC1)NC(=O)c1ccc(CNC(=O)c2cnn(-c3ccccc3)c2N)cc1

>  <Name>  (703) 
nan

>  <Pocket>  (703) 
nan

>  <ATP_Site>  (703) 
nan

>  <Peripheral>  (703) 
nan

>  <Num_H_Atoms_ProtBoundConf>  (703) 
nan

>  <Num_Resolved_Atoms>  (703) 
nan

>  <Num_Not_Resolved_Atoms>  (703) 
nan

$$$$
CHEMBL4205708
     RDKit          3D

  0  0  0  0  0  0  0  0  0  0999 V3000
M  V30 BEGIN CTAB
M  V30 COUNTS 54 57 0 0 0
M  V30 BEGIN ATOM
M  V30 1 C 4.144598 -1.077226 5.078136 0
M  V30 2 C 4.195631 0.444166 5.062290 0
M  V30 3 N 3.720311 0.907982 3.745413 0
M  V30 4 C 3.803507 2.371257 3.808083 0
M  V30 5 C 2.745108 2.829875 4.803474 0
M  V30 6 C 4.635803 0.469323 2.716298 0
M  V30 7 C 4.149132 0.786972 1.319531 0
M  V30 8 N 2.877380 0.103156 1.175672 0
M  V30 9 C 2.119909 0.165322 -0.007416 0
M  V30 10 O 2.635774 0.862878 -0.941453 0
M  V30 11 C 0.831180 -0.491833 -0.225124 0
M  V30 12 C 0.212343 -1.266727 0.740509 0
M  V30 13 C -1.003940 -1.875096 0.535741 0
M  V30 14 N -1.611434 -1.711377 -0.641767 0
M  V30 15 C -1.033938 -0.959328 -1.609468 0
M  V30 16 C -1.753961 -0.801631 -2.893538 0
M  V30 17 C -1.315909 -0.090849 -3.989748 0
M  V30 18 N -2.290002 -0.211387 -4.925662 0
M  V30 19 N -3.284725 -0.950075 -4.459450 0
M  V30 20 C -4.450990 -1.348339 -4.990003 0
M  V30 21 C -5.375794 -2.144446 -4.301166 0
M  V30 22 C -4.994966 -2.489957 -3.030543 0
M  V30 23 C -5.860604 -3.308949 -2.222283 0
M  V30 24 C -5.738321 -3.791824 -0.970628 0
M  V30 25 C -6.712144 -4.564251 -0.406028 0
M  V30 26 C -7.883541 -4.801211 -1.306913 0
M  V30 27 S -7.400448 -3.859207 -2.859515 0
M  V30 28 N -3.834362 -2.105114 -2.476225 0
M  V30 29 C -2.986072 -1.335341 -3.197702 0
M  V30 30 C 0.195032 -0.321791 -1.454838 0
M  V30 31 H 5.146152 -1.507833 4.892119 0
M  V30 32 H 3.789138 -1.414927 6.073015 0
M  V30 33 H 3.406718 -1.437767 4.318773 0
M  V30 34 H 5.228755 0.775031 5.271960 0
M  V30 35 H 3.450303 0.787927 5.814335 0
M  V30 36 H 3.676729 2.855810 2.827870 0
M  V30 37 H 4.813168 2.677476 4.197941 0
M  V30 38 H 1.894181 2.098598 4.803540 0
M  V30 39 H 3.203441 2.804461 5.797322 0
M  V30 40 H 2.424881 3.842182 4.493489 0
M  V30 41 H 5.587676 1.058356 2.926246 0
M  V30 42 H 4.876518 -0.582266 2.859865 0
M  V30 43 H 4.059460 1.852546 1.135249 0
M  V30 44 H 4.932303 0.403986 0.629325 0
M  V30 45 H 2.440722 -0.482169 1.943581 0
M  V30 46 H 0.667775 -1.419419 1.692502 0
M  V30 47 H -1.488659 -2.476374 1.280080 0
M  V30 48 H -0.371120 0.427727 -4.012055 0
M  V30 49 H -4.729156 -1.063454 -5.994280 0
M  V30 50 H -6.294231 -2.433028 -4.776381 0
M  V30 51 H -4.835338 -3.540557 -0.435097 0
M  V30 52 H -6.642244 -4.964713 0.593524 0
M  V30 53 H -8.709577 -5.491492 -0.752105 0
M  V30 54 H 0.628808 0.271474 -2.247795 0
M  V30 END ATOM
M  V30 BEGIN BOND
M  V30 1 1 1 2
M  V30 2 1 2 3
M  V30 3 1 3 4
M  V30 4 1 4 5
M  V30 5 1 3 6
M  V30 6 1 6 7
M  V30 7 1 7 8
M  V30 8 1 8 9
M  V30 9 2 9 10
M  V30 10 1 9 11
M  V30 11 2 11 12
M  V30 12 1 12 13
M  V30 13 2 13 14
M  V30 14 1 14 15
M  V30 15 1 15 16
M  V30 16 1 16 17
M  V30 17 2 17 18
M  V30 18 1 18 19
M  V30 19 1 19 20
M  V30 20 2 20 21
M  V30 21 1 21 22
M  V30 22 1 22 23
M  V30 23 2 23 24
M  V30 24 1 24 25
M  V30 25 2 25 26
M  V30 26 1 26 27
M  V30 27 2 22 28
M  V30 28 1 28 29
M  V30 29 2 15 30
M  V30 30 1 30 11
M  V30 31 2 29 16
M  V30 32 1 29 19
M  V30 33 1 27 23
M  V30 34 1 1 31
M  V30 35 1 1 32
M  V30 36 1 1 33
M  V30 37 1 2 34
M  V30 38 1 2 35
M  V30 39 1 4 36
M  V30 40 1 4 37
M  V30 41 1 5 38
M  V30 42 1 5 39
M  V30 43 1 5 40
M  V30 44 1 6 41
M  V30 45 1 6 42
M  V30 46 1 7 43
M  V30 47 1 7 44
M  V30 48 1 8 45
M  V30 49 1 12 46
M  V30 50 1 13 47
M  V30 51 1 17 48
M  V30 52 1 20 49
M  V30 53 1 21 50
M  V30 54 1 24 51
M  V30 55 1 25 52
M  V30 56 1 26 53
M  V30 57 1 30 54
M  V30 END BOND
M  V30 END CTAB
M  END
>  <Dataset>  (704) 
ChEMBL_Kinases

>  <Ligand_Instance>  (704) 
nan

>  <PDB_ID>  (704) 
nan

>  <Standardized_SMILES>  (704) 
CCN(CC)CCNC(=O)c1ccnc(-c2cnn3ccc(-c4cccs4)nc23)c1

>  <Name>  (704) 
nan

>  <Pocket>  (704) 
nan

>  <ATP_Site>  (704) 
nan

>  <Peripheral>  (704) 
nan

>  <Num_H_Atoms_ProtBoundConf>  (704) 
nan

>  <Num_Resolved_Atoms>  (704) 
nan

>  <Num_Not_Resolved_Atoms>  (704) 
nan

$$$$
CHEMBL4784117
     RDKit          3D

  0  0  0  0  0  0  0  0  0  0999 V3000
M  V30 BEGIN CTAB
M  V30 COUNTS 55 58 0 0 0
M  V30 BEGIN ATOM
M  V30 1 C 2.288326 0.566423 6.355494 0
M  V30 2 C 3.413065 0.958177 5.465887 0
M  V30 3 O 4.612435 0.976182 5.850745 0
M  V30 4 N 3.102294 1.326542 4.121804 0
M  V30 5 C 4.215910 1.704362 3.274543 0 CFG=2
M  V30 6 C 3.949490 3.115204 2.751021 0
M  V30 7 C 2.769768 2.801642 1.819003 0
M  V30 8 C 3.050419 1.442922 1.252941 0 CFG=2
M  V30 9 C 1.886339 0.524791 1.270347 0
M  V30 10 O 0.673671 0.407336 1.585718 0
M  V30 11 N 2.254497 -0.752881 0.709303 0
M  V30 12 C 1.273286 -1.807418 0.624553 0
M  V30 13 C 0.526690 -1.856060 -0.534733 0
M  V30 14 C -0.432739 -2.836258 -0.691787 0
M  V30 15 C -1.319833 -3.060702 -1.827478 0
M  V30 16 C -1.028282 -3.862271 -2.911605 0
M  V30 17 N -2.103208 -3.812067 -3.751591 0
M  V30 18 N -3.020360 -3.034907 -3.245652 0
M  V30 19 C -2.578846 -2.562782 -2.080208 0
M  V30 20 C -3.595263 -1.668831 -1.465113 0
M  V30 21 C -4.659343 -1.502464 -2.514633 0
M  V30 22 C -6.045405 -1.785297 -1.920525 0
M  V30 23 C -4.715251 -0.136758 -3.127386 0
M  V30 24 C -4.347244 -2.539961 -3.561682 0
M  V30 25 C -0.624086 -3.759065 0.333134 0
M  V30 26 Cl -1.794575 -5.048683 0.277731 0
M  V30 27 C 0.161251 -3.659206 1.481876 0
M  V30 28 N 1.106203 -2.690300 1.631480 0
M  V30 29 C 4.253821 0.941087 1.968984 0
M  V30 30 H 1.730276 1.477304 6.605646 0
M  V30 31 H 1.622153 -0.081058 5.713627 0
M  V30 32 H 2.665024 -0.002769 7.229214 0
M  V30 33 H 2.149350 1.347441 3.700198 0
M  V30 34 H 5.183772 1.656092 3.812150 0
M  V30 35 H 3.645565 3.807826 3.555789 0
M  V30 36 H 4.808916 3.468750 2.171610 0
M  V30 37 H 2.779123 3.622740 1.070635 0
M  V30 38 H 1.807822 2.887337 2.362498 0
M  V30 39 H 3.254557 1.615542 0.153877 0
M  V30 40 H 3.140460 -1.159942 0.304292 0
M  V30 41 H 0.609652 -1.185042 -1.372537 0
M  V30 42 H -0.101715 -4.426026 -3.054207 0
M  V30 43 H -4.008547 -2.189565 -0.573159 0
M  V30 44 H -3.143004 -0.678058 -1.181402 0
M  V30 45 H -6.141585 -2.824442 -1.579580 0
M  V30 46 H -6.776021 -1.576324 -2.746736 0
M  V30 47 H -6.215907 -1.035861 -1.109593 0
M  V30 48 H -5.691807 -0.076702 -3.672088 0
M  V30 49 H -3.898714 0.073270 -3.824607 0
M  V30 50 H -4.792945 0.623148 -2.311965 0
M  V30 51 H -5.078033 -3.376198 -3.523945 0
M  V30 52 H -4.315363 -2.090669 -4.592575 0
M  V30 53 H 0.025316 -4.367464 2.286508 0
M  V30 54 H 4.271917 -0.151832 2.121613 0
M  V30 55 H 5.141791 1.312811 1.419815 0
M  V30 END ATOM
M  V30 BEGIN BOND
M  V30 1 1 1 2
M  V30 2 2 2 3
M  V30 3 1 2 4
M  V30 4 1 4 5
M  V30 5 1 5 6
M  V30 6 1 6 7
M  V30 7 1 7 8
M  V30 8 1 8 9
M  V30 9 2 9 10
M  V30 10 1 9 11
M  V30 11 1 11 12
M  V30 12 2 12 13
M  V30 13 1 13 14
M  V30 14 1 14 15
M  V30 15 1 15 16
M  V30 16 2 16 17
M  V30 17 1 17 18
M  V30 18 1 18 19
M  V30 19 1 19 20
M  V30 20 1 20 21
M  V30 21 1 21 22
M  V30 22 1 21 23
M  V30 23 1 21 24
M  V30 24 2 14 25
M  V30 25 1 25 26
M  V30 26 1 25 27
M  V30 27 2 27 28
M  V30 28 1 8 29
M  V30 29 1 29 5
M  V30 30 1 28 12
M  V30 31 2 19 15
M  V30 32 1 24 18
M  V30 33 1 1 30
M  V30 34 1 1 31
M  V30 35 1 1 32
M  V30 36 1 4 33
M  V30 37 1 5 34 CFG=1
M  V30 38 1 6 35
M  V30 39 1 6 36
M  V30 40 1 7 37
M  V30 41 1 7 38
M  V30 42 1 8 39 CFG=3
M  V30 43 1 11 40
M  V30 44 1 13 41
M  V30 45 1 16 42
M  V30 46 1 20 43
M  V30 47 1 20 44
M  V30 48 1 22 45
M  V30 49 1 22 46
M  V30 50 1 22 47
M  V30 51 1 23 48
M  V30 52 1 23 49
M  V30 53 1 23 50
M  V30 54 1 24 51
M  V30 55 1 24 52
M  V30 56 1 27 53
M  V30 57 1 29 54
M  V30 58 1 29 55
M  V30 END BOND
M  V30 END CTAB
M  END
>  <Dataset>  (705) 
ChEMBL_Kinases

>  <Ligand_Instance>  (705) 
nan

>  <PDB_ID>  (705) 
nan

>  <Standardized_SMILES>  (705) 
CC(=O)N[C@@H]1CC[C@H](C(=O)Nc2cc(-c3cnn4c3CC(C)(C)C4)c(Cl)cn2)C1

>  <Name>  (705) 
nan

>  <Pocket>  (705) 
nan

>  <ATP_Site>  (705) 
nan

>  <Peripheral>  (705) 
nan

>  <Num_H_Atoms_ProtBoundConf>  (705) 
nan

>  <Num_Resolved_Atoms>  (705) 
nan

>  <Num_Not_Resolved_Atoms>  (705) 
nan

$$$$
CHEMBL4784049
     RDKit          3D

  0  0  0  0  0  0  0  0  0  0999 V3000
M  V30 BEGIN CTAB
M  V30 COUNTS 50 53 0 0 0
M  V30 BEGIN ATOM
M  V30 1 C 2.761610 -1.988982 3.895324 0
M  V30 2 C 3.220477 -2.800386 2.727262 0
M  V30 3 C 3.499727 -4.155032 2.776102 0
M  V30 4 C 3.922106 -4.808682 1.618762 0
M  V30 5 C 4.064308 -4.110146 0.418572 0
M  V30 6 C 3.783786 -2.748347 0.368647 0
M  V30 7 C 3.961785 -2.091937 -0.941386 0
M  V30 8 C 3.363405 -2.116134 1.536688 0
M  V30 9 N 3.116944 -0.721914 1.318347 0
M  V30 10 C 1.812692 -0.336350 0.927699 0
M  V30 11 O 0.962136 -1.242741 0.799538 0
M  V30 12 N 1.441588 1.009834 0.681346 0
M  V30 13 C 0.085400 1.334065 0.283488 0
M  V30 14 C -0.619711 2.220553 1.254335 0
M  V30 15 C -2.101138 2.191121 0.952062 0
M  V30 16 N -2.310755 1.599144 -0.353345 0
M  V30 17 C -3.466968 0.778136 -0.519793 0
M  V30 18 N -4.331878 1.217962 -1.472235 0
M  V30 19 C -5.479788 0.535446 -1.741157 0
M  V30 20 N -5.801523 -0.604123 -1.071280 0
M  V30 21 C -4.956652 -1.049656 -0.128425 0
M  V30 22 N -4.931993 -2.114435 0.725509 0
M  V30 23 N -3.824736 -2.078998 1.474333 0
M  V30 24 C -3.082740 -0.985889 1.135899 0
M  V30 25 C -3.798700 -0.374301 0.153170 0
M  V30 26 C -1.462377 1.757647 -1.517738 0
M  V30 27 C -0.010886 1.907582 -1.110471 0
M  V30 28 H 3.123345 -2.433339 4.851759 0
M  V30 29 H 3.185329 -0.965650 3.876099 0
M  V30 30 H 1.660540 -1.878108 3.859476 0
M  V30 31 H 3.374362 -4.652493 3.729762 0
M  V30 32 H 4.134831 -5.870118 1.681992 0
M  V30 33 H 4.395086 -4.641179 -0.470913 0
M  V30 34 H 3.497312 -1.091346 -0.937676 0
M  V30 35 H 5.057003 -1.946606 -1.137869 0
M  V30 36 H 3.592240 -2.671002 -1.799064 0
M  V30 37 H 3.813887 0.058736 1.419181 0
M  V30 38 H 2.188671 1.726773 0.802596 0
M  V30 39 H -0.456147 0.366257 0.244248 0
M  V30 40 H -0.224264 3.259656 1.268124 0
M  V30 41 H -0.488571 1.757042 2.264522 0
M  V30 42 H -2.664966 1.635513 1.715014 0
M  V30 43 H -2.496933 3.250705 0.971151 0
M  V30 44 H -6.185085 0.853651 -2.486039 0
M  V30 45 H -5.701095 -2.826519 0.745546 0
M  V30 46 H -2.146633 -0.700496 1.568139 0
M  V30 47 H -1.829526 2.683766 -2.038574 0
M  V30 48 H -1.618986 0.937342 -2.227623 0
M  V30 49 H 0.586588 1.306885 -1.827091 0
M  V30 50 H 0.288412 2.975657 -1.094748 0
M  V30 END ATOM
M  V30 BEGIN BOND
M  V30 1 1 1 2
M  V30 2 2 2 3
M  V30 3 1 3 4
M  V30 4 2 4 5
M  V30 5 1 5 6
M  V30 6 1 6 7
M  V30 7 2 6 8
M  V30 8 1 8 9
M  V30 9 1 9 10
M  V30 10 2 10 11
M  V30 11 1 10 12
M  V30 12 1 12 13
M  V30 13 1 13 14
M  V30 14 1 14 15
M  V30 15 1 15 16
M  V30 16 1 16 17
M  V30 17 2 17 18
M  V30 18 1 18 19
M  V30 19 2 19 20
M  V30 20 1 20 21
M  V30 21 1 21 22
M  V30 22 1 22 23
M  V30 23 2 23 24
M  V30 24 1 24 25
M  V30 25 1 16 26
M  V30 26 1 26 27
M  V30 27 1 8 2
M  V30 28 1 27 13
M  V30 29 1 25 17
M  V30 30 2 25 21
M  V30 31 1 1 28
M  V30 32 1 1 29
M  V30 33 1 1 30
M  V30 34 1 3 31
M  V30 35 1 4 32
M  V30 36 1 5 33
M  V30 37 1 7 34
M  V30 38 1 7 35
M  V30 39 1 7 36
M  V30 40 1 9 37
M  V30 41 1 12 38
M  V30 42 1 13 39
M  V30 43 1 14 40
M  V30 44 1 14 41
M  V30 45 1 15 42
M  V30 46 1 15 43
M  V30 47 1 19 44
M  V30 48 1 22 45
M  V30 49 1 24 46
M  V30 50 1 26 47
M  V30 51 1 26 48
M  V30 52 1 27 49
M  V30 53 1 27 50
M  V30 END BOND
M  V30 END CTAB
M  END
>  <Dataset>  (706) 
ChEMBL_Kinases

>  <Ligand_Instance>  (706) 
nan

>  <PDB_ID>  (706) 
nan

>  <Standardized_SMILES>  (706) 
Cc1cccc(C)c1NC(=O)NC1CCN(c2ncnc3[nH]ncc23)CC1

>  <Name>  (706) 
nan

>  <Pocket>  (706) 
nan

>  <ATP_Site>  (706) 
nan

>  <Peripheral>  (706) 
nan

>  <Num_H_Atoms_ProtBoundConf>  (706) 
nan

>  <Num_Resolved_Atoms>  (706) 
nan

>  <Num_Not_Resolved_Atoms>  (706) 
nan

$$$$
CHEMBL42055
     RDKit          3D

  0  0  0  0  0  0  0  0  0  0999 V3000
M  V30 BEGIN CTAB
M  V30 COUNTS 55 58 0 0 0
M  V30 BEGIN ATOM
M  V30 1 O -2.107074 -3.534006 3.536245 0
M  V30 2 C -1.789835 -2.290059 4.075091 0
M  V30 3 C -0.308341 -2.191149 4.281175 0
M  V30 4 N 0.405868 -2.341697 3.060623 0
M  V30 5 C 1.810463 -2.265064 3.141703 0
M  V30 6 C 2.448639 -0.932793 2.915667 0
M  V30 7 N 1.780808 -0.100120 1.966211 0
M  V30 8 C 2.601117 0.566978 1.126490 0
M  V30 9 C 1.938231 1.463844 0.010223 0
M  V30 10 C 1.169268 0.471295 -0.761888 0
M  V30 11 C -0.042145 0.482655 -1.286606 0
M  V30 12 C -0.873013 1.640600 -1.171700 0
M  V30 13 C -0.176435 2.803665 -0.934234 0
M  V30 14 C -0.790895 4.067659 -0.896265 0
M  V30 15 C -2.173943 4.114455 -1.117254 0
M  V30 16 C -2.902299 2.957238 -1.364508 0
M  V30 17 C -2.206865 1.802547 -1.376166 0
M  V30 18 S -3.130767 0.324407 -1.757602 0
M  V30 19 C -1.920485 -0.974172 -1.998958 0
M  V30 20 C -2.494583 -2.122764 -2.443760 0
M  V30 21 C -1.675987 -3.235883 -2.623369 0
M  V30 22 C -0.337351 -3.124715 -2.345346 0
M  V30 23 C 0.508033 -4.335606 -2.544350 0
M  V30 24 F 0.975797 -4.462525 -3.832592 0
M  V30 25 F 1.625831 -4.220458 -1.711424 0
M  V30 26 F -0.158582 -5.459667 -2.091497 0
M  V30 27 C 0.143351 -1.913481 -1.900274 0
M  V30 28 C -0.603839 -0.775692 -1.701362 0
M  V30 29 C 0.425452 -0.196887 2.072194 0
M  V30 30 C -0.102737 -1.641379 1.929384 0
M  V30 31 H -2.792699 -3.450894 2.836815 0
M  V30 32 H -2.250169 -1.482558 3.509961 0
M  V30 33 H -2.274006 -2.255583 5.094588 0
M  V30 34 H -0.032766 -1.290712 4.861316 0
M  V30 35 H -0.029845 -3.069688 4.928387 0
M  V30 36 H 2.256212 -2.999514 2.410803 0
M  V30 37 H 2.131207 -2.647528 4.133471 0
M  V30 38 H 2.500303 -0.391954 3.883832 0
M  V30 39 H 3.500867 -1.111117 2.600299 0
M  V30 40 H 3.309091 1.213340 1.688265 0
M  V30 41 H 3.272520 -0.160081 0.575700 0
M  V30 42 H 1.368385 2.079278 0.743054 0
M  V30 43 H 2.795602 1.915178 -0.466449 0
M  V30 44 H 1.789966 -0.403370 -0.901211 0
M  V30 45 H 0.833167 3.116630 -0.826841 0
M  V30 46 H -0.441989 5.071167 -0.728250 0
M  V30 47 H -2.773742 5.038324 -1.109414 0
M  V30 48 H -3.969242 2.996677 -1.536878 0
M  V30 49 H -3.526778 -2.290358 -2.682453 0
M  V30 50 H -2.074565 -4.176142 -2.975311 0
M  V30 51 H 1.206867 -1.951290 -1.722920 0
M  V30 52 H 0.175817 0.014639 3.170076 0
M  V30 53 H -0.277185 0.429344 1.544357 0
M  V30 54 H 0.392122 -2.061214 1.033998 0
M  V30 55 H -1.181741 -1.650738 1.786202 0
M  V30 END ATOM
M  V30 BEGIN BOND
M  V30 1 1 1 2
M  V30 2 1 2 3
M  V30 3 1 3 4
M  V30 4 1 4 5
M  V30 5 1 5 6
M  V30 6 1 6 7
M  V30 7 1 7 8
M  V30 8 1 8 9
M  V30 9 1 9 10
M  V30 10 2 10 11
M  V30 11 1 11 12
M  V30 12 2 12 13
M  V30 13 1 13 14
M  V30 14 2 14 15
M  V30 15 1 15 16
M  V30 16 2 16 17
M  V30 17 1 17 18
M  V30 18 1 18 19
M  V30 19 2 19 20
M  V30 20 1 20 21
M  V30 21 2 21 22
M  V30 22 1 22 23
M  V30 23 1 23 24
M  V30 24 1 23 25
M  V30 25 1 23 26
M  V30 26 1 22 27
M  V30 27 2 27 28
M  V30 28 1 7 29
M  V30 29 1 29 30
M  V30 30 1 30 4
M  V30 31 1 28 11
M  V30 32 1 17 12
M  V30 33 1 28 19
M  V30 34 1 1 31
M  V30 35 1 2 32
M  V30 36 1 2 33
M  V30 37 1 3 34
M  V30 38 1 3 35
M  V30 39 1 5 36
M  V30 40 1 5 37
M  V30 41 1 6 38
M  V30 42 1 6 39
M  V30 43 1 8 40
M  V30 44 1 8 41
M  V30 45 1 9 42
M  V30 46 1 9 43
M  V30 47 1 10 44
M  V30 48 1 13 45
M  V30 49 1 14 46
M  V30 50 1 15 47
M  V30 51 1 16 48
M  V30 52 1 20 49
M  V30 53 1 21 50
M  V30 54 1 27 51
M  V30 55 1 29 52
M  V30 56 1 29 53
M  V30 57 1 30 54
M  V30 58 1 30 55
M  V30 END BOND
M  V30 END CTAB
M  END
>  <Dataset>  (707) 
ChEMBL_Kinases

>  <Ligand_Instance>  (707) 
nan

>  <PDB_ID>  (707) 
nan

>  <Standardized_SMILES>  (707) 
OCCN1CCN(CC/C=C2\c3ccccc3Sc3ccc(C(F)(F)F)cc32)CC1

>  <Name>  (707) 
E-FLUPENTIXOL

>  <Pocket>  (707) 
nan

>  <ATP_Site>  (707) 
nan

>  <Peripheral>  (707) 
nan

>  <Num_H_Atoms_ProtBoundConf>  (707) 
nan

>  <Num_Resolved_Atoms>  (707) 
nan

>  <Num_Not_Resolved_Atoms>  (707) 
nan

$$$$
CHEMBL4205499
     RDKit          3D

  0  0  0  0  0  0  0  0  0  0999 V3000
M  V30 BEGIN CTAB
M  V30 COUNTS 42 45 0 0 0
M  V30 BEGIN ATOM
M  V30 1 O -1.436714 -3.778204 -2.413429 0
M  V30 2 C -0.427724 -3.508796 -1.703229 0
M  V30 3 N 0.673580 -4.424780 -1.713876 0
M  V30 4 C 1.721635 -3.973124 -0.864592 0
M  V30 5 C 2.970556 -4.423546 -0.494595 0
M  V30 6 C 3.787957 -3.740906 0.382330 0
M  V30 7 C 3.336320 -2.543423 0.920427 0
M  V30 8 C 2.086200 -2.083950 0.555672 0
M  V30 9 C 1.285192 -2.779619 -0.321023 0
M  V30 10 C -0.047467 -2.419285 -0.793959 0
M  V30 11 N -0.835725 -1.455345 -0.586114 0
M  V30 12 N -0.634043 -0.344087 0.242553 0
M  V30 13 C -0.086615 0.570672 -0.713364 0
M  V30 14 C 0.226937 1.905362 -0.110405 0
M  V30 15 C -0.744474 2.906996 -0.098456 0
M  V30 16 C -0.384077 4.119238 0.453891 0
M  V30 17 C 0.896422 4.262779 0.952747 0
M  V30 18 C 1.854768 3.274576 0.940946 0
M  V30 19 C 1.520761 2.037325 0.389047 0
M  V30 20 C -0.988442 -0.467254 1.584456 0
M  V30 21 C -0.874457 0.488709 2.568710 0
M  V30 22 C -1.224262 0.369064 3.895010 0
M  V30 23 C -1.741678 -0.865629 4.223010 0
M  V30 24 C -1.895113 -1.884458 3.312110 0
M  V30 25 C -1.516751 -1.659828 2.024594 0
M  V30 26 H 0.789309 -5.333198 -2.242429 0
M  V30 27 H 3.286038 -5.371954 -0.943166 0
M  V30 28 H 4.757955 -4.208571 0.593175 0
M  V30 29 H 4.008154 -2.039034 1.604382 0
M  V30 30 H 1.767960 -1.147974 0.994681 0
M  V30 31 H 0.808394 0.190160 -1.264417 0
M  V30 32 H -0.848045 0.801799 -1.523420 0
M  V30 33 H -1.721424 2.691035 -0.516481 0
M  V30 34 H -1.110848 4.917631 0.480055 0
M  V30 35 H 1.130031 5.241249 1.378519 0
M  V30 36 H 2.842205 3.431328 1.341822 0
M  V30 37 H 2.221410 1.217375 0.346166 0
M  V30 38 H -0.470534 1.456981 2.320168 0
M  V30 39 H -1.104074 1.167751 4.609497 0
M  V30 40 H -2.046644 -1.059231 5.241362 0
M  V30 41 H -2.302891 -2.818375 3.631112 0
M  V30 42 H -1.664888 -2.512006 1.348228 0
M  V30 END ATOM
M  V30 BEGIN BOND
M  V30 1 2 1 2
M  V30 2 1 2 3
M  V30 3 1 3 4
M  V30 4 2 4 5
M  V30 5 1 5 6
M  V30 6 2 6 7
M  V30 7 1 7 8
M  V30 8 2 8 9
M  V30 9 1 9 10
M  V30 10 2 10 11 CFG=2
M  V30 11 1 11 12
M  V30 12 1 12 13
M  V30 13 1 13 14
M  V30 14 2 14 15
M  V30 15 1 15 16
M  V30 16 2 16 17
M  V30 17 1 17 18
M  V30 18 2 18 19
M  V30 19 1 12 20
M  V30 20 2 20 21
M  V30 21 1 21 22
M  V30 22 2 22 23
M  V30 23 1 23 24
M  V30 24 2 24 25
M  V30 25 1 10 2
M  V30 26 1 19 14
M  V30 27 1 25 20
M  V30 28 1 9 4
M  V30 29 1 3 26
M  V30 30 1 5 27
M  V30 31 1 6 28
M  V30 32 1 7 29
M  V30 33 1 8 30
M  V30 34 1 13 31
M  V30 35 1 13 32
M  V30 36 1 15 33
M  V30 37 1 16 34
M  V30 38 1 17 35
M  V30 39 1 18 36
M  V30 40 1 19 37
M  V30 41 1 21 38
M  V30 42 1 22 39
M  V30 43 1 23 40
M  V30 44 1 24 41
M  V30 45 1 25 42
M  V30 END BOND
M  V30 END CTAB
M  END
>  <Dataset>  (708) 
ChEMBL_Kinases

>  <Ligand_Instance>  (708) 
nan

>  <PDB_ID>  (708) 
nan

>  <Standardized_SMILES>  (708) 
O=C1Nc2ccccc2C1=NN(Cc1ccccc1)c1ccccc1

>  <Name>  (708) 
nan

>  <Pocket>  (708) 
nan

>  <ATP_Site>  (708) 
nan

>  <Peripheral>  (708) 
nan

>  <Num_H_Atoms_ProtBoundConf>  (708) 
nan

>  <Num_Resolved_Atoms>  (708) 
nan

>  <Num_Not_Resolved_Atoms>  (708) 
nan

$$$$
CHEMBL4205481
     RDKit          3D

  0  0  0  0  0  0  0  0  0  0999 V3000
M  V30 BEGIN CTAB
M  V30 COUNTS 50 54 0 0 0
M  V30 BEGIN ATOM
M  V30 1 C 1.479343 -0.770713 4.829422 0
M  V30 2 C 2.867043 -0.350048 4.446090 0
M  V30 3 C 3.678493 -1.505255 3.984538 0
M  V30 4 C 2.814562 0.794170 3.475964 0
M  V30 5 O 2.156185 1.870838 4.067325 0
M  V30 6 C 4.219711 1.237621 3.154345 0
M  V30 7 O 5.008471 1.597368 4.066989 0
M  V30 8 N 4.438179 1.169413 1.751165 0
M  V30 9 C 3.199368 0.697985 1.181345 0
M  V30 10 C 2.928316 0.476646 -0.149822 0
M  V30 11 C 1.703307 0.025346 -0.598895 0
M  V30 12 N 1.450626 -0.194539 -1.976273 0
M  V30 13 C 0.232321 -0.654708 -2.542477 0
M  V30 14 N -0.939142 -0.989076 -1.994093 0
M  V30 15 C -1.851862 -1.379680 -2.882502 0
M  V30 16 C -3.162490 -1.806331 -2.800560 0
M  V30 17 C -3.796255 -1.885973 -1.479783 0
M  V30 18 C -4.584862 -2.809641 -0.825735 0
M  V30 19 N -4.872039 -2.313815 0.410972 0
M  V30 20 N -4.295064 -1.123140 0.550227 0
M  V30 21 C -4.384527 -0.293645 1.745395 0
M  V30 22 C -3.638234 -0.836713 -0.573944 0
M  V30 23 N -3.811217 -2.133874 -3.936702 0
M  V30 24 C -3.155549 -2.032403 -5.110010 0
M  V30 25 C -1.828777 -1.601967 -5.207822 0
M  V30 26 N -1.199652 -1.278863 -4.050829 0
M  V30 27 N 0.029450 -0.851950 -3.856632 0
M  V30 28 C 0.784980 -0.180551 0.406831 0
M  V30 29 C 1.016140 0.028698 1.750263 0
M  V30 30 C 2.253004 0.480056 2.161225 0
M  V30 31 H 1.072300 -1.597195 4.219930 0
M  V30 32 H 0.821668 0.122103 4.805975 0
M  V30 33 H 1.467691 -1.128439 5.900561 0
M  V30 34 H 3.339203 0.053794 5.373540 0
M  V30 35 H 2.995838 -2.345288 3.717523 0
M  V30 36 H 4.412947 -1.264542 3.191490 0
M  V30 37 H 4.303506 -1.913425 4.824611 0
M  V30 38 H 2.650938 2.265823 4.810500 0
M  V30 39 H 5.323850 1.415797 1.257700 0
M  V30 40 H 3.703642 0.659416 -0.908908 0
M  V30 41 H 2.256825 0.008625 -2.627607 0
M  V30 42 H -4.839466 -3.719504 -1.348473 0
M  V30 43 H -5.279873 0.380570 1.683220 0
M  V30 44 H -3.507892 0.385100 1.817730 0
M  V30 45 H -4.512210 -0.934786 2.642231 0
M  V30 46 H -3.085862 0.093413 -0.692324 0
M  V30 47 H -3.682206 -2.295928 -6.008299 0
M  V30 48 H -1.323039 -1.528628 -6.162163 0
M  V30 49 H -0.198087 -0.529763 0.177470 0
M  V30 50 H 0.241920 -0.153839 2.498540 0
M  V30 END ATOM
M  V30 BEGIN BOND
M  V30 1 1 1 2
M  V30 2 1 2 3
M  V30 3 1 2 4
M  V30 4 1 4 5
M  V30 5 1 4 6
M  V30 6 2 6 7
M  V30 7 1 6 8
M  V30 8 1 8 9
M  V30 9 2 9 10
M  V30 10 1 10 11
M  V30 11 1 11 12
M  V30 12 1 12 13
M  V30 13 1 13 14
M  V30 14 2 14 15
M  V30 15 1 15 16
M  V30 16 1 16 17
M  V30 17 1 17 18
M  V30 18 2 18 19
M  V30 19 1 19 20
M  V30 20 1 20 21
M  V30 21 1 20 22
M  V30 22 2 16 23
M  V30 23 1 23 24
M  V30 24 2 24 25
M  V30 25 1 25 26
M  V30 26 1 26 27
M  V30 27 2 11 28
M  V30 28 1 28 29
M  V30 29 2 29 30
M  V30 30 1 30 4
M  V30 31 1 30 9
M  V30 32 2 27 13
M  V30 33 1 26 15
M  V30 34 2 22 17
M  V30 35 1 1 31
M  V30 36 1 1 32
M  V30 37 1 1 33
M  V30 38 1 2 34
M  V30 39 1 3 35
M  V30 40 1 3 36
M  V30 41 1 3 37
M  V30 42 1 5 38
M  V30 43 1 8 39
M  V30 44 1 10 40
M  V30 45 1 12 41
M  V30 46 1 18 42
M  V30 47 1 21 43
M  V30 48 1 21 44
M  V30 49 1 21 45
M  V30 50 1 22 46
M  V30 51 1 24 47
M  V30 52 1 25 48
M  V30 53 1 28 49
M  V30 54 1 29 50
M  V30 END BOND
M  V30 END CTAB
M  END
>  <Dataset>  (709) 
ChEMBL_Kinases

>  <Ligand_Instance>  (709) 
nan

>  <PDB_ID>  (709) 
nan

>  <Standardized_SMILES>  (709) 
CC(C)C1(O)C(=O)Nc2cc(Nc3nc4c(-c5cnn(C)c5)nccn4n3)ccc21

>  <Name>  (709) 
nan

>  <Pocket>  (709) 
nan

>  <ATP_Site>  (709) 
nan

>  <Peripheral>  (709) 
nan

>  <Num_H_Atoms_ProtBoundConf>  (709) 
nan

>  <Num_Resolved_Atoms>  (709) 
nan

>  <Num_Not_Resolved_Atoms>  (709) 
nan

$$$$
CHEMBL4205466
     RDKit          3D

  0  0  0  0  0  0  0  0  0  0999 V3000
M  V30 BEGIN CTAB
M  V30 COUNTS 26 27 0 0 0
M  V30 BEGIN ATOM
M  V30 1 Cl -0.971104 2.948533 4.662785 0
M  V30 2 C -0.181308 1.822432 3.595512 0
M  V30 3 C -0.772230 1.289148 2.477108 0
M  V30 4 N -0.199264 0.426972 1.639807 0
M  V30 5 C 1.060118 0.029671 1.886254 0
M  V30 6 N 1.719972 -0.903133 1.005529 0
M  V30 7 C 1.086452 -1.456852 -0.178459 0
M  V30 8 C 0.701285 -0.439349 -1.195763 0
M  V30 9 C -0.736987 -0.116549 -1.345131 0
M  V30 10 O -1.640976 -0.972485 -0.770724 0
M  V30 11 C -1.176344 -2.304891 -0.818904 0
M  V30 12 C 0.006772 -2.431497 0.146602 0
M  V30 13 N 1.694237 0.515736 2.966307 0
M  V30 14 C 1.102713 1.384285 3.800702 0
M  V30 15 H -1.801163 1.578916 2.227224 0
M  V30 16 H 2.715833 -1.159899 1.288812 0
M  V30 17 H 1.909469 -2.084231 -0.653659 0
M  V30 18 H 1.259782 0.498405 -0.933835 0
M  V30 19 H 1.134363 -0.735303 -2.198225 0
M  V30 20 H -0.976662 -0.037237 -2.453330 0
M  V30 21 H -0.986291 0.921237 -0.980169 0
M  V30 22 H -0.807051 -2.452397 -1.846920 0
M  V30 23 H -1.977940 -2.988927 -0.517368 0
M  V30 24 H 0.337670 -3.487099 0.089356 0
M  V30 25 H -0.404192 -2.316672 1.170366 0
M  V30 26 H 1.678799 1.734259 4.654267 0
M  V30 END ATOM
M  V30 BEGIN BOND
M  V30 1 1 1 2
M  V30 2 2 2 3
M  V30 3 1 3 4
M  V30 4 2 4 5
M  V30 5 1 5 6
M  V30 6 1 6 7
M  V30 7 1 7 8
M  V30 8 1 8 9
M  V30 9 1 9 10
M  V30 10 1 10 11
M  V30 11 1 11 12
M  V30 12 1 5 13
M  V30 13 2 13 14
M  V30 14 1 14 2
M  V30 15 1 12 7
M  V30 16 1 3 15
M  V30 17 1 6 16
M  V30 18 1 7 17
M  V30 19 1 8 18
M  V30 20 1 8 19
M  V30 21 1 9 20
M  V30 22 1 9 21
M  V30 23 1 11 22
M  V30 24 1 11 23
M  V30 25 1 12 24
M  V30 26 1 12 25
M  V30 27 1 14 26
M  V30 END BOND
M  V30 END CTAB
M  END
>  <Dataset>  (710) 
ChEMBL_Kinases

>  <Ligand_Instance>  (710) 
nan

>  <PDB_ID>  (710) 
nan

>  <Standardized_SMILES>  (710) 
Clc1cnc(NC2CCOCC2)nc1

>  <Name>  (710) 
nan

>  <Pocket>  (710) 
nan

>  <ATP_Site>  (710) 
nan

>  <Peripheral>  (710) 
nan

>  <Num_H_Atoms_ProtBoundConf>  (710) 
nan

>  <Num_Resolved_Atoms>  (710) 
nan

>  <Num_Not_Resolved_Atoms>  (710) 
nan

$$$$
CHEMBL4205457
     RDKit          3D

  0  0  0  0  0  0  0  0  0  0999 V3000
M  V30 BEGIN CTAB
M  V30 COUNTS 37 40 0 0 0
M  V30 BEGIN ATOM
M  V30 1 C 3.826533 -3.577842 4.064829 0
M  V30 2 C 2.860554 -2.448666 3.851644 0
M  V30 3 C 2.337280 -1.753934 4.932911 0
M  V30 4 C 1.451731 -0.712539 4.717214 0
M  V30 5 C 1.075244 -0.347794 3.439101 0
M  V30 6 C 1.615229 -1.060469 2.389511 0
M  V30 7 C 1.273918 -0.742343 1.008350 0
M  V30 8 N 0.433691 0.276486 0.774465 0
M  V30 9 C 0.035504 0.681048 -0.439905 0
M  V30 10 N -0.872277 1.769503 -0.712976 0
M  V30 11 C -2.154739 1.188643 -0.785766 0
M  V30 12 C -2.757805 1.362174 -2.009534 0
M  V30 13 C -4.028073 0.838203 -2.178510 0
M  V30 14 N -4.584814 0.206606 -1.163432 0
M  V30 15 C -3.970605 0.054869 0.015246 0
M  V30 16 C -2.688910 0.540322 0.302855 0
M  V30 17 F -2.080281 0.389806 1.478049 0
M  V30 18 C 0.592567 -0.078052 -1.467986 0
M  V30 19 C 0.415363 0.042387 -2.846297 0
M  V30 20 C 1.164170 -0.927796 -3.514773 0
M  V30 21 C 1.786549 -1.622357 -2.499621 0
M  V30 22 N 1.450864 -1.123171 -1.296406 0
M  V30 23 N 1.765372 -1.421830 -0.036111 0
M  V30 24 N 2.469870 -2.062589 2.646537 0
M  V30 25 H 4.020201 -3.647313 5.166628 0
M  V30 26 H 3.328184 -4.518239 3.757383 0
M  V30 27 H 4.772278 -3.390371 3.511757 0
M  V30 28 H 2.604211 -2.004086 5.950157 0
M  V30 29 H 1.041632 -0.168324 5.571168 0
M  V30 30 H 0.372424 0.475188 3.243351 0
M  V30 31 H -0.035210 2.402448 -0.698727 0
M  V30 32 H -2.324861 1.871527 -2.847906 0
M  V30 33 H -4.630066 0.888797 -3.071694 0
M  V30 34 H -4.513193 -0.487530 0.804885 0
M  V30 35 H -0.183502 0.739767 -3.419365 0
M  V30 36 H 1.268867 -1.130619 -4.568881 0
M  V30 37 H 2.459745 -2.458336 -2.625182 0
M  V30 END ATOM
M  V30 BEGIN BOND
M  V30 1 1 1 2
M  V30 2 2 2 3
M  V30 3 1 3 4
M  V30 4 2 4 5
M  V30 5 1 5 6
M  V30 6 1 6 7
M  V30 7 1 7 8
M  V30 8 2 8 9
M  V30 9 1 9 10
M  V30 10 1 10 11
M  V30 11 2 11 12
M  V30 12 1 12 13
M  V30 13 2 13 14
M  V30 14 1 14 15
M  V30 15 2 15 16
M  V30 16 1 16 17
M  V30 17 1 9 18
M  V30 18 2 18 19
M  V30 19 1 19 20
M  V30 20 2 20 21
M  V30 21 1 21 22
M  V30 22 1 22 23
M  V30 23 2 6 24
M  V30 24 1 24 2
M  V30 25 2 23 7
M  V30 26 1 16 11
M  V30 27 1 22 18
M  V30 28 1 1 25
M  V30 29 1 1 26
M  V30 30 1 1 27
M  V30 31 1 3 28
M  V30 32 1 4 29
M  V30 33 1 5 30
M  V30 34 1 10 31
M  V30 35 1 12 32
M  V30 36 1 13 33
M  V30 37 1 15 34
M  V30 38 1 19 35
M  V30 39 1 20 36
M  V30 40 1 21 37
M  V30 END BOND
M  V30 END CTAB
M  END
>  <Dataset>  (711) 
ChEMBL_Kinases

>  <Ligand_Instance>  (711) 
nan

>  <PDB_ID>  (711) 
nan

>  <Standardized_SMILES>  (711) 
Cc1cccc(-c2nc(Nc3ccncc3F)c3cccn3n2)n1

>  <Name>  (711) 
nan

>  <Pocket>  (711) 
nan

>  <ATP_Site>  (711) 
nan

>  <Peripheral>  (711) 
nan

>  <Num_H_Atoms_ProtBoundConf>  (711) 
nan

>  <Num_Resolved_Atoms>  (711) 
nan

>  <Num_Not_Resolved_Atoms>  (711) 
nan

$$$$
CHEMBL4205456
     RDKit          3D

  0  0  0  0  0  0  0  0  0  0999 V3000
M  V30 BEGIN CTAB
M  V30 COUNTS 43 46 0 0 0
M  V30 BEGIN ATOM
M  V30 1 C -1.434572 -3.146983 5.453404 0
M  V30 2 C -0.010920 -3.125282 4.989601 0
M  V30 3 O 0.909128 -3.602375 5.701344 0
M  V30 4 N 0.211466 -2.534030 3.705116 0
M  V30 5 C 1.531822 -2.466257 3.178555 0
M  V30 6 C 1.801611 -1.918619 1.941477 0
M  V30 7 C 3.069273 -1.825121 1.395797 0
M  V30 8 N 3.299765 -1.240471 0.101568 0
M  V30 9 C 2.097429 -0.929659 -0.592854 0
M  V30 10 N 1.411997 0.190520 -0.316444 0
M  V30 11 C 0.282081 0.569386 -0.909770 0
M  V30 12 C -0.369162 1.811806 -0.508985 0
M  V30 13 C 0.203943 2.606046 0.479074 0
M  V30 14 C -0.469969 3.770261 0.811179 0
M  V30 15 C -1.649134 4.094226 0.173102 0
M  V30 16 C -2.194411 3.288561 -0.802510 0
M  V30 17 C -3.487044 3.631981 -1.489797 0
M  V30 18 F -4.025003 2.402418 -1.900984 0
M  V30 19 F -4.375618 4.165378 -0.572623 0
M  V30 20 F -3.284850 4.418272 -2.583446 0
M  V30 21 N -1.536573 2.180575 -1.107721 0
M  V30 22 N -0.218962 -0.228842 -1.863701 0
M  V30 23 C 0.400337 -1.392315 -2.222986 0
M  V30 24 N 0.128804 -2.363907 -3.129778 0
M  V30 25 C 1.106439 -3.314634 -3.064025 0
M  V30 26 N 1.984629 -2.917471 -2.105245 0
M  V30 27 C 1.567731 -1.744034 -1.581236 0
M  V30 28 C 4.097631 -2.324430 2.173645 0
M  V30 29 C 3.821707 -2.870852 3.408889 0
M  V30 30 N 2.565536 -2.937208 3.894751 0
M  V30 31 H -1.502580 -3.459061 6.516189 0
M  V30 32 H -1.866042 -2.114524 5.290006 0
M  V30 33 H -1.995794 -3.839386 4.780008 0
M  V30 34 H -0.574019 -2.138399 3.118644 0
M  V30 35 H 0.932683 -1.545921 1.392064 0
M  V30 36 H 4.304950 -1.115623 -0.171467 0
M  V30 37 H 1.140487 2.296185 0.948206 0
M  V30 38 H -0.007041 4.370490 1.581226 0
M  V30 39 H -2.139552 5.012122 0.464331 0
M  V30 40 H -0.711502 -2.364039 -3.775959 0
M  V30 41 H 1.188211 -4.220169 -3.653920 0
M  V30 42 H 5.104550 -2.253561 1.751371 0
M  V30 43 H 4.665507 -3.254436 3.992696 0
M  V30 END ATOM
M  V30 BEGIN BOND
M  V30 1 1 1 2
M  V30 2 2 2 3
M  V30 3 1 2 4
M  V30 4 1 4 5
M  V30 5 2 5 6
M  V30 6 1 6 7
M  V30 7 1 7 8
M  V30 8 1 8 9
M  V30 9 2 9 10
M  V30 10 1 10 11
M  V30 11 1 11 12
M  V30 12 2 12 13
M  V30 13 1 13 14
M  V30 14 2 14 15
M  V30 15 1 15 16
M  V30 16 1 16 17
M  V30 17 1 17 18
M  V30 18 1 17 19
M  V30 19 1 17 20
M  V30 20 2 16 21
M  V30 21 2 11 22
M  V30 22 1 22 23
M  V30 23 1 23 24
M  V30 24 1 24 25
M  V30 25 2 25 26
M  V30 26 1 26 27
M  V30 27 2 7 28
M  V30 28 1 28 29
M  V30 29 2 29 30
M  V30 30 1 30 5
M  V30 31 1 27 9
M  V30 32 1 21 12
M  V30 33 2 27 23
M  V30 34 1 1 31
M  V30 35 1 1 32
M  V30 36 1 1 33
M  V30 37 1 4 34
M  V30 38 1 6 35
M  V30 39 1 8 36
M  V30 40 1 13 37
M  V30 41 1 14 38
M  V30 42 1 15 39
M  V30 43 1 24 40
M  V30 44 1 25 41
M  V30 45 1 28 42
M  V30 46 1 29 43
M  V30 END BOND
M  V30 END CTAB
M  END
>  <Dataset>  (712) 
ChEMBL_Kinases

>  <Ligand_Instance>  (712) 
nan

>  <PDB_ID>  (712) 
nan

>  <Standardized_SMILES>  (712) 
CC(=O)Nc1cc(Nc2nc(-c3cccc(C(F)(F)F)n3)nc3[nH]cnc23)ccn1

>  <Name>  (712) 
nan

>  <Pocket>  (712) 
nan

>  <ATP_Site>  (712) 
nan

>  <Peripheral>  (712) 
nan

>  <Num_H_Atoms_ProtBoundConf>  (712) 
nan

>  <Num_Resolved_Atoms>  (712) 
nan

>  <Num_Not_Resolved_Atoms>  (712) 
nan

$$$$
CHEMBL4205405
     RDKit          3D

  0  0  0  0  0  0  0  0  0  0999 V3000
M  V30 BEGIN CTAB
M  V30 COUNTS 50 53 0 0 0
M  V30 BEGIN ATOM
M  V30 1 C 2.197655 -3.511768 5.349951 0
M  V30 2 N 2.696275 -2.465208 6.147124 0
M  V30 3 C 1.997122 -2.125797 7.327257 0
M  V30 4 C 3.621497 -1.555277 5.611786 0
M  V30 5 C 3.153288 -0.612298 4.558752 0
M  V30 6 N 2.671895 -1.280475 3.385367 0
M  V30 7 C 2.256709 -0.301732 2.454193 0
M  V30 8 O 2.391987 0.912283 2.839231 0
M  V30 9 C 1.697253 -0.570582 1.116258 0
M  V30 10 C 1.492347 -1.823743 0.583157 0
M  V30 11 C 0.968132 -2.055241 -0.669287 0
M  V30 12 C 0.620605 -0.947143 -1.452650 0
M  V30 13 C 0.819157 0.315707 -0.934663 0
M  V30 14 C 0.437390 1.421011 -1.803892 0
M  V30 15 C 1.080662 2.615028 -2.134891 0
M  V30 16 N 0.308600 3.304164 -2.988483 0
M  V30 17 C -0.812828 2.600450 -3.223479 0
M  V30 18 C -1.935700 2.815651 -3.999759 0
M  V30 19 C -2.974258 1.893326 -4.056538 0
M  V30 20 C -2.824656 0.749430 -3.295518 0
M  V30 21 N -3.857223 -0.230227 -3.313306 0
M  V30 22 C -4.601870 -0.707064 -2.282324 0
M  V30 23 C -5.478398 -1.645413 -2.784449 0
M  V30 24 C -5.261293 -1.741350 -4.155581 0
M  V30 25 C -4.244002 -0.843441 -4.441926 0
M  V30 26 N -1.720061 0.597511 -2.567235 0
M  V30 27 N -0.720501 1.467481 -2.502220 0
M  V30 28 C 1.346169 0.493632 0.323195 0
M  V30 29 H 1.984916 -4.409381 5.981764 0
M  V30 30 H 3.004881 -3.865122 4.649798 0
M  V30 31 H 1.299110 -3.288062 4.741335 0
M  V30 32 H 1.188645 -2.895443 7.476313 0
M  V30 33 H 2.679314 -2.241819 8.196027 0
M  V30 34 H 1.594957 -1.095963 7.387948 0
M  V30 35 H 4.453987 -2.172147 5.143604 0
M  V30 36 H 4.156589 -1.017012 6.436004 0
M  V30 37 H 2.449515 0.158951 4.935485 0
M  V30 38 H 4.060343 -0.015221 4.246889 0
M  V30 39 H 2.533936 -2.228960 3.005156 0
M  V30 40 H 1.760752 -2.676756 1.187477 0
M  V30 41 H 0.828086 -3.062815 -1.038910 0
M  V30 42 H 0.205981 -1.128921 -2.442175 0
M  V30 43 H 2.044631 2.837608 -1.707057 0
M  V30 44 H -1.934450 3.759508 -4.556210 0
M  V30 45 H -3.827537 2.108294 -4.676156 0
M  V30 46 H -4.458585 -0.350830 -1.272020 0
M  V30 47 H -6.157908 -2.139258 -2.106639 0
M  V30 48 H -5.849086 -2.423070 -4.731915 0
M  V30 49 H -3.928501 -0.771455 -5.471318 0
M  V30 50 H 1.485990 1.507524 0.693793 0
M  V30 END ATOM
M  V30 BEGIN BOND
M  V30 1 1 1 2
M  V30 2 1 2 3
M  V30 3 1 2 4
M  V30 4 1 4 5
M  V30 5 1 5 6
M  V30 6 1 6 7
M  V30 7 2 7 8
M  V30 8 1 7 9
M  V30 9 2 9 10
M  V30 10 1 10 11
M  V30 11 2 11 12
M  V30 12 1 12 13
M  V30 13 1 13 14
M  V30 14 2 14 15
M  V30 15 1 15 16
M  V30 16 2 16 17
M  V30 17 1 17 18
M  V30 18 2 18 19
M  V30 19 1 19 20
M  V30 20 1 20 21
M  V30 21 1 21 22
M  V30 22 2 22 23
M  V30 23 1 23 24
M  V30 24 2 24 25
M  V30 25 2 20 26
M  V30 26 1 26 27
M  V30 27 2 13 28
M  V30 28 1 28 9
M  V30 29 1 27 14
M  V30 30 1 27 17
M  V30 31 1 25 21
M  V30 32 1 1 29
M  V30 33 1 1 30
M  V30 34 1 1 31
M  V30 35 1 3 32
M  V30 36 1 3 33
M  V30 37 1 3 34
M  V30 38 1 4 35
M  V30 39 1 4 36
M  V30 40 1 5 37
M  V30 41 1 5 38
M  V30 42 1 6 39
M  V30 43 1 10 40
M  V30 44 1 11 41
M  V30 45 1 12 42
M  V30 46 1 15 43
M  V30 47 1 18 44
M  V30 48 1 19 45
M  V30 49 1 22 46
M  V30 50 1 23 47
M  V30 51 1 24 48
M  V30 52 1 25 49
M  V30 53 1 28 50
M  V30 END BOND
M  V30 END CTAB
M  END
>  <Dataset>  (713) 
ChEMBL_Kinases

>  <Ligand_Instance>  (713) 
nan

>  <PDB_ID>  (713) 
nan

>  <Standardized_SMILES>  (713) 
CN(C)CCNC(=O)c1cccc(-c2cnc3ccc(-n4cccc4)nn23)c1

>  <Name>  (713) 
nan

>  <Pocket>  (713) 
nan

>  <ATP_Site>  (713) 
nan

>  <Peripheral>  (713) 
nan

>  <Num_H_Atoms_ProtBoundConf>  (713) 
nan

>  <Num_Resolved_Atoms>  (713) 
nan

>  <Num_Not_Resolved_Atoms>  (713) 
nan

$$$$
CHEMBL4784107
     RDKit          3D

  0  0  0  0  0  0  0  0  0  0999 V3000
M  V30 BEGIN CTAB
M  V30 COUNTS 46 49 0 0 0
M  V30 BEGIN ATOM
M  V30 1 C -0.812870 -8.885548 0.165740 0
M  V30 2 C -1.393273 -7.819009 0.059198 0
M  V30 3 C -2.090033 -6.562528 -0.087261 0
M  V30 4 O -3.022396 -6.298695 0.723709 0
M  V30 5 N -1.630157 -5.741003 -1.163289 0
M  V30 6 C -0.590151 -5.892747 -2.168855 0
M  V30 7 C 0.078500 -4.568227 -2.100733 0
M  V30 8 C -0.815696 -3.644841 -1.775686 0
M  V30 9 C -0.507503 -2.225024 -1.619304 0
M  V30 10 C 0.802791 -1.841283 -1.827267 0
M  V30 11 C 1.120312 -0.487368 -1.682771 0
M  V30 12 C 0.098778 0.405707 -1.336366 0
M  V30 13 C 0.499146 1.830573 -1.197268 0
M  V30 14 C 0.919014 2.157844 0.185996 0
M  V30 15 O 0.624987 0.937987 0.263567 0
M  V30 16 N 1.339938 3.466756 0.536589 0
M  V30 17 C 1.697351 3.533843 1.935813 0
M  V30 18 C 1.028574 3.812294 3.105732 0
M  V30 19 C 1.976631 3.701174 4.107666 0
M  V30 20 C 1.625477 3.933083 5.526312 0
M  V30 21 C 0.315526 3.284547 5.964820 0
M  V30 22 C 0.503984 4.779761 5.934103 0
M  V30 23 N 3.167694 3.370397 3.572858 0
M  V30 24 N 2.975378 3.275373 2.266766 0
M  V30 25 C -1.204233 -0.019217 -1.136261 0
M  V30 26 N -1.475703 -1.346936 -1.286119 0
M  V30 27 C -2.046008 -4.434461 -1.646460 0
M  V30 28 H -0.306679 -9.816261 0.276554 0
M  V30 29 H 0.107880 -6.727589 -1.926421 0
M  V30 30 H -1.013293 -6.089183 -3.169296 0
M  V30 31 H 1.155971 -4.481609 -2.307244 0
M  V30 32 H 1.614459 -2.503918 -2.095296 0
M  V30 33 H 2.148478 -0.161309 -1.842095 0
M  V30 34 H 1.279132 2.087160 -1.941670 0
M  V30 35 H -0.394161 2.448166 -1.423783 0
M  V30 36 H 1.325828 4.154335 -0.247039 0
M  V30 37 H -0.020559 4.048571 3.059811 0
M  V30 38 H 2.500929 3.803080 6.219290 0
M  V30 39 H -0.355208 2.854191 5.178722 0
M  V30 40 H 0.370481 2.712885 6.897389 0
M  V30 41 H 0.607920 5.242385 6.959187 0
M  V30 42 H -0.080888 5.363123 5.204361 0
M  V30 43 H 4.042189 3.228312 4.124729 0
M  V30 44 H -1.960317 0.713244 -0.868880 0
M  V30 45 H -2.549529 -4.602051 -2.628530 0
M  V30 46 H -2.770391 -4.042453 -0.903117 0
M  V30 END ATOM
M  V30 BEGIN BOND
M  V30 1 3 1 2
M  V30 2 1 2 3
M  V30 3 2 3 4
M  V30 4 1 3 5
M  V30 5 1 5 6
M  V30 6 1 6 7
M  V30 7 2 7 8
M  V30 8 1 8 9
M  V30 9 2 9 10
M  V30 10 1 10 11
M  V30 11 2 11 12
M  V30 12 1 12 13
M  V30 13 1 13 14
M  V30 14 2 14 15
M  V30 15 1 14 16
M  V30 16 1 16 17
M  V30 17 1 17 18
M  V30 18 2 18 19
M  V30 19 1 19 20
M  V30 20 1 20 21
M  V30 21 1 21 22
M  V30 22 1 19 23
M  V30 23 1 23 24
M  V30 24 1 12 25
M  V30 25 2 25 26
M  V30 26 1 8 27
M  V30 27 1 27 5
M  V30 28 1 26 9
M  V30 29 2 24 17
M  V30 30 1 22 20
M  V30 31 1 1 28
M  V30 32 1 6 29
M  V30 33 1 6 30
M  V30 34 1 7 31
M  V30 35 1 10 32
M  V30 36 1 11 33
M  V30 37 1 13 34
M  V30 38 1 13 35
M  V30 39 1 16 36
M  V30 40 1 18 37
M  V30 41 1 20 38
M  V30 42 1 21 39
M  V30 43 1 21 40
M  V30 44 1 22 41
M  V30 45 1 22 42
M  V30 46 1 23 43
M  V30 47 1 25 44
M  V30 48 1 27 45
M  V30 49 1 27 46
M  V30 END BOND
M  V30 END CTAB
M  END
>  <Dataset>  (714) 
ChEMBL_Kinases

>  <Ligand_Instance>  (714) 
nan

>  <PDB_ID>  (714) 
nan

>  <Standardized_SMILES>  (714) 
C#CC(=O)N1CC=C(c2ccc(CC(=O)Nc3cc(C4CC4)[nH]n3)cn2)C1

>  <Name>  (714) 
nan

>  <Pocket>  (714) 
nan

>  <ATP_Site>  (714) 
nan

>  <Peripheral>  (714) 
nan

>  <Num_H_Atoms_ProtBoundConf>  (714) 
nan

>  <Num_Resolved_Atoms>  (714) 
nan

>  <Num_Not_Resolved_Atoms>  (714) 
nan

$$$$
CHEMBL4205311
     RDKit          3D

  0  0  0  0  0  0  0  0  0  0999 V3000
M  V30 BEGIN CTAB
M  V30 COUNTS 34 37 0 0 0
M  V30 BEGIN ATOM
M  V30 1 C -1.497646 -0.704328 5.553401 0
M  V30 2 C -0.293091 -0.542479 4.873744 0
M  V30 3 C -0.208701 -0.535260 3.494791 0
M  V30 4 C -1.379712 -0.696841 2.785390 0
M  V30 5 C -1.381642 -0.701648 1.327984 0
M  V30 6 N -0.269024 -0.552498 0.595800 0
M  V30 7 C -0.205946 -0.548106 -0.738970 0
M  V30 8 N 0.957135 -0.392256 -1.530268 0
M  V30 9 C 2.295815 -0.208570 -1.112922 0
M  V30 10 C 3.352741 -0.067727 -2.016441 0
M  V30 11 C 4.636922 0.108536 -1.608557 0
M  V30 12 N 4.976938 0.159260 -0.311800 0
M  V30 13 C 4.019224 0.032036 0.623304 0
M  V30 14 C 2.724786 -0.145699 0.192894 0
M  V30 15 C -1.423490 -0.715775 -1.354801 0
M  V30 16 C -1.780872 -0.768665 -2.705311 0
M  V30 17 C -3.136012 -0.953548 -2.840006 0
M  V30 18 C -3.577231 -1.009542 -1.546011 0
M  V30 19 N -2.568804 -0.869536 -0.673444 0
M  V30 20 N -2.519976 -0.858782 0.633803 0
M  V30 21 N -2.549446 -0.854053 3.431042 0
M  V30 22 C -2.642256 -0.862528 4.774200 0
M  V30 23 H -1.545678 -0.707528 6.635789 0
M  V30 24 H 0.562193 -0.424072 5.519659 0
M  V30 25 H 0.744082 -0.407042 3.018982 0
M  V30 26 H 0.837094 -0.412024 -2.575591 0
M  V30 27 H 3.151523 -0.098760 -3.089004 0
M  V30 28 H 5.418437 0.212449 -2.343073 0
M  V30 29 H 4.289982 0.072476 1.668913 0
M  V30 30 H 2.011432 -0.240109 0.994352 0
M  V30 31 H -1.053914 -0.672242 -3.508666 0
M  V30 32 H -3.719341 -1.035742 -3.728358 0
M  V30 33 H -4.618854 -1.150308 -1.221273 0
M  V30 34 H -3.608274 -0.992574 5.238691 0
M  V30 END ATOM
M  V30 BEGIN BOND
M  V30 1 2 1 2
M  V30 2 1 2 3
M  V30 3 2 3 4
M  V30 4 1 4 5
M  V30 5 1 5 6
M  V30 6 2 6 7
M  V30 7 1 7 8
M  V30 8 1 8 9
M  V30 9 2 9 10
M  V30 10 1 10 11
M  V30 11 2 11 12
M  V30 12 1 12 13
M  V30 13 2 13 14
M  V30 14 1 7 15
M  V30 15 2 15 16
M  V30 16 1 16 17
M  V30 17 2 17 18
M  V30 18 1 18 19
M  V30 19 1 19 20
M  V30 20 1 4 21
M  V30 21 2 21 22
M  V30 22 1 22 1
M  V30 23 2 20 5
M  V30 24 1 14 9
M  V30 25 1 19 15
M  V30 26 1 1 23
M  V30 27 1 2 24
M  V30 28 1 3 25
M  V30 29 1 8 26
M  V30 30 1 10 27
M  V30 31 1 11 28
M  V30 32 1 13 29
M  V30 33 1 14 30
M  V30 34 1 16 31
M  V30 35 1 17 32
M  V30 36 1 18 33
M  V30 37 1 22 34
M  V30 END BOND
M  V30 END CTAB
M  END
>  <Dataset>  (715) 
ChEMBL_Kinases

>  <Ligand_Instance>  (715) 
nan

>  <PDB_ID>  (715) 
nan

>  <Standardized_SMILES>  (715) 
c1ccc(-c2nc(Nc3ccncc3)c3cccn3n2)nc1

>  <Name>  (715) 
nan

>  <Pocket>  (715) 
nan

>  <ATP_Site>  (715) 
nan

>  <Peripheral>  (715) 
nan

>  <Num_H_Atoms_ProtBoundConf>  (715) 
nan

>  <Num_Resolved_Atoms>  (715) 
nan

>  <Num_Not_Resolved_Atoms>  (715) 
nan

$$$$
CHEMBL4205235
     RDKit          3D

  0  0  0  0  0  0  0  0  0  0999 V3000
M  V30 BEGIN CTAB
M  V30 COUNTS 34 36 0 0 0
M  V30 BEGIN ATOM
M  V30 1 C -0.285328 -1.120842 4.920675 0
M  V30 2 N -0.556366 -1.012415 3.499047 0
M  V30 3 C 0.365437 -1.693349 2.660428 0
M  V30 4 O 1.049359 -2.724640 2.981211 0
M  V30 5 C 0.602498 -1.219309 1.281566 0
M  V30 6 S 1.658189 -1.766627 -0.102526 0
M  V30 7 C 1.150311 -0.514812 -1.211985 0
M  V30 8 C 1.682645 -0.419434 -2.577244 0
M  V30 9 C 2.611901 -1.360667 -2.971092 0
M  V30 10 C 3.071128 -1.202992 -4.284216 0
M  V30 11 N 2.667821 -0.230669 -5.125806 0
M  V30 12 C 1.758944 0.647100 -4.663686 0
M  V30 13 C 1.223964 0.599619 -3.378552 0
M  V30 14 C 0.262648 0.225925 -0.551832 0
M  V30 15 C -0.062333 -0.088217 0.740716 0
M  V30 16 N -0.955805 0.505180 1.674276 0
M  V30 17 C -1.589755 -0.346473 2.692220 0
M  V30 18 C -2.423901 -1.356720 1.939745 0
M  V30 19 C -2.499396 0.457091 3.554402 0
M  V30 20 H -1.147378 -0.659215 5.473600 0
M  V30 21 H 0.599569 -0.523058 5.150474 0
M  V30 22 H -0.214918 -2.167544 5.255466 0
M  V30 23 H 2.974453 -2.159286 -2.350041 0
M  V30 24 H 3.804152 -1.898505 -4.679242 0
M  V30 25 H 1.418967 1.435033 -5.316180 0
M  V30 26 H 0.502313 1.331574 -3.074493 0
M  V30 27 H -0.172041 1.065011 -1.080570 0
M  V30 28 H -1.171816 1.528472 1.653031 0
M  V30 29 H -2.396891 -2.368922 2.358198 0
M  V30 30 H -3.500161 -1.047479 1.916967 0
M  V30 31 H -2.134103 -1.452235 0.863216 0
M  V30 32 H -1.977635 0.887946 4.428340 0
M  V30 33 H -3.369742 -0.168721 3.849035 0
M  V30 34 H -2.948335 1.275694 2.933095 0
M  V30 END ATOM
M  V30 BEGIN BOND
M  V30 1 1 1 2
M  V30 2 1 2 3
M  V30 3 2 3 4
M  V30 4 1 3 5
M  V30 5 1 5 6
M  V30 6 1 6 7
M  V30 7 1 7 8
M  V30 8 2 8 9
M  V30 9 1 9 10
M  V30 10 2 10 11
M  V30 11 1 11 12
M  V30 12 2 12 13
M  V30 13 2 7 14
M  V30 14 1 14 15
M  V30 15 1 15 16
M  V30 16 1 16 17
M  V30 17 1 17 18
M  V30 18 1 17 19
M  V30 19 1 17 2
M  V30 20 2 15 5
M  V30 21 1 13 8
M  V30 22 1 1 20
M  V30 23 1 1 21
M  V30 24 1 1 22
M  V30 25 1 9 23
M  V30 26 1 10 24
M  V30 27 1 12 25
M  V30 28 1 13 26
M  V30 29 1 14 27
M  V30 30 1 16 28
M  V30 31 1 18 29
M  V30 32 1 18 30
M  V30 33 1 18 31
M  V30 34 1 19 32
M  V30 35 1 19 33
M  V30 36 1 19 34
M  V30 END BOND
M  V30 END CTAB
M  END
>  <Dataset>  (716) 
ChEMBL_Kinases

>  <Ligand_Instance>  (716) 
nan

>  <PDB_ID>  (716) 
nan

>  <Standardized_SMILES>  (716) 
CN1C(=O)c2sc(-c3ccncc3)cc2NC1(C)C

>  <Name>  (716) 
nan

>  <Pocket>  (716) 
nan

>  <ATP_Site>  (716) 
nan

>  <Peripheral>  (716) 
nan

>  <Num_H_Atoms_ProtBoundConf>  (716) 
nan

>  <Num_Resolved_Atoms>  (716) 
nan

>  <Num_Not_Resolved_Atoms>  (716) 
nan

$$$$
CHEMBL4784109
     RDKit          3D

  0  0  0  0  0  0  0  0  0  0999 V3000
M  V30 BEGIN CTAB
M  V30 COUNTS 34 36 0 0 0
M  V30 BEGIN ATOM
M  V30 1 O 1.204141 -6.090465 0.683131 0
M  V30 2 C 1.442597 -4.913431 1.122995 0
M  V30 3 O 0.278670 -4.665651 0.393658 0
M  V30 4 C 2.560619 -4.406413 2.000480 0
M  V30 5 N 2.425654 -2.981167 2.229332 0
M  V30 6 C 2.615209 -2.028737 1.183008 0
M  V30 7 N 3.502920 -2.091763 0.285806 0
M  V30 8 C 3.570013 -1.097864 -0.658734 0
M  V30 9 O 4.382823 -0.998673 -1.622973 0
M  V30 10 C 2.583819 -0.050757 -0.513860 0
M  V30 11 C 2.256469 1.096884 -1.106641 0
M  V30 12 C 1.129758 1.957773 -0.675837 0
M  V30 13 C 1.212297 3.365789 -0.611844 0
M  V30 14 S -0.541100 3.749218 -0.014836 0
M  V30 15 C -0.995744 1.907695 0.013790 0
M  V30 16 C -2.336267 1.476037 0.421348 0
M  V30 17 C -2.566506 0.094500 0.365012 0
M  V30 18 C -3.811879 -0.352059 0.737043 0
M  V30 19 C -4.812931 0.499850 1.152724 0
M  V30 20 C -4.559949 1.851662 1.198958 0
M  V30 21 Cl -5.800550 2.959288 1.720665 0
M  V30 22 C -3.303199 2.339735 0.827092 0
M  V30 23 N -0.009096 1.336085 -0.344951 0
M  V30 24 S 1.606807 -0.564635 0.927760 0
M  V30 25 H -0.605812 -4.429325 0.880996 0
M  V30 26 H 2.490742 -4.903462 2.991864 0
M  V30 27 H 3.497931 -4.682926 1.478672 0
M  V30 28 H 2.179682 -2.609860 3.189380 0
M  V30 29 H 2.935595 1.307748 -1.949882 0
M  V30 30 H 2.039383 3.898619 -0.846520 0
M  V30 31 H -1.753704 -0.560469 0.030702 0
M  V30 32 H -3.969613 -1.416952 0.685417 0
M  V30 33 H -5.774565 0.054922 1.429684 0
M  V30 34 H -3.075822 3.405321 0.854802 0
M  V30 END ATOM
M  V30 BEGIN BOND
M  V30 1 2 1 2
M  V30 2 1 2 3
M  V30 3 1 2 4
M  V30 4 1 4 5
M  V30 5 1 5 6
M  V30 6 2 6 7
M  V30 7 1 7 8
M  V30 8 2 8 9
M  V30 9 1 8 10
M  V30 10 2 10 11
M  V30 11 1 11 12
M  V30 12 2 12 13
M  V30 13 1 13 14
M  V30 14 1 14 15
M  V30 15 1 15 16
M  V30 16 2 16 17
M  V30 17 1 17 18
M  V30 18 2 18 19
M  V30 19 1 19 20
M  V30 20 1 20 21
M  V30 21 2 20 22
M  V30 22 2 15 23
M  V30 23 1 10 24
M  V30 24 1 24 6
M  V30 25 1 23 12
M  V30 26 1 22 16
M  V30 27 1 3 25
M  V30 28 1 4 26
M  V30 29 1 4 27
M  V30 30 1 5 28
M  V30 31 1 11 29
M  V30 32 1 13 30
M  V30 33 1 17 31
M  V30 34 1 18 32
M  V30 35 1 19 33
M  V30 36 1 22 34
M  V30 END BOND
M  V30 END CTAB
M  END
>  <Dataset>  (717) 
ChEMBL_Kinases

>  <Ligand_Instance>  (717) 
nan

>  <PDB_ID>  (717) 
nan

>  <Standardized_SMILES>  (717) 
O=C(O)CNC1=NC(=O)/C(=C/c2csc(-c3cccc(Cl)c3)n2)S1

>  <Name>  (717) 
nan

>  <Pocket>  (717) 
nan

>  <ATP_Site>  (717) 
nan

>  <Peripheral>  (717) 
nan

>  <Num_H_Atoms_ProtBoundConf>  (717) 
nan

>  <Num_Resolved_Atoms>  (717) 
nan

>  <Num_Not_Resolved_Atoms>  (717) 
nan

$$$$
CHEMBL4205698
     RDKit          3D

  0  0  0  0  0  0  0  0  0  0999 V3000
M  V30 BEGIN CTAB
M  V30 COUNTS 50 53 0 0 0
M  V30 BEGIN ATOM
M  V30 1 C 1.201312 -3.365456 -4.965859 0
M  V30 2 O 1.430692 -4.118369 -3.788795 0
M  V30 3 C 1.548922 -3.456734 -2.572554 0
M  V30 4 C 1.471851 -2.100811 -2.327554 0
M  V30 5 C 1.613348 -1.614346 -1.049300 0
M  V30 6 C 1.833372 -2.463280 0.006112 0
M  V30 7 C 2.004032 -2.212535 1.352576 0
M  V30 8 C 2.002564 -0.944324 2.078524 0
M  V30 9 C 2.992074 -0.703197 3.035299 0
M  V30 10 C 2.959030 0.513533 3.705641 0
M  V30 11 C 2.015089 1.495593 3.487936 0
M  V30 12 C 1.043052 1.243016 2.539050 0
M  V30 13 C 0.002956 2.187780 2.220462 0
M  V30 14 C -0.882088 2.963309 1.952543 0
M  V30 15 C -1.975737 3.887829 1.628839 0 CFG=2
M  V30 16 O -1.427650 5.108405 1.309445 0
M  V30 17 C -2.971384 3.996515 2.753431 0
M  V30 18 C -3.951916 2.870413 2.566771 0
M  V30 19 N -3.689890 2.382879 1.217566 0
M  V30 20 C -4.276807 1.122724 0.748769 0
M  V30 21 C -2.827194 3.318108 0.545661 0
M  V30 22 O -2.934857 3.473627 -0.716027 0
M  V30 23 C 1.056470 0.043759 1.862495 0
M  V30 24 N 2.186103 -3.434817 1.924009 0
M  V30 25 C 2.127284 -4.379660 0.961489 0
M  V30 26 C 2.287492 -5.797604 1.265387 0
M  V30 27 N 2.229730 -6.808594 0.271468 0
M  V30 28 O 2.484832 -6.127612 2.462685 0
M  V30 29 N 1.909543 -3.799376 -0.233724 0
M  V30 30 C 1.774066 -4.302064 -1.479036 0
M  V30 31 H 2.163135 -2.956986 -5.394444 0
M  V30 32 H 0.546388 -2.485497 -4.808450 0
M  V30 33 H 0.675282 -3.972838 -5.743228 0
M  V30 34 H 1.300167 -1.502028 -3.188100 0
M  V30 35 H 1.548458 -0.553118 -0.889711 0
M  V30 36 H 3.750033 -1.451048 3.233460 0
M  V30 37 H 3.729964 0.677372 4.437292 0
M  V30 38 H 2.002399 2.430741 4.013656 0
M  V30 39 H -2.176035 5.715181 1.072638 0
M  V30 40 H -2.430357 3.824490 3.712715 0
M  V30 41 H -3.496262 4.952045 2.799985 0
M  V30 42 H -3.859689 2.076448 3.318674 0
M  V30 43 H -4.983718 3.264869 2.592278 0
M  V30 44 H -3.846855 0.293557 1.352839 0
M  V30 45 H -5.358632 1.186557 0.961077 0
M  V30 46 H -4.112691 0.970865 -0.333328 0
M  V30 47 H 0.285474 -0.151849 1.112580 0
M  V30 48 H 2.809609 -7.299478 -0.460928 0
M  V30 49 H 1.271607 -7.264977 0.205745 0
M  V30 50 H 1.846954 -5.374451 -1.588794 0
M  V30 END ATOM
M  V30 BEGIN BOND
M  V30 1 1 1 2
M  V30 2 1 2 3
M  V30 3 1 3 4
M  V30 4 2 4 5
M  V30 5 1 5 6
M  V30 6 2 6 7
M  V30 7 1 7 8
M  V30 8 2 8 9
M  V30 9 1 9 10
M  V30 10 2 10 11
M  V30 11 1 11 12
M  V30 12 1 12 13
M  V30 13 3 13 14
M  V30 14 1 15 14 CFG=1
M  V30 15 1 15 16
M  V30 16 1 15 17
M  V30 17 1 17 18
M  V30 18 1 18 19
M  V30 19 1 19 20
M  V30 20 1 19 21
M  V30 21 2 21 22
M  V30 22 2 12 23
M  V30 23 1 7 24
M  V30 24 2 24 25
M  V30 25 1 25 26
M  V30 26 1 26 27
M  V30 27 2 26 28
M  V30 28 1 25 29
M  V30 29 1 29 30
M  V30 30 2 30 3
M  V30 31 1 29 6
M  V30 32 1 23 8
M  V30 33 1 21 15
M  V30 34 1 1 31
M  V30 35 1 1 32
M  V30 36 1 1 33
M  V30 37 1 4 34
M  V30 38 1 5 35
M  V30 39 1 9 36
M  V30 40 1 10 37
M  V30 41 1 11 38
M  V30 42 1 16 39
M  V30 43 1 17 40
M  V30 44 1 17 41
M  V30 45 1 18 42
M  V30 46 1 18 43
M  V30 47 1 20 44
M  V30 48 1 20 45
M  V30 49 1 20 46
M  V30 50 1 23 47
M  V30 51 1 27 48
M  V30 52 1 27 49
M  V30 53 1 30 50
M  V30 END BOND
M  V30 END CTAB
M  END
>  <Dataset>  (718) 
ChEMBL_Kinases

>  <Ligand_Instance>  (718) 
nan

>  <PDB_ID>  (718) 
nan

>  <Standardized_SMILES>  (718) 
COc1ccc2c(-c3cccc(C#C[C@]4(O)CCN(C)C4=O)c3)nc(C(N)=O)n2c1

>  <Name>  (718) 
nan

>  <Pocket>  (718) 
nan

>  <ATP_Site>  (718) 
nan

>  <Peripheral>  (718) 
nan

>  <Num_H_Atoms_ProtBoundConf>  (718) 
nan

>  <Num_Resolved_Atoms>  (718) 
nan

>  <Num_Not_Resolved_Atoms>  (718) 
nan

$$$$
CHEMBL4786436
     RDKit          3D

  0  0  0  0  0  0  0  0  0  0999 V3000
M  V30 BEGIN CTAB
M  V30 COUNTS 54 57 0 0 0
M  V30 BEGIN ATOM
M  V30 1 C 4.932556 0.443750 5.322947 0
M  V30 2 C 4.513983 0.218240 3.871458 0
M  V30 3 N 4.326126 -1.173576 3.654435 0
M  V30 4 S 3.863422 -1.595029 2.075094 0
M  V30 5 O 4.958698 -1.226189 1.085499 0
M  V30 6 O 3.807490 -3.110240 2.020878 0
M  V30 7 N 2.366556 -0.923881 1.581682 0
M  V30 8 C 1.931925 0.392061 1.415421 0
M  V30 9 C 2.872934 1.343753 1.015388 0
M  V30 10 C 2.486221 2.649365 0.822235 0
M  V30 11 C 1.166342 3.049104 1.016990 0
M  V30 12 F 0.890172 4.351106 0.801356 0
M  V30 13 C 0.215647 2.131567 1.410678 0
M  V30 14 C -1.131522 2.583746 1.638921 0
M  V30 15 O -1.128709 3.834372 1.944472 0
M  V30 16 C -2.453650 2.057299 1.625917 0
M  V30 17 N -3.463377 2.581745 2.334737 0
M  V30 18 N -4.581136 1.904434 2.095206 0
M  V30 19 C -4.382291 0.901602 1.221494 0
M  V30 20 N -5.191558 -0.023733 0.674935 0
M  V30 21 C -4.732927 -0.927874 -0.213321 0
M  V30 22 C -3.386537 -0.841220 -0.522824 0
M  V30 23 C -2.895284 -1.822878 -1.486752 0
M  V30 24 C -3.506490 -3.075210 -1.491507 0
M  V30 25 C -3.128776 -4.084036 -2.356610 0
M  V30 26 C -2.098527 -3.865279 -3.269847 0
M  V30 27 S -1.651548 -5.169356 -4.348824 0
M  V30 28 N -0.427921 -6.184415 -3.674554 0
M  V30 29 O -2.861411 -6.038170 -4.547515 0
M  V30 30 O -1.125076 -4.651392 -5.652496 0
M  V30 31 C -1.489977 -2.625740 -3.268596 0
M  V30 32 C -1.876116 -1.622406 -2.397885 0
M  V30 33 C -2.545523 0.100687 0.029329 0
M  V30 34 C -3.037021 1.014708 0.937223 0
M  V30 35 C 0.641912 0.838763 1.594396 0
M  V30 36 F -0.174218 -0.146673 2.022165 0
M  V30 37 H 5.577621 -0.421155 5.585441 0
M  V30 38 H 4.008474 0.502008 5.934168 0
M  V30 39 H 5.540855 1.352227 5.380089 0
M  V30 40 H 3.556485 0.756832 3.699106 0
M  V30 41 H 5.342206 0.591683 3.242111 0
M  V30 42 H 3.774258 -1.651683 4.377109 0
M  V30 43 H 1.581165 -1.600676 1.342545 0
M  V30 44 H 3.907147 1.100505 0.847400 0
M  V30 45 H 3.227948 3.378471 0.512143 0
M  V30 46 H -5.467153 2.183653 2.571252 0
M  V30 47 H -5.422547 -1.652426 -0.625203 0
M  V30 48 H -4.325096 -3.360310 -0.819939 0
M  V30 49 H -3.606892 -5.057698 -2.357467 0
M  V30 50 H 0.521441 -5.929328 -4.021296 0
M  V30 51 H -0.436197 -6.057820 -2.637911 0
M  V30 52 H -0.689250 -2.456806 -3.978841 0
M  V30 53 H -1.405352 -0.649565 -2.390293 0
M  V30 54 H -1.498546 0.159632 -0.233839 0
M  V30 END ATOM
M  V30 BEGIN BOND
M  V30 1 1 1 2
M  V30 2 1 2 3
M  V30 3 1 3 4
M  V30 4 2 4 5
M  V30 5 2 4 6
M  V30 6 1 4 7
M  V30 7 1 7 8
M  V30 8 2 8 9
M  V30 9 1 9 10
M  V30 10 2 10 11
M  V30 11 1 11 12
M  V30 12 1 11 13
M  V30 13 1 13 14
M  V30 14 2 14 15
M  V30 15 1 14 16
M  V30 16 2 16 17
M  V30 17 1 17 18
M  V30 18 1 18 19
M  V30 19 2 19 20
M  V30 20 1 20 21
M  V30 21 2 21 22
M  V30 22 1 22 23
M  V30 23 2 23 24
M  V30 24 1 24 25
M  V30 25 2 25 26
M  V30 26 1 26 27
M  V30 27 1 27 28
M  V30 28 2 27 29
M  V30 29 2 27 30
M  V30 30 1 26 31
M  V30 31 2 31 32
M  V30 32 1 22 33
M  V30 33 2 33 34
M  V30 34 2 13 35
M  V30 35 1 35 36
M  V30 36 1 35 8
M  V30 37 1 34 16
M  V30 38 1 34 19
M  V30 39 1 32 23
M  V30 40 1 1 37
M  V30 41 1 1 38
M  V30 42 1 1 39
M  V30 43 1 2 40
M  V30 44 1 2 41
M  V30 45 1 3 42
M  V30 46 1 7 43
M  V30 47 1 9 44
M  V30 48 1 10 45
M  V30 49 1 18 46
M  V30 50 1 21 47
M  V30 51 1 24 48
M  V30 52 1 25 49
M  V30 53 1 28 50
M  V30 54 1 28 51
M  V30 55 1 31 52
M  V30 56 1 32 53
M  V30 57 1 33 54
M  V30 END BOND
M  V30 END CTAB
M  END
>  <Dataset>  (719) 
ChEMBL_Kinases

>  <Ligand_Instance>  (719) 
nan

>  <PDB_ID>  (719) 
nan

>  <Standardized_SMILES>  (719) 
CCNS(=O)(=O)Nc1ccc(F)c(C(=O)c2n[nH]c3ncc(-c4ccc(S(N)(=O)=O)cc4)cc23)c1F

>  <Name>  (719) 
nan

>  <Pocket>  (719) 
nan

>  <ATP_Site>  (719) 
nan

>  <Peripheral>  (719) 
nan

>  <Num_H_Atoms_ProtBoundConf>  (719) 
nan

>  <Num_Resolved_Atoms>  (719) 
nan

>  <Num_Not_Resolved_Atoms>  (719) 
nan

$$$$
CHEMBL4169102
     RDKit          3D

  0  0  0  0  0  0  0  0  0  0999 V3000
M  V30 BEGIN CTAB
M  V30 COUNTS 30 32 0 0 0
M  V30 BEGIN ATOM
M  V30 1 C -1.563055 -4.572395 4.156507 0
M  V30 2 O -1.557373 -3.238033 3.630072 0
M  V30 3 C -0.841922 -3.034899 2.462448 0
M  V30 4 C -0.155401 -4.030522 1.803069 0
M  V30 5 C 0.570502 -3.871816 0.639609 0
M  V30 6 C 0.599743 -2.603305 0.104491 0
M  V30 7 N 1.276518 -2.323740 -1.023448 0
M  V30 8 C 1.332464 -1.088514 -1.576380 0
M  V30 9 Cl 2.232153 -0.754453 -3.056310 0
M  V30 10 C 0.652801 -0.079974 -0.934396 0
M  V30 11 C 0.704979 1.269847 -1.544280 0
M  V30 12 C 0.823919 2.267685 -0.688694 0
M  V30 13 S 0.947822 2.472529 1.081908 0
M  V30 14 C 1.635024 4.144260 1.013049 0
M  V30 15 O 2.230710 4.536290 2.040831 0
M  V30 16 N 1.302213 4.624730 -0.278695 0
M  V30 17 C 0.868923 3.641787 -1.195186 0
M  V30 18 O 0.560002 4.040128 -2.371231 0
M  V30 19 C -0.075411 -0.246489 0.227622 0
M  V30 20 C -0.072572 -1.538378 0.715969 0
M  V30 21 C -0.787823 -1.778341 1.896008 0
M  V30 22 H -1.821358 -5.328426 3.403087 0
M  V30 23 H -0.526128 -4.841937 4.506002 0
M  V30 24 H -2.184569 -4.597159 5.076056 0
M  V30 25 H -0.174997 -5.030697 2.211554 0
M  V30 26 H 1.091920 -4.680688 0.156652 0
M  V30 27 H 0.647556 1.404244 -2.609894 0
M  V30 28 H 1.421193 5.655764 -0.390631 0
M  V30 29 H -0.611126 0.520055 0.732525 0
M  V30 30 H -1.323829 -0.954694 2.394589 0
M  V30 END ATOM
M  V30 BEGIN BOND
M  V30 1 1 1 2
M  V30 2 1 2 3
M  V30 3 2 3 4
M  V30 4 1 4 5
M  V30 5 2 5 6
M  V30 6 1 6 7
M  V30 7 2 7 8
M  V30 8 1 8 9
M  V30 9 1 8 10
M  V30 10 1 10 11
M  V30 11 2 11 12
M  V30 12 1 12 13
M  V30 13 1 13 14
M  V30 14 2 14 15
M  V30 15 1 14 16
M  V30 16 1 16 17
M  V30 17 2 17 18
M  V30 18 2 10 19
M  V30 19 1 19 20
M  V30 20 2 20 21
M  V30 21 1 21 3
M  V30 22 1 20 6
M  V30 23 1 17 12
M  V30 24 1 1 22
M  V30 25 1 1 23
M  V30 26 1 1 24
M  V30 27 1 4 25
M  V30 28 1 5 26
M  V30 29 1 11 27
M  V30 30 1 16 28
M  V30 31 1 19 29
M  V30 32 1 21 30
M  V30 END BOND
M  V30 END CTAB
M  END
>  <Dataset>  (720) 
ChEMBL_Kinases

>  <Ligand_Instance>  (720) 
nan

>  <PDB_ID>  (720) 
nan

>  <Standardized_SMILES>  (720) 
COc1ccc2nc(Cl)c(/C=C3\SC(=O)NC3=O)cc2c1

>  <Name>  (720) 
nan

>  <Pocket>  (720) 
nan

>  <ATP_Site>  (720) 
nan

>  <Peripheral>  (720) 
nan

>  <Num_H_Atoms_ProtBoundConf>  (720) 
nan

>  <Num_Resolved_Atoms>  (720) 
nan

>  <Num_Not_Resolved_Atoms>  (720) 
nan

$$$$
CHEMBL478650
     RDKit          3D

  0  0  0  0  0  0  0  0  0  0999 V3000
M  V30 BEGIN CTAB
M  V30 COUNTS 48 51 0 0 0
M  V30 BEGIN ATOM
M  V30 1 C 1.756789 -1.780020 4.387879 0
M  V30 2 C 2.230110 -0.588595 3.662769 0
M  V30 3 C 3.305790 0.174945 4.097400 0
M  V30 4 C 3.716358 1.270295 3.400391 0
M  V30 5 C 3.064181 1.658063 2.223757 0
M  V30 6 C 3.425914 2.814816 1.407274 0
M  V30 7 O 2.833479 3.152908 0.351641 0
M  V30 8 N 4.501662 3.687548 1.731128 0
M  V30 9 C 4.650017 4.745901 0.772369 0
M  V30 10 N 5.125633 5.206158 -0.258895 0
M  V30 11 N 4.872971 6.377730 -0.695070 0
M  V30 12 C 4.152043 7.211442 -0.196135 0
M  V30 13 S 3.577786 6.238653 1.338882 0
M  V30 14 C 1.994669 0.899443 1.790981 0
M  V30 15 C 1.571456 -0.226755 2.506441 0
M  V30 16 C 0.413207 -0.950830 1.938670 0
M  V30 17 C 0.413403 -1.211064 0.580399 0
M  V30 18 C -0.627482 -1.878963 -0.030186 0
M  V30 19 C -1.706828 -2.307541 0.713932 0
M  V30 20 C -2.892284 -3.023595 0.255008 0
M  V30 21 O -3.863017 -3.386489 0.990499 0
M  V30 22 N -3.096347 -3.403628 -1.100082 0
M  V30 23 C -4.377886 -4.104652 -1.233613 0
M  V30 24 C -4.622448 -4.523186 -2.667869 0
M  V30 25 C -4.688416 -3.503424 -3.722505 0
M  V30 26 C -5.978263 -4.133434 -3.259760 0
M  V30 27 C -1.687627 -2.035699 2.079204 0
M  V30 28 C -0.645107 -1.365499 2.697316 0
M  V30 29 H 1.143498 -1.540457 5.281087 0
M  V30 30 H 2.648338 -2.320704 4.825292 0
M  V30 31 H 1.305376 -2.540182 3.717478 0
M  V30 32 H 3.834354 -0.097219 5.005806 0
M  V30 33 H 4.552589 1.886529 3.713986 0
M  V30 34 H 5.076518 3.508141 2.594993 0
M  V30 35 H 4.024023 8.173343 -0.673298 0
M  V30 36 H 1.464059 1.182654 0.868148 0
M  V30 37 H 1.226290 -0.906324 -0.073856 0
M  V30 38 H -0.699283 -2.119873 -1.088553 0
M  V30 39 H -2.361773 -3.162092 -1.820264 0
M  V30 40 H -5.210357 -3.494460 -0.849703 0
M  V30 41 H -4.281201 -5.040860 -0.638566 0
M  V30 42 H -4.271449 -5.556121 -2.954706 0
M  V30 43 H -4.486666 -2.445032 -3.439030 0
M  V30 44 H -4.302280 -3.782061 -4.737727 0
M  V30 45 H -6.658231 -3.554094 -2.605754 0
M  V30 46 H -6.508251 -4.857269 -3.884637 0
M  V30 47 H -2.505363 -2.341034 2.742985 0
M  V30 48 H -0.665929 -1.174623 3.749217 0
M  V30 END ATOM
M  V30 BEGIN BOND
M  V30 1 1 1 2
M  V30 2 2 2 3
M  V30 3 1 3 4
M  V30 4 2 4 5
M  V30 5 1 5 6
M  V30 6 2 6 7
M  V30 7 1 6 8
M  V30 8 1 8 9
M  V30 9 2 9 10
M  V30 10 1 10 11
M  V30 11 2 11 12
M  V30 12 1 12 13
M  V30 13 1 5 14
M  V30 14 2 14 15
M  V30 15 1 15 16
M  V30 16 2 16 17
M  V30 17 1 17 18
M  V30 18 2 18 19
M  V30 19 1 19 20
M  V30 20 2 20 21
M  V30 21 1 20 22
M  V30 22 1 22 23
M  V30 23 1 23 24
M  V30 24 1 24 25
M  V30 25 1 25 26
M  V30 26 1 19 27
M  V30 27 2 27 28
M  V30 28 1 15 2
M  V30 29 1 28 16
M  V30 30 1 13 9
M  V30 31 1 26 24
M  V30 32 1 1 29
M  V30 33 1 1 30
M  V30 34 1 1 31
M  V30 35 1 3 32
M  V30 36 1 4 33
M  V30 37 1 8 34
M  V30 38 1 12 35
M  V30 39 1 14 36
M  V30 40 1 17 37
M  V30 41 1 18 38
M  V30 42 1 22 39
M  V30 43 1 23 40
M  V30 44 1 23 41
M  V30 45 1 24 42
M  V30 46 1 25 43
M  V30 47 1 25 44
M  V30 48 1 26 45
M  V30 49 1 26 46
M  V30 50 1 27 47
M  V30 51 1 28 48
M  V30 END BOND
M  V30 END CTAB
M  END
>  <Dataset>  (721) 
ChEMBL_Kinases

>  <Ligand_Instance>  (721) 
nan

>  <PDB_ID>  (721) 
nan

>  <Standardized_SMILES>  (721) 
Cc1ccc(C(=O)Nc2nncs2)cc1-c1ccc(C(=O)NCC2CC2)cc1

>  <Name>  (721) 
nan

>  <Pocket>  (721) 
nan

>  <ATP_Site>  (721) 
nan

>  <Peripheral>  (721) 
nan

>  <Num_H_Atoms_ProtBoundConf>  (721) 
nan

>  <Num_Resolved_Atoms>  (721) 
nan

>  <Num_Not_Resolved_Atoms>  (721) 
nan

$$$$
CHEMBL4786511
     RDKit          3D

  0  0  0  0  0  0  0  0  0  0999 V3000
M  V30 BEGIN CTAB
M  V30 COUNTS 48 52 0 0 0
M  V30 BEGIN ATOM
M  V30 1 C 4.835081 -6.479098 1.676352 0
M  V30 2 C 4.176616 -5.398323 0.891992 0
M  V30 3 C 4.296910 -5.349727 -0.483398 0
M  V30 4 C 3.569874 -4.228351 -0.846535 0
M  V30 5 C 3.015631 -3.595780 0.250137 0
M  V30 6 C 2.213426 -2.386793 0.351167 0
M  V30 7 C 2.527374 -1.221083 -0.184499 0
M  V30 8 C 3.676406 -0.850744 -0.959663 0
M  V30 9 O 4.597472 -1.656782 -1.217313 0
M  V30 10 N 3.532401 0.508356 -1.323881 0
M  V30 11 C 2.311485 0.999675 -0.789650 0
M  V30 12 C 1.736155 2.269505 -0.881084 0
M  V30 13 C 0.510826 2.504652 -0.262980 0
M  V30 14 C -0.132020 1.496486 0.433092 0
M  V30 15 C -1.406193 1.856016 1.038577 0
M  V30 16 C -1.469633 3.044563 1.750499 0
M  V30 17 N -2.556468 3.531098 2.371821 0
M  V30 18 C -3.717856 2.851837 2.337261 0
M  V30 19 C -3.687353 1.647572 1.626562 0
M  V30 20 C -2.581151 1.129951 0.981083 0
M  V30 21 C -2.554856 -0.128810 0.239058 0
M  V30 22 N -4.921419 0.899741 1.569193 0
M  V30 23 C -6.175797 1.294377 2.144486 0
M  V30 24 C -6.174811 2.780061 2.508009 0
M  V30 25 O -4.904333 3.216369 2.918119 0
M  V30 26 C 0.479029 0.280439 0.487011 0
M  V30 27 C 1.685943 -0.034343 -0.094257 0
M  V30 28 N 3.428583 -4.371237 1.297184 0
M  V30 29 H 5.949210 -6.467469 1.497676 0
M  V30 30 H 4.629180 -6.427646 2.755157 0
M  V30 31 H 4.481173 -7.464911 1.314722 0
M  V30 32 H 4.826752 -6.015022 -1.154801 0
M  V30 33 H 3.467643 -3.941458 -1.885822 0
M  V30 34 H 1.294953 -2.529380 0.932546 0
M  V30 35 H 4.275601 0.966021 -1.897689 0
M  V30 36 H 2.279832 3.025085 -1.438372 0
M  V30 37 H 0.072066 3.504656 -0.342060 0
M  V30 38 H -0.606456 3.698703 1.862377 0
M  V30 39 H -3.484762 -0.403905 -0.290071 0
M  V30 40 H -2.389393 -0.947868 0.984185 0
M  V30 41 H -1.768528 -0.127446 -0.567440 0
M  V30 42 H -4.942735 -0.014712 1.072415 0
M  V30 43 H -6.988904 1.112059 1.430378 0
M  V30 44 H -6.388847 0.700040 3.069469 0
M  V30 45 H -6.563009 3.361394 1.634266 0
M  V30 46 H -6.919402 2.936395 3.332532 0
M  V30 47 H -0.017502 -0.497267 1.026438 0
M  V30 48 H 3.225833 -4.244115 2.330473 0
M  V30 END ATOM
M  V30 BEGIN BOND
M  V30 1 1 1 2
M  V30 2 2 2 3
M  V30 3 1 3 4
M  V30 4 2 4 5
M  V30 5 1 5 6
M  V30 6 2 6 7
M  V30 7 1 7 8
M  V30 8 2 8 9
M  V30 9 1 8 10
M  V30 10 1 10 11
M  V30 11 2 11 12
M  V30 12 1 12 13
M  V30 13 2 13 14
M  V30 14 1 14 15
M  V30 15 2 15 16
M  V30 16 1 16 17
M  V30 17 2 17 18
M  V30 18 1 18 19
M  V30 19 2 19 20
M  V30 20 1 20 21
M  V30 21 1 19 22
M  V30 22 1 22 23
M  V30 23 1 23 24
M  V30 24 1 24 25
M  V30 25 1 14 26
M  V30 26 2 26 27
M  V30 27 1 5 28
M  V30 28 1 28 2
M  V30 29 1 27 7
M  V30 30 1 27 11
M  V30 31 1 20 15
M  V30 32 1 25 18
M  V30 33 1 1 29
M  V30 34 1 1 30
M  V30 35 1 1 31
M  V30 36 1 3 32
M  V30 37 1 4 33
M  V30 38 1 6 34
M  V30 39 1 10 35
M  V30 40 1 12 36
M  V30 41 1 13 37
M  V30 42 1 16 38
M  V30 43 1 21 39
M  V30 44 1 21 40
M  V30 45 1 21 41
M  V30 46 1 22 42
M  V30 47 1 23 43
M  V30 48 1 23 44
M  V30 49 1 24 45
M  V30 50 1 24 46
M  V30 51 1 26 47
M  V30 52 1 28 48
M  V30 END BOND
M  V30 END CTAB
M  END
>  <Dataset>  (722) 
ChEMBL_Kinases

>  <Ligand_Instance>  (722) 
nan

>  <PDB_ID>  (722) 
nan

>  <Standardized_SMILES>  (722) 
Cc1ccc(/C=C2\C(=O)Nc3ccc(-c4cnc5c(c4C)NCCO5)cc32)[nH]1

>  <Name>  (722) 
nan

>  <Pocket>  (722) 
nan

>  <ATP_Site>  (722) 
nan

>  <Peripheral>  (722) 
nan

>  <Num_H_Atoms_ProtBoundConf>  (722) 
nan

>  <Num_Resolved_Atoms>  (722) 
nan

>  <Num_Not_Resolved_Atoms>  (722) 
nan

$$$$
CHEMBL4786534
     RDKit          3D

  0  0  0  0  0  0  0  0  0  0999 V3000
M  V30 BEGIN CTAB
M  V30 COUNTS 49 53 0 0 0
M  V30 BEGIN ATOM
M  V30 1 O 2.756038 0.475859 2.103697 0
M  V30 2 C 3.231480 0.360172 0.974011 0
M  V30 3 N 4.581262 0.722770 0.770033 0
M  V30 4 C 5.516537 1.220859 1.701432 0
M  V30 5 C 6.798310 1.515326 1.291702 0
M  V30 6 C 7.768249 2.002166 2.128564 0
M  V30 7 C 7.511189 2.231156 3.462044 0
M  V30 8 C 6.246369 1.954028 3.924755 0
M  V30 9 C 5.312965 1.466883 3.038438 0
M  V30 10 N 2.421206 -0.121619 -0.051408 0
M  V30 11 C 1.068981 -0.522345 -0.009805 0
M  V30 12 C 0.442123 -0.975486 -1.152614 0
M  V30 13 C -0.868768 -1.383444 -1.196911 0
M  V30 14 C -1.656989 -1.362567 -0.066629 0
M  V30 15 C -1.076786 -0.917793 1.101343 0
M  V30 16 C 0.231414 -0.525560 1.080844 0
M  V30 17 O -1.674939 -0.812273 2.348847 0
M  V30 18 C -3.030600 -0.816302 2.710559 0
M  V30 19 N -3.248371 -0.349023 3.951849 0
M  V30 20 C -4.497487 -0.276970 4.476706 0
M  V30 21 C -5.585104 -0.700239 3.704809 0
M  V30 22 C -5.391373 -1.184575 2.426985 0
M  V30 23 C -4.103359 -1.241453 1.929829 0
M  V30 24 C -4.023436 -1.769411 0.572925 0
M  V30 25 O -5.108198 -2.267814 0.172050 0
M  V30 26 N -2.960818 -1.831663 -0.385950 0
M  V30 27 C -3.235570 -2.367410 -1.651365 0
M  V30 28 C -3.669893 -1.737348 -2.799885 0
M  V30 29 C -3.880981 -2.466574 -3.955257 0
M  V30 30 C -3.659327 -3.818078 -3.963121 0
M  V30 31 N -3.234079 -4.489345 -2.869951 0
M  V30 32 C -3.035908 -3.748748 -1.752987 0
M  V30 33 H 4.925997 0.601544 -0.211339 0
M  V30 34 H 7.092779 1.366498 0.257174 0
M  V30 35 H 8.761022 2.217157 1.754370 0
M  V30 36 H 8.310851 2.615457 4.077836 0
M  V30 37 H 6.017037 2.123968 4.965171 0
M  V30 38 H 4.347946 1.274210 3.472957 0
M  V30 39 H 2.885422 -0.197779 -0.994639 0
M  V30 40 H 0.994705 -1.026816 -2.104497 0
M  V30 41 H -1.298527 -1.727883 -2.127179 0
M  V30 42 H 0.608061 -0.191958 2.034089 0
M  V30 43 H -4.661694 0.104735 5.486929 0
M  V30 44 H -6.584391 -0.653944 4.096015 0
M  V30 45 H -6.203962 -1.520542 1.800386 0
M  V30 46 H -3.811779 -0.667352 -2.676691 0
M  V30 47 H -4.220099 -1.920548 -4.820829 0
M  V30 48 H -3.823588 -4.406308 -4.874159 0
M  V30 49 H -2.691016 -4.361071 -0.905531 0
M  V30 END ATOM
M  V30 BEGIN BOND
M  V30 1 2 1 2
M  V30 2 1 2 3
M  V30 3 1 3 4
M  V30 4 2 4 5
M  V30 5 1 5 6
M  V30 6 2 6 7
M  V30 7 1 7 8
M  V30 8 2 8 9
M  V30 9 1 2 10
M  V30 10 1 10 11
M  V30 11 2 11 12
M  V30 12 1 12 13
M  V30 13 2 13 14
M  V30 14 1 14 15
M  V30 15 2 15 16
M  V30 16 1 15 17
M  V30 17 1 17 18
M  V30 18 2 18 19
M  V30 19 1 19 20
M  V30 20 2 20 21
M  V30 21 1 21 22
M  V30 22 2 22 23
M  V30 23 1 23 24
M  V30 24 2 24 25
M  V30 25 1 24 26
M  V30 26 1 26 27
M  V30 27 2 27 28
M  V30 28 1 28 29
M  V30 29 2 29 30
M  V30 30 1 30 31
M  V30 31 2 31 32
M  V30 32 1 9 4
M  V30 33 1 16 11
M  V30 34 1 23 18
M  V30 35 1 32 27
M  V30 36 1 26 14
M  V30 37 1 3 33
M  V30 38 1 5 34
M  V30 39 1 6 35
M  V30 40 1 7 36
M  V30 41 1 8 37
M  V30 42 1 9 38
M  V30 43 1 10 39
M  V30 44 1 12 40
M  V30 45 1 13 41
M  V30 46 1 16 42
M  V30 47 1 20 43
M  V30 48 1 21 44
M  V30 49 1 22 45
M  V30 50 1 28 46
M  V30 51 1 29 47
M  V30 52 1 30 48
M  V30 53 1 32 49
M  V30 END BOND
M  V30 END CTAB
M  END
>  <Dataset>  (723) 
ChEMBL_Kinases

>  <Ligand_Instance>  (723) 
nan

>  <PDB_ID>  (723) 
nan

>  <Standardized_SMILES>  (723) 
O=C(Nc1ccccc1)Nc1ccc2c(c1)Oc1ncccc1C(=O)N2c1cccnc1

>  <Name>  (723) 
nan

>  <Pocket>  (723) 
nan

>  <ATP_Site>  (723) 
nan

>  <Peripheral>  (723) 
nan

>  <Num_H_Atoms_ProtBoundConf>  (723) 
nan

>  <Num_Resolved_Atoms>  (723) 
nan

>  <Num_Not_Resolved_Atoms>  (723) 
nan

$$$$
CHEMBL4786547
     RDKit          3D

  0  0  0  0  0  0  0  0  0  0999 V3000
M  V30 BEGIN CTAB
M  V30 COUNTS 78 83 0 0 0
M  V30 BEGIN ATOM
M  V30 1 C 2.166129 0.681743 5.513193 0
M  V30 2 C 1.896631 0.363948 4.066831 0
M  V30 3 C 2.590311 1.330567 3.112820 0 CFG=2
M  V30 4 C 2.156397 2.727679 3.312452 0
M  V30 5 N 2.290521 3.465551 4.418346 0
M  V30 6 N 1.763662 4.645542 4.214211 0
M  V30 7 C 1.257131 4.740774 2.962511 0
M  V30 8 C 0.592860 5.936021 2.401439 0
M  V30 9 N 1.521268 3.536050 2.439373 0
M  V30 10 C 1.288187 2.978007 1.159945 0
M  V30 11 C 0.630438 3.744051 0.230429 0
M  V30 12 N 0.382469 3.241560 -0.992321 0
M  V30 13 C 0.777369 1.977144 -1.322069 0
M  V30 14 N 0.547848 1.347974 -2.575198 0
M  V30 15 C -0.416639 0.280265 -2.647118 0
M  V30 16 C -1.044963 -0.137681 -1.491421 0
M  V30 17 C -1.973670 -1.150301 -1.374764 0
M  V30 18 C -2.306383 -1.814399 -2.551263 0
M  V30 19 C -3.249694 -2.922213 -2.621587 0
M  V30 20 O -3.774040 -3.489203 -3.609945 0
M  V30 21 N -3.702817 -3.521451 -1.410512 0
M  V30 22 C -4.626806 -4.616281 -1.171341 0
M  V30 23 C -3.737630 -5.829038 -0.843023 0
M  V30 24 C -2.828232 -5.447655 0.314093 0
M  V30 25 N -3.554657 -4.956772 1.429872 0
M  V30 26 C -2.913988 -4.006026 2.264352 0
M  V30 27 C -4.962890 -4.906026 1.318378 0
M  V30 28 C -5.516022 -4.424893 0.006335 0
M  V30 29 C -1.702424 -1.428110 -3.728221 0
M  V30 30 C -0.766041 -0.403085 -3.822003 0
M  V30 31 O -0.158338 -0.011000 -4.984340 0
M  V30 32 C -0.413799 -0.611337 -6.243224 0
M  V30 33 N 1.422237 1.207424 -0.432758 0
M  V30 34 C 1.669969 1.708275 0.788176 0
M  V30 35 N 2.345143 0.888018 1.730425 0
M  V30 36 C 2.815701 -0.418089 1.319463 0
M  V30 37 C 3.827676 -0.237103 0.235326 0
M  V30 38 C 5.128854 -0.064375 0.642008 0
M  V30 39 C 6.155092 0.112112 -0.256096 0
M  V30 40 C 5.952624 0.127240 -1.609523 0
M  V30 41 C 4.611603 -0.053538 -1.967563 0
M  V30 42 N 3.594761 -0.226875 -1.105517 0
M  V30 43 H 3.280825 0.575256 5.671774 0
M  V30 44 H 1.698239 -0.149563 6.104113 0
M  V30 45 H 1.777094 1.653484 5.818698 0
M  V30 46 H 2.246708 -0.673231 3.899800 0
M  V30 47 H 0.796626 0.353984 3.892021 0
M  V30 48 H 3.666730 1.246659 3.352765 0
M  V30 49 H 1.131876 6.424574 1.579132 0
M  V30 50 H 0.576091 6.717283 3.227950 0
M  V30 51 H -0.471389 5.714897 2.226973 0
M  V30 52 H 0.258973 4.720310 0.297779 0
M  V30 53 H 1.045343 1.617035 -3.470934 0
M  V30 54 H -0.811373 0.356290 -0.554570 0
M  V30 55 H -2.429964 -1.429333 -0.451204 0
M  V30 56 H -3.377670 -3.199446 -0.467121 0
M  V30 57 H -5.158045 -4.918850 -2.090884 0
M  V30 58 H -4.327236 -6.712233 -0.585334 0
M  V30 59 H -3.065433 -5.982226 -1.722671 0
M  V30 60 H -2.283760 -6.396983 0.583117 0
M  V30 61 H -2.052204 -4.720586 -0.005275 0
M  V30 62 H -3.568782 -3.139465 2.470791 0
M  V30 63 H -2.703323 -4.492120 3.263341 0
M  V30 64 H -1.917325 -3.677864 1.900430 0
M  V30 65 H -5.350439 -4.247335 2.134669 0
M  V30 66 H -5.358855 -5.933604 1.557737 0
M  V30 67 H -6.453224 -5.029676 -0.185214 0
M  V30 68 H -5.903184 -3.385717 0.104431 0
M  V30 69 H -1.918769 -1.908265 -4.676778 0
M  V30 70 H 0.248009 -0.157426 -7.010722 0
M  V30 71 H -1.449636 -0.468965 -6.577134 0
M  V30 72 H -0.151690 -1.679974 -6.142793 0
M  V30 73 H 3.318796 -0.903559 2.175225 0
M  V30 74 H 1.978927 -1.063129 0.966627 0
M  V30 75 H 5.397866 -0.061223 1.710007 0
M  V30 76 H 7.171746 0.246859 0.097015 0
M  V30 77 H 6.693601 0.257398 -2.383479 0
M  V30 78 H 4.263853 -0.068214 -3.008535 0
M  V30 END ATOM
M  V30 BEGIN BOND
M  V30 1 1 1 2
M  V30 2 1 2 3
M  V30 3 1 3 4
M  V30 4 2 4 5
M  V30 5 1 5 6
M  V30 6 2 6 7
M  V30 7 1 7 8
M  V30 8 1 7 9
M  V30 9 1 9 10
M  V30 10 2 10 11
M  V30 11 1 11 12
M  V30 12 2 12 13
M  V30 13 1 13 14
M  V30 14 1 14 15
M  V30 15 2 15 16
M  V30 16 1 16 17
M  V30 17 2 17 18
M  V30 18 1 18 19
M  V30 19 2 19 20
M  V30 20 1 19 21
M  V30 21 1 21 22
M  V30 22 1 22 23
M  V30 23 1 23 24
M  V30 24 1 24 25
M  V30 25 1 25 26
M  V30 26 1 25 27
M  V30 27 1 27 28
M  V30 28 1 18 29
M  V30 29 2 29 30
M  V30 30 1 30 31
M  V30 31 1 31 32
M  V30 32 1 13 33
M  V30 33 2 33 34
M  V30 34 1 34 35
M  V30 35 1 35 36
M  V30 36 1 36 37
M  V30 37 2 37 38
M  V30 38 1 38 39
M  V30 39 2 39 40
M  V30 40 1 40 41
M  V30 41 2 41 42
M  V30 42 1 35 3
M  V30 43 1 42 37
M  V30 44 1 9 4
M  V30 45 1 34 10
M  V30 46 1 30 15
M  V30 47 1 28 22
M  V30 48 1 1 43
M  V30 49 1 1 44
M  V30 50 1 1 45
M  V30 51 1 2 46
M  V30 52 1 2 47
M  V30 53 1 3 48 CFG=1
M  V30 54 1 8 49
M  V30 55 1 8 50
M  V30 56 1 8 51
M  V30 57 1 11 52
M  V30 58 1 14 53
M  V30 59 1 16 54
M  V30 60 1 17 55
M  V30 61 1 21 56
M  V30 62 1 22 57
M  V30 63 1 23 58
M  V30 64 1 23 59
M  V30 65 1 24 60
M  V30 66 1 24 61
M  V30 67 1 26 62
M  V30 68 1 26 63
M  V30 69 1 26 64
M  V30 70 1 27 65
M  V30 71 1 27 66
M  V30 72 1 28 67
M  V30 73 1 28 68
M  V30 74 1 29 69
M  V30 75 1 32 70
M  V30 76 1 32 71
M  V30 77 1 32 72
M  V30 78 1 36 73
M  V30 79 1 36 74
M  V30 80 1 38 75
M  V30 81 1 39 76
M  V30 82 1 40 77
M  V30 83 1 41 78
M  V30 END BOND
M  V30 END CTAB
M  END
>  <Dataset>  (724) 
ChEMBL_Kinases

>  <Ligand_Instance>  (724) 
nan

>  <PDB_ID>  (724) 
nan

>  <Standardized_SMILES>  (724) 
CC[C@@H]1c2nnc(C)n2-c2cnc(Nc3ccc(C(=O)NC4CCN(C)CC4)cc3OC)nc2N1Cc1ccccn1

>  <Name>  (724) 
nan

>  <Pocket>  (724) 
nan

>  <ATP_Site>  (724) 
nan

>  <Peripheral>  (724) 
nan

>  <Num_H_Atoms_ProtBoundConf>  (724) 
nan

>  <Num_Resolved_Atoms>  (724) 
nan

>  <Num_Not_Resolved_Atoms>  (724) 
nan

$$$$
CHEMBL4168949
     RDKit          3D

  0  0  0  0  0  0  0  0  0  0999 V3000
M  V30 BEGIN CTAB
M  V30 COUNTS 54 57 0 0 0
M  V30 BEGIN ATOM
M  V30 1 C -5.964466 -0.231727 -4.384937 0
M  V30 2 O -4.590092 -0.283147 -4.398377 0
M  V30 3 C -3.958881 0.363828 -3.354783 0
M  V30 4 C -4.360886 -0.228701 -2.052457 0
M  V30 5 N -3.693703 0.432762 -0.921511 0
M  V30 6 C -2.518506 0.084100 -0.381544 0
M  V30 7 C -2.212279 0.946166 0.673627 0
M  V30 8 C -0.993695 0.798171 1.424268 0
M  V30 9 C -0.547860 1.416470 2.547143 0
M  V30 10 C 0.635201 1.199914 3.210179 0
M  V30 11 N 1.457959 0.253177 2.679115 0
M  V30 12 C 1.070676 -0.393776 1.567500 0
M  V30 13 N 1.898300 -1.393426 0.974629 0
M  V30 14 C 2.923974 -1.217805 -0.022663 0
M  V30 15 C 3.043983 0.123059 -0.380596 0
M  V30 16 C 3.978040 0.504865 -1.327774 0
M  V30 17 C 4.766229 -0.480456 -1.887958 0
M  V30 18 O 5.710620 -0.144747 -2.836354 0
M  V30 19 C 6.533982 -1.116011 -3.432492 0
M  V30 20 C 4.643270 -1.803389 -1.530595 0
M  V30 21 C 3.725954 -2.213706 -0.593966 0
M  V30 22 O 3.380002 -3.425225 -0.047744 0
M  V30 23 C 4.017644 -4.608081 -0.431468 0
M  V30 24 F 3.032791 -5.457015 -0.905853 0
M  V30 25 F 4.685516 -5.182930 0.649109 0
M  V30 26 N -0.097964 -0.107936 1.001929 0
M  V30 27 C -3.293183 1.783607 0.671715 0
M  V30 28 C -3.550061 2.841603 1.485484 0
M  V30 29 C -4.687041 3.598953 1.358143 0
M  V30 30 C -5.633208 3.327984 0.395624 0
M  V30 31 C -5.367714 2.253941 -0.427993 0
M  V30 32 C -4.223061 1.495900 -0.295963 0
M  V30 33 H -6.405503 -0.770924 -5.282510 0
M  V30 34 H -6.427861 -0.765159 -3.524144 0
M  V30 35 H -6.302955 0.820304 -4.488235 0
M  V30 36 H -2.860598 0.129385 -3.484107 0
M  V30 37 H -4.104784 1.465078 -3.384314 0
M  V30 38 H -4.141840 -1.306667 -2.042746 0
M  V30 39 H -5.456670 -0.110090 -1.915625 0
M  V30 40 H -1.971083 -0.767100 -0.790701 0
M  V30 41 H -1.158302 2.149341 2.998303 0
M  V30 42 H 0.903994 1.737661 4.092393 0
M  V30 43 H 1.736611 -2.351886 1.304357 0
M  V30 44 H 2.466403 0.932753 0.014014 0
M  V30 45 H 4.135496 1.523720 -1.661815 0
M  V30 46 H 5.992198 -2.006186 -3.791156 0
M  V30 47 H 7.275706 -1.451802 -2.660066 0
M  V30 48 H 7.064628 -0.707640 -4.316380 0
M  V30 49 H 5.218579 -2.627713 -1.920371 0
M  V30 50 H 4.795299 -4.434458 -1.191869 0
M  V30 51 H -2.896617 3.157771 2.261642 0
M  V30 52 H -4.904619 4.455197 2.009927 0
M  V30 53 H -6.533230 3.930994 0.298649 0
M  V30 54 H -6.064901 1.979751 -1.208267 0
M  V30 END ATOM
M  V30 BEGIN BOND
M  V30 1 1 1 2
M  V30 2 1 2 3
M  V30 3 1 3 4
M  V30 4 1 4 5
M  V30 5 1 5 6
M  V30 6 2 6 7
M  V30 7 1 7 8
M  V30 8 2 8 9
M  V30 9 1 9 10
M  V30 10 2 10 11
M  V30 11 1 11 12
M  V30 12 1 12 13
M  V30 13 1 13 14
M  V30 14 2 14 15
M  V30 15 1 15 16
M  V30 16 2 16 17
M  V30 17 1 17 18
M  V30 18 1 18 19
M  V30 19 1 17 20
M  V30 20 2 20 21
M  V30 21 1 21 22
M  V30 22 1 22 23
M  V30 23 1 23 24
M  V30 24 1 23 25
M  V30 25 2 12 26
M  V30 26 1 7 27
M  V30 27 2 27 28
M  V30 28 1 28 29
M  V30 29 2 29 30
M  V30 30 1 30 31
M  V30 31 2 31 32
M  V30 32 1 32 5
M  V30 33 1 26 8
M  V30 34 1 32 27
M  V30 35 1 21 14
M  V30 36 1 1 33
M  V30 37 1 1 34
M  V30 38 1 1 35
M  V30 39 1 3 36
M  V30 40 1 3 37
M  V30 41 1 4 38
M  V30 42 1 4 39
M  V30 43 1 6 40
M  V30 44 1 9 41
M  V30 45 1 10 42
M  V30 46 1 13 43
M  V30 47 1 15 44
M  V30 48 1 16 45
M  V30 49 1 19 46
M  V30 50 1 19 47
M  V30 51 1 19 48
M  V30 52 1 20 49
M  V30 53 1 23 50
M  V30 54 1 28 51
M  V30 55 1 29 52
M  V30 56 1 30 53
M  V30 57 1 31 54
M  V30 END BOND
M  V30 END CTAB
M  END
>  <Dataset>  (725) 
ChEMBL_Kinases

>  <Ligand_Instance>  (725) 
nan

>  <PDB_ID>  (725) 
nan

>  <Standardized_SMILES>  (725) 
COCCn1cc(-c2ccnc(Nc3ccc(OC)cc3OC(F)F)n2)c2ccccc21

>  <Name>  (725) 
nan

>  <Pocket>  (725) 
nan

>  <ATP_Site>  (725) 
nan

>  <Peripheral>  (725) 
nan

>  <Num_H_Atoms_ProtBoundConf>  (725) 
nan

>  <Num_Resolved_Atoms>  (725) 
nan

>  <Num_Not_Resolved_Atoms>  (725) 
nan

$$$$
CHEMBL478656
     RDKit          3D

  0  0  0  0  0  0  0  0  0  0999 V3000
M  V30 BEGIN CTAB
M  V30 COUNTS 61 65 0 0 0
M  V30 BEGIN ATOM
M  V30 1 C -1.563145 -3.069608 4.874712 0
M  V30 2 C -0.635252 -2.045417 4.325925 0
M  V30 3 C -0.163650 -0.998941 5.092112 0
M  V30 4 C 0.697268 -0.044425 4.587940 0
M  V30 5 C 1.079264 -0.172200 3.266704 0
M  V30 6 N 1.967057 0.769093 2.660738 0
M  V30 7 C 1.255041 1.852458 2.066752 0
M  V30 8 O -0.011379 1.744271 2.205788 0
M  V30 9 C 1.909671 2.963780 1.374875 0
M  V30 10 C 3.250388 3.115096 1.206727 0
M  V30 11 C 3.748935 4.217398 0.529292 0
M  V30 12 N 2.919879 5.156141 0.026424 0
M  V30 13 C 1.593380 5.004487 0.193929 0
M  V30 14 N 0.726092 6.000280 -0.340208 0
M  V30 15 C 1.278129 7.146928 -1.046802 0
M  V30 16 C 0.294592 8.176441 -1.593729 0
M  V30 17 C 1.166300 8.491577 -0.416150 0
M  V30 18 C 1.057631 3.927715 0.858557 0
M  V30 19 C 0.607101 -1.212757 2.513895 0
M  V30 20 C -0.262263 -2.185896 3.004631 0
M  V30 21 C -0.691570 -3.245789 2.097151 0
M  V30 22 C -0.765439 -4.606241 2.317636 0
M  V30 23 C -1.206909 -5.431488 1.303311 0
M  V30 24 C -1.589160 -4.985142 0.054375 0
M  V30 25 C -2.040330 -5.948469 -0.943654 0
M  V30 26 O -2.052912 -7.149561 -0.596751 0
M  V30 27 N -2.443349 -5.557422 -2.234646 0
M  V30 28 C -2.885656 -6.550338 -3.197553 0
M  V30 29 C -1.730634 -7.506839 -3.410990 0
M  V30 30 C -0.457929 -6.870885 -3.943813 0
M  V30 31 C -1.244607 -7.798423 -4.780509 0
M  V30 32 C -1.510459 -3.623044 -0.152748 0
M  V30 33 C -1.073640 -2.765248 0.837785 0
M  V30 34 H -2.232898 -3.496446 4.098631 0
M  V30 35 H -0.989908 -3.856870 5.386954 0
M  V30 36 H -2.219993 -2.616839 5.656996 0
M  V30 37 H -0.477439 -0.918675 6.128280 0
M  V30 38 H 1.068180 0.775425 5.184147 0
M  V30 39 H 2.999345 0.752830 2.608738 0
M  V30 40 H 3.885624 2.346985 1.620745 0
M  V30 41 H 4.822814 4.275924 0.431395 0
M  V30 42 H -0.311765 5.934612 -0.240327 0
M  V30 43 H 2.160673 6.901867 -1.659651 0
M  V30 44 H 0.509827 8.670117 -2.566431 0
M  V30 45 H -0.778562 7.972364 -1.337162 0
M  V30 46 H 0.693822 8.523311 0.597831 0
M  V30 47 H 1.931546 9.272051 -0.558884 0
M  V30 48 H -0.022679 3.884669 0.947685 0
M  V30 49 H 0.930429 -1.283874 1.469209 0
M  V30 50 H -0.460232 -4.895837 3.291951 0
M  V30 51 H -1.230213 -6.481299 1.571188 0
M  V30 52 H -2.436910 -4.559274 -2.534606 0
M  V30 53 H -3.756322 -7.133084 -2.802219 0
M  V30 54 H -3.235167 -6.092280 -4.127876 0
M  V30 55 H -1.663249 -8.314355 -2.667278 0
M  V30 56 H -0.478410 -5.791203 -4.212531 0
M  V30 57 H 0.457904 -7.198825 -3.411687 0
M  V30 58 H -1.773671 -7.400842 -5.678272 0
M  V30 59 H -0.791376 -8.794541 -4.949477 0
M  V30 60 H -1.801514 -3.235446 -1.118934 0
M  V30 61 H -1.050116 -1.698611 0.565306 0
M  V30 END ATOM
M  V30 BEGIN BOND
M  V30 1 1 1 2
M  V30 2 2 2 3
M  V30 3 1 3 4
M  V30 4 2 4 5
M  V30 5 1 5 6
M  V30 6 1 6 7
M  V30 7 2 7 8
M  V30 8 1 7 9
M  V30 9 2 9 10
M  V30 10 1 10 11
M  V30 11 2 11 12
M  V30 12 1 12 13
M  V30 13 1 13 14
M  V30 14 1 14 15
M  V30 15 1 15 16
M  V30 16 1 16 17
M  V30 17 2 13 18
M  V30 18 1 5 19
M  V30 19 2 19 20
M  V30 20 1 20 21
M  V30 21 2 21 22
M  V30 22 1 22 23
M  V30 23 2 23 24
M  V30 24 1 24 25
M  V30 25 2 25 26
M  V30 26 1 25 27
M  V30 27 1 27 28
M  V30 28 1 28 29
M  V30 29 1 29 30
M  V30 30 1 30 31
M  V30 31 1 24 32
M  V30 32 2 32 33
M  V30 33 1 20 2
M  V30 34 1 33 21
M  V30 35 1 18 9
M  V30 36 1 31 29
M  V30 37 1 17 15
M  V30 38 1 1 34
M  V30 39 1 1 35
M  V30 40 1 1 36
M  V30 41 1 3 37
M  V30 42 1 4 38
M  V30 43 1 6 39
M  V30 44 1 10 40
M  V30 45 1 11 41
M  V30 46 1 14 42
M  V30 47 1 15 43
M  V30 48 1 16 44
M  V30 49 1 16 45
M  V30 50 1 17 46
M  V30 51 1 17 47
M  V30 52 1 18 48
M  V30 53 1 19 49
M  V30 54 1 22 50
M  V30 55 1 23 51
M  V30 56 1 27 52
M  V30 57 1 28 53
M  V30 58 1 28 54
M  V30 59 1 29 55
M  V30 60 1 30 56
M  V30 61 1 30 57
M  V30 62 1 31 58
M  V30 63 1 31 59
M  V30 64 1 32 60
M  V30 65 1 33 61
M  V30 END BOND
M  V30 END CTAB
M  END
>  <Dataset>  (726) 
ChEMBL_Kinases

>  <Ligand_Instance>  (726) 
nan

>  <PDB_ID>  (726) 
nan

>  <Standardized_SMILES>  (726) 
Cc1ccc(NC(=O)c2ccnc(NC3CC3)c2)cc1-c1ccc(C(=O)NCC2CC2)cc1

>  <Name>  (726) 
nan

>  <Pocket>  (726) 
nan

>  <ATP_Site>  (726) 
nan

>  <Peripheral>  (726) 
nan

>  <Num_H_Atoms_ProtBoundConf>  (726) 
nan

>  <Num_Resolved_Atoms>  (726) 
nan

>  <Num_Not_Resolved_Atoms>  (726) 
nan

$$$$
CHEMBL4168859
     RDKit          3D

  0  0  0  0  0  0  0  0  0  0999 V3000
M  V30 BEGIN CTAB
M  V30 COUNTS 36 39 0 0 0
M  V30 BEGIN ATOM
M  V30 1 O -2.010307 -1.641193 -0.640925 0
M  V30 2 C -2.550217 -0.670294 -0.060003 0
M  V30 3 N -1.754574 0.203725 0.685643 0
M  V30 4 C -0.359318 0.192130 0.919753 0
M  V30 5 C 0.543954 -0.723386 0.439418 0
M  V30 6 C 1.893961 -0.687615 0.698691 0
M  V30 7 C 2.789271 -1.713825 0.140001 0
M  V30 8 C 2.528333 -2.311335 -1.097996 0
M  V30 9 C 3.388584 -3.269024 -1.588878 0
M  V30 10 C 4.506988 -3.656650 -0.887943 0
M  V30 11 C 4.737584 -3.048438 0.331384 0
M  V30 12 C 3.899604 -2.080387 0.864354 0
M  V30 13 C 2.410524 0.310217 1.482871 0
M  V30 14 C 1.527151 1.242770 1.978573 0
M  V30 15 N 1.723197 2.313667 2.757984 0
M  V30 16 N 0.555376 2.934743 2.987433 0
M  V30 17 C -0.425523 2.266337 2.351956 0
M  V30 18 C 0.177426 1.186610 1.705111 0
M  V30 19 C -3.990764 -0.599504 -0.260966 0
M  V30 20 C -4.935402 0.015220 0.692998 0
M  V30 21 C -4.604436 0.784134 -0.579227 0
M  V30 22 H -2.346132 0.956565 1.105983 0
M  V30 23 H 0.209597 -1.520587 -0.173807 0
M  V30 24 H 1.651422 -2.011811 -1.655196 0
M  V30 25 H 3.187323 -3.737846 -2.556229 0
M  V30 26 H 5.140028 -4.403757 -1.315604 0
M  V30 27 H 5.628129 -3.383186 0.849457 0
M  V30 28 H 4.176596 -1.671152 1.827510 0
M  V30 29 H 3.462081 0.397846 1.726292 0
M  V30 30 H 2.663245 2.624243 3.137291 0
M  V30 31 H -1.473801 2.542579 2.362167 0
M  V30 32 H -4.404505 -1.420295 -0.902068 0
M  V30 33 H -5.976336 -0.369817 0.726567 0
M  V30 34 H -4.474769 0.379161 1.639239 0
M  V30 35 H -3.901537 1.618673 -0.509629 0
M  V30 36 H -5.379086 0.824612 -1.387223 0
M  V30 END ATOM
M  V30 BEGIN BOND
M  V30 1 2 1 2
M  V30 2 1 2 3
M  V30 3 1 3 4
M  V30 4 2 4 5
M  V30 5 1 5 6
M  V30 6 1 6 7
M  V30 7 2 7 8
M  V30 8 1 8 9
M  V30 9 2 9 10
M  V30 10 1 10 11
M  V30 11 2 11 12
M  V30 12 2 6 13
M  V30 13 1 13 14
M  V30 14 1 14 15
M  V30 15 1 15 16
M  V30 16 2 16 17
M  V30 17 1 17 18
M  V30 18 1 2 19
M  V30 19 1 19 20
M  V30 20 1 20 21
M  V30 21 1 18 4
M  V30 22 1 21 19
M  V30 23 1 12 7
M  V30 24 2 18 14
M  V30 25 1 3 22
M  V30 26 1 5 23
M  V30 27 1 8 24
M  V30 28 1 9 25
M  V30 29 1 10 26
M  V30 30 1 11 27
M  V30 31 1 12 28
M  V30 32 1 13 29
M  V30 33 1 15 30
M  V30 34 1 17 31
M  V30 35 1 19 32
M  V30 36 1 20 33
M  V30 37 1 20 34
M  V30 38 1 21 35
M  V30 39 1 21 36
M  V30 END BOND
M  V30 END CTAB
M  END
>  <Dataset>  (727) 
ChEMBL_Kinases

>  <Ligand_Instance>  (727) 
nan

>  <PDB_ID>  (727) 
nan

>  <Standardized_SMILES>  (727) 
O=C(Nc1cc(-c2ccccc2)cc2[nH]ncc12)C1CC1

>  <Name>  (727) 
nan

>  <Pocket>  (727) 
nan

>  <ATP_Site>  (727) 
nan

>  <Peripheral>  (727) 
nan

>  <Num_H_Atoms_ProtBoundConf>  (727) 
nan

>  <Num_Resolved_Atoms>  (727) 
nan

>  <Num_Not_Resolved_Atoms>  (727) 
nan

$$$$
CHEMBL4786663
     RDKit          3D

  0  0  0  0  0  0  0  0  0  0999 V3000
M  V30 BEGIN CTAB
M  V30 COUNTS 59 62 0 0 0
M  V30 BEGIN ATOM
M  V30 1 C -0.128140 -2.804238 3.385991 0
M  V30 2 C 0.759701 -3.709285 3.719215 0
M  V30 3 C 2.168492 -3.669123 3.328795 0
M  V30 4 O 2.875117 -4.624066 3.740203 0
M  V30 5 N 2.579783 -2.563790 2.533626 0
M  V30 6 C 3.969164 -2.490791 2.127429 0
M  V30 7 C 4.657732 -1.234653 2.616262 0
M  V30 8 C 3.907951 0.003978 2.171913 0
M  V30 9 N 3.387949 -0.126120 0.830886 0
M  V30 10 C 2.260618 0.621692 0.394316 0
M  V30 11 C 1.711658 1.503950 1.300171 0
M  V30 12 C 0.602514 2.254283 0.905588 0
M  V30 13 C 0.072805 2.111507 -0.362926 0
M  V30 14 C -1.104939 2.870178 -0.865907 0
M  V30 15 C -0.787040 3.648446 -2.099487 0
M  V30 16 C -2.233706 1.900603 -1.095790 0
M  V30 17 O -2.917940 1.559810 -2.101855 0
M  V30 18 N -2.667119 1.174440 0.058029 0
M  V30 19 C -3.745337 0.252160 -0.175243 0
M  V30 20 C -3.607694 -1.075930 -0.537993 0
M  V30 21 C -4.880942 -1.628768 -0.667817 0
M  V30 22 C -5.115443 -3.044339 -1.048583 0
M  V30 23 C -4.114208 -4.067325 -0.608372 0
M  V30 24 C -4.259001 -3.686319 -2.079731 0
M  V30 25 N -5.731194 -0.626258 -0.382091 0
M  V30 26 N -5.087217 0.486648 -0.090216 0
M  V30 27 C 0.637252 1.215478 -1.270381 0
M  V30 28 C 1.749271 0.462719 -0.875876 0
M  V30 29 C 4.164352 -1.074919 0.083692 0
M  V30 30 C 4.118613 -2.484572 0.630372 0
M  V30 31 H -1.177573 -2.633604 3.551964 0
M  V30 32 H -0.696762 -1.963997 3.010804 0
M  V30 33 H 0.309225 -4.486540 4.320094 0
M  V30 34 H 1.901068 -1.827581 2.251455 0
M  V30 35 H 4.496467 -3.358196 2.530959 0
M  V30 36 H 5.691288 -1.269043 2.241844 0
M  V30 37 H 4.701181 -1.295093 3.722991 0
M  V30 38 H 4.550741 0.896404 2.303166 0
M  V30 39 H 3.013664 0.032077 2.862658 0
M  V30 40 H 2.018021 1.708137 2.293765 0
M  V30 41 H 0.110777 2.973401 1.563816 0
M  V30 42 H -1.505998 3.571017 -0.102881 0
M  V30 43 H 0.211466 4.106493 -1.937200 0
M  V30 44 H -1.525296 4.450681 -2.207248 0
M  V30 45 H -0.687316 2.992760 -2.986879 0
M  V30 46 H -2.292358 1.241999 1.027728 0
M  V30 47 H -2.675070 -1.595586 -0.693984 0
M  V30 48 H -6.191725 -3.337178 -1.110285 0
M  V30 49 H -4.495513 -5.067518 -0.306000 0
M  V30 50 H -3.193549 -3.725010 -0.102223 0
M  V30 51 H -4.688656 -4.472517 -2.733022 0
M  V30 52 H -3.396644 -3.161250 -2.521558 0
M  V30 53 H -6.765154 -0.797017 -0.411938 0
M  V30 54 H 0.240719 1.084662 -2.271648 0
M  V30 55 H 2.157677 -0.210968 -1.586985 0
M  V30 56 H 5.240218 -0.737610 0.124568 0
M  V30 57 H 3.842667 -1.170072 -0.973583 0
M  V30 58 H 4.994591 -3.076189 0.361520 0
M  V30 59 H 3.237665 -3.042994 0.223427 0
M  V30 END ATOM
M  V30 BEGIN BOND
M  V30 1 2 1 2
M  V30 2 1 2 3
M  V30 3 2 3 4
M  V30 4 1 3 5
M  V30 5 1 5 6
M  V30 6 1 6 7
M  V30 7 1 7 8
M  V30 8 1 8 9
M  V30 9 1 9 10
M  V30 10 2 10 11
M  V30 11 1 11 12
M  V30 12 2 12 13
M  V30 13 1 13 14
M  V30 14 1 14 15
M  V30 15 1 14 16
M  V30 16 2 16 17
M  V30 17 1 16 18
M  V30 18 1 18 19
M  V30 19 1 19 20
M  V30 20 2 20 21
M  V30 21 1 21 22
M  V30 22 1 22 23
M  V30 23 1 23 24
M  V30 24 1 21 25
M  V30 25 1 25 26
M  V30 26 1 13 27
M  V30 27 2 27 28
M  V30 28 1 9 29
M  V30 29 1 29 30
M  V30 30 1 30 6
M  V30 31 1 28 10
M  V30 32 2 26 19
M  V30 33 1 24 22
M  V30 34 1 1 31
M  V30 35 1 1 32
M  V30 36 1 2 33
M  V30 37 1 5 34
M  V30 38 1 6 35
M  V30 39 1 7 36
M  V30 40 1 7 37
M  V30 41 1 8 38
M  V30 42 1 8 39
M  V30 43 1 11 40
M  V30 44 1 12 41
M  V30 45 1 14 42
M  V30 46 1 15 43
M  V30 47 1 15 44
M  V30 48 1 15 45
M  V30 49 1 18 46
M  V30 50 1 20 47
M  V30 51 1 22 48
M  V30 52 1 23 49
M  V30 53 1 23 50
M  V30 54 1 24 51
M  V30 55 1 24 52
M  V30 56 1 25 53
M  V30 57 1 27 54
M  V30 58 1 28 55
M  V30 59 1 29 56
M  V30 60 1 29 57
M  V30 61 1 30 58
M  V30 62 1 30 59
M  V30 END BOND
M  V30 END CTAB
M  END
>  <Dataset>  (728) 
ChEMBL_Kinases

>  <Ligand_Instance>  (728) 
nan

>  <PDB_ID>  (728) 
nan

>  <Standardized_SMILES>  (728) 
C=CC(=O)NC1CCN(c2ccc(C(C)C(=O)Nc3cc(C4CC4)[nH]n3)cc2)CC1

>  <Name>  (728) 
nan

>  <Pocket>  (728) 
nan

>  <ATP_Site>  (728) 
nan

>  <Peripheral>  (728) 
nan

>  <Num_H_Atoms_ProtBoundConf>  (728) 
nan

>  <Num_Resolved_Atoms>  (728) 
nan

>  <Num_Not_Resolved_Atoms>  (728) 
nan

$$$$
CHEMBL4168817
     RDKit          3D

  0  0  0  0  0  0  0  0  0  0999 V3000
M  V30 BEGIN CTAB
M  V30 COUNTS 55 58 0 0 0
M  V30 BEGIN ATOM
M  V30 1 C 0.344849 0.024368 4.753465 0
M  V30 2 O 1.282304 0.075686 3.702305 0
M  V30 3 C 2.248431 -0.889119 3.516605 0
M  V30 4 O 2.424690 -1.902527 4.224919 0
M  V30 5 C 3.169112 -0.731985 2.384878 0
M  V30 6 C 4.171715 -1.644793 2.103220 0
M  V30 7 C 4.996640 -1.445246 1.022144 0
M  V30 8 C 4.851603 -0.333603 0.187786 0
M  V30 9 C 3.879856 0.589812 0.425677 0
M  V30 10 N 3.654403 1.741839 -0.399412 0
M  V30 11 C 2.649368 2.742649 -0.166519 0
M  V30 12 N 2.664350 4.056886 0.155690 0
M  V30 13 N 1.414529 4.489563 0.266302 0
M  V30 14 C 0.530409 3.494045 0.026470 0
M  V30 15 C -0.844370 3.562491 0.062777 0
M  V30 16 C -1.526597 2.386109 -0.208383 0
M  V30 17 C -0.822788 1.223678 -0.495570 0
M  V30 18 N -1.540827 0.021990 -0.734247 0
M  V30 19 C -2.215933 -0.746963 -1.689984 0
M  V30 20 O -2.336590 -0.365556 -2.870216 0
M  V30 21 C -2.776993 -2.047760 -1.198918 0
M  V30 22 C -3.609688 -1.872128 0.050066 0
M  V30 23 C -4.225284 -3.202805 0.397481 0
M  V30 24 C -3.249245 -4.331077 0.432399 0
M  V30 25 C -2.355785 -4.412335 -0.776752 0
M  V30 26 N -3.052936 -4.862533 -1.949819 0
M  V30 27 C -1.705842 -3.056689 -0.929842 0
M  V30 28 C 0.567326 1.238323 -0.512400 0
M  V30 29 C 1.312381 2.392800 -0.246874 0
M  V30 30 C 3.077833 0.341438 1.526929 0
M  V30 31 H -0.576754 0.572410 4.453189 0
M  V30 32 H 0.095559 -1.035566 4.973345 0
M  V30 33 H 0.778860 0.460344 5.669466 0
M  V30 34 H 4.282239 -2.512706 2.751537 0
M  V30 35 H 5.789010 -2.137132 0.769827 0
M  V30 36 H 5.505950 -0.193714 -0.651209 0
M  V30 37 H 4.235497 1.903117 -1.229065 0
M  V30 38 H 1.243880 5.486220 0.510625 0
M  V30 39 H -1.343597 4.505613 0.292767 0
M  V30 40 H -2.602407 2.403807 -0.187638 0
M  V30 41 H -1.457891 -0.320074 0.268292 0
M  V30 42 H -3.483673 -2.361365 -1.996754 0
M  V30 43 H -2.983884 -1.485315 0.895119 0
M  V30 44 H -4.428086 -1.152963 -0.167828 0
M  V30 45 H -5.003146 -3.414451 -0.351673 0
M  V30 46 H -4.654522 -3.118244 1.422338 0
M  V30 47 H -2.572383 -4.202579 1.312593 0
M  V30 48 H -3.815799 -5.279662 0.522822 0
M  V30 49 H -1.563840 -5.155002 -0.550392 0
M  V30 50 H -2.713320 -5.773719 -2.324839 0
M  V30 51 H -3.048846 -4.196106 -2.747566 0
M  V30 52 H -0.896491 -3.042114 -1.678676 0
M  V30 53 H -1.249532 -2.816758 0.055079 0
M  V30 54 H 1.135245 0.344874 -0.732802 0
M  V30 55 H 2.296094 1.043595 1.768513 0
M  V30 END ATOM
M  V30 BEGIN BOND
M  V30 1 1 1 2
M  V30 2 1 2 3
M  V30 3 2 3 4
M  V30 4 1 3 5
M  V30 5 2 5 6
M  V30 6 1 6 7
M  V30 7 2 7 8
M  V30 8 1 8 9
M  V30 9 1 9 10
M  V30 10 1 10 11
M  V30 11 2 11 12
M  V30 12 1 12 13
M  V30 13 1 13 14
M  V30 14 2 14 15
M  V30 15 1 15 16
M  V30 16 2 16 17
M  V30 17 1 17 18
M  V30 18 1 18 19
M  V30 19 2 19 20
M  V30 20 1 19 21
M  V30 21 1 21 22
M  V30 22 1 22 23
M  V30 23 1 23 24
M  V30 24 1 24 25
M  V30 25 1 25 26
M  V30 26 1 25 27
M  V30 27 1 17 28
M  V30 28 2 28 29
M  V30 29 2 9 30
M  V30 30 1 30 5
M  V30 31 1 29 11
M  V30 32 1 29 14
M  V30 33 1 27 21
M  V30 34 1 1 31
M  V30 35 1 1 32
M  V30 36 1 1 33
M  V30 37 1 6 34
M  V30 38 1 7 35
M  V30 39 1 8 36
M  V30 40 1 10 37
M  V30 41 1 13 38
M  V30 42 1 15 39
M  V30 43 1 16 40
M  V30 44 1 18 41
M  V30 45 1 21 42
M  V30 46 1 22 43
M  V30 47 1 22 44
M  V30 48 1 23 45
M  V30 49 1 23 46
M  V30 50 1 24 47
M  V30 51 1 24 48
M  V30 52 1 25 49
M  V30 53 1 26 50
M  V30 54 1 26 51
M  V30 55 1 27 52
M  V30 56 1 27 53
M  V30 57 1 28 54
M  V30 58 1 30 55
M  V30 END BOND
M  V30 END CTAB
M  END
>  <Dataset>  (729) 
ChEMBL_Kinases

>  <Ligand_Instance>  (729) 
nan

>  <PDB_ID>  (729) 
nan

>  <Standardized_SMILES>  (729) 
COC(=O)c1cccc(Nc2n[nH]c3ccc(NC(=O)C4CCCC(N)C4)cc23)c1

>  <Name>  (729) 
nan

>  <Pocket>  (729) 
nan

>  <ATP_Site>  (729) 
nan

>  <Peripheral>  (729) 
nan

>  <Num_H_Atoms_ProtBoundConf>  (729) 
nan

>  <Num_Resolved_Atoms>  (729) 
nan

>  <Num_Not_Resolved_Atoms>  (729) 
nan

$$$$
CHEMBL4175978
     RDKit          3D

  0  0  0  0  0  0  0  0  0  0999 V3000
M  V30 BEGIN CTAB
M  V30 COUNTS 38 41 0 0 0
M  V30 BEGIN ATOM
M  V30 1 F 0.207453 -3.200691 6.520551 0
M  V30 2 C 0.039880 -3.241506 5.171583 0
M  V30 3 C -0.401115 -4.392994 4.531243 0
M  V30 4 C -0.573585 -4.449389 3.180765 0
M  V30 5 C -0.306636 -3.330430 2.396331 0
M  V30 6 N -0.475880 -3.281044 0.984019 0
M  V30 7 C -0.029115 -2.162628 0.248135 0
M  V30 8 N -0.489105 -0.890118 0.183044 0
M  V30 9 C 0.116159 0.016295 -0.624553 0
M  V30 10 N -0.297307 1.369016 -0.725966 0
M  V30 11 C 0.780488 2.275347 -0.373145 0
M  V30 12 C 0.241803 2.992035 0.866260 0
M  V30 13 O -0.651103 3.907096 0.358638 0
M  V30 14 C -1.694971 3.356815 -0.314692 0
M  V30 15 C -1.484888 2.108321 -1.073137 0
M  V30 16 C 1.205578 -0.326792 -1.396201 0
M  V30 17 N 1.965927 0.365171 -2.263446 0
M  V30 18 C 2.919751 -0.474755 -2.754741 0
M  V30 19 N 2.734433 -1.670802 -2.185842 0
M  V30 20 C 1.675514 -1.633553 -1.327083 0
M  V30 21 N 1.047627 -2.492079 -0.516567 0
M  V30 22 C 0.133214 -2.192923 3.067847 0
M  V30 23 C 0.321590 -2.091835 4.433773 0
M  V30 24 H -0.626887 -5.305169 5.106599 0
M  V30 25 H -0.913312 -5.324101 2.634342 0
M  V30 26 H -0.925540 -4.078755 0.509558 0
M  V30 27 H 1.748043 1.802235 -0.178533 0
M  V30 28 H 0.851309 3.019868 -1.219193 0
M  V30 29 H 1.055766 3.444338 1.453302 0
M  V30 30 H -0.346198 2.274195 1.505562 0
M  V30 31 H -2.060172 4.154804 -1.026940 0
M  V30 32 H -2.529666 3.258405 0.431785 0
M  V30 33 H -2.363599 1.444283 -0.980115 0
M  V30 34 H -1.390091 2.334047 -2.177267 0
M  V30 35 H 3.732509 -0.362435 -3.462062 0
M  V30 36 H 3.230218 -2.597016 -2.270493 0
M  V30 37 H 0.354049 -1.291423 2.494053 0
M  V30 38 H 0.672577 -1.152963 4.874765 0
M  V30 END ATOM
M  V30 BEGIN BOND
M  V30 1 1 1 2
M  V30 2 2 2 3
M  V30 3 1 3 4
M  V30 4 2 4 5
M  V30 5 1 5 6
M  V30 6 1 6 7
M  V30 7 2 7 8
M  V30 8 1 8 9
M  V30 9 1 9 10
M  V30 10 1 10 11
M  V30 11 1 11 12
M  V30 12 1 12 13
M  V30 13 1 13 14
M  V30 14 1 14 15
M  V30 15 2 9 16
M  V30 16 1 16 17
M  V30 17 2 17 18
M  V30 18 1 18 19
M  V30 19 1 19 20
M  V30 20 2 20 21
M  V30 21 1 5 22
M  V30 22 2 22 23
M  V30 23 1 23 2
M  V30 24 1 21 7
M  V30 25 1 15 10
M  V30 26 1 20 16
M  V30 27 1 3 24
M  V30 28 1 4 25
M  V30 29 1 6 26
M  V30 30 1 11 27
M  V30 31 1 11 28
M  V30 32 1 12 29
M  V30 33 1 12 30
M  V30 34 1 14 31
M  V30 35 1 14 32
M  V30 36 1 15 33
M  V30 37 1 15 34
M  V30 38 1 18 35
M  V30 39 1 19 36
M  V30 40 1 22 37
M  V30 41 1 23 38
M  V30 END BOND
M  V30 END CTAB
M  END
>  <Dataset>  (730) 
ChEMBL_Kinases

>  <Ligand_Instance>  (730) 
nan

>  <PDB_ID>  (730) 
nan

>  <Standardized_SMILES>  (730) 
Fc1ccc(Nc2nc(N3CCOCC3)c3nc[nH]c3n2)cc1

>  <Name>  (730) 
nan

>  <Pocket>  (730) 
nan

>  <ATP_Site>  (730) 
nan

>  <Peripheral>  (730) 
nan

>  <Num_H_Atoms_ProtBoundConf>  (730) 
nan

>  <Num_Resolved_Atoms>  (730) 
nan

>  <Num_Not_Resolved_Atoms>  (730) 
nan

$$$$
CHEMBL4168756
     RDKit          3D

  0  0  0  0  0  0  0  0  0  0999 V3000
M  V30 BEGIN CTAB
M  V30 COUNTS 60 64 0 0 0
M  V30 BEGIN ATOM
M  V30 1 C 3.473147 -1.034015 8.232129 0
M  V30 2 C 3.004624 -0.419883 6.953088 0
M  V30 3 O 2.029553 0.404845 6.916741 0
M  V30 4 N 3.655666 -0.752694 5.716277 0
M  V30 5 N 3.208184 -0.167221 4.503779 0
M  V30 6 C 3.419897 1.056735 4.217380 0
M  V30 7 C 2.968645 1.692027 2.968529 0
M  V30 8 C 3.188423 3.016824 2.627507 0
M  V30 9 C 3.881721 4.075667 3.362518 0
M  V30 10 N 2.609425 3.155051 1.421065 0
M  V30 11 N 2.073808 2.003661 1.047211 0
M  V30 12 C 1.395961 1.863805 -0.191480 0
M  V30 13 C 1.913468 1.449898 -1.387821 0
M  V30 14 C 1.142224 1.360894 -2.527790 0
M  V30 15 C -0.192646 1.681115 -2.537358 0
M  V30 16 C -0.749334 2.103398 -1.345724 0
M  V30 17 C 0.035057 2.185386 -0.221012 0
M  V30 18 C 2.254487 1.045093 1.955015 0
M  V30 19 O 1.899882 -0.264469 2.025071 0
M  V30 20 C 1.194426 -0.937375 1.049587 0
M  V30 21 C -0.179384 -0.833894 1.297763 0
M  V30 22 C -1.106972 -1.436391 0.444854 0
M  V30 23 C -0.671377 -2.145988 -0.660919 0
M  V30 24 C -1.618688 -2.788449 -1.572538 0
M  V30 25 N -2.947124 -2.749262 -1.427523 0
M  V30 26 C -3.555909 -3.428158 -2.416014 0
M  V30 27 C -4.906350 -3.616749 -2.614593 0
M  V30 28 C -5.262231 -4.360531 -3.717908 0
M  V30 29 C -6.644329 -4.685083 -4.119589 0
M  V30 30 N -7.628694 -4.155702 -3.249222 0
M  V30 31 O -7.088252 -5.344344 -5.092710 0
M  V30 32 C -4.294808 -4.872388 -4.555255 0
M  V30 33 C -2.931094 -4.666470 -4.331160 0
M  V30 34 C -2.562152 -3.924413 -3.231258 0
M  V30 35 N -1.393849 -3.522062 -2.697549 0
M  V30 36 C 0.679915 -2.234134 -0.884331 0
M  V30 37 C 1.618517 -1.649659 -0.059641 0
M  V30 38 H 2.589291 -1.077133 8.904755 0
M  V30 39 H 3.842160 -2.051247 8.095468 0
M  V30 40 H 4.254643 -0.427083 8.721195 0
M  V30 41 H 4.467582 -1.438091 5.735334 0
M  V30 42 H 3.962893 1.637972 4.948104 0
M  V30 43 H 3.150775 4.907388 3.545156 0
M  V30 44 H 4.287158 3.749920 4.319164 0
M  V30 45 H 4.706025 4.526997 2.738887 0
M  V30 46 H 2.982342 1.196226 -1.370248 0
M  V30 47 H 1.629103 1.025029 -3.430872 0
M  V30 48 H -0.794806 1.612544 -3.423885 0
M  V30 49 H -1.809739 2.379946 -1.261955 0
M  V30 50 H -0.442095 2.524746 0.707804 0
M  V30 51 H -0.664203 -0.313101 2.120532 0
M  V30 52 H -2.176563 -1.384127 0.595087 0
M  V30 53 H -5.701283 -3.243734 -1.998976 0
M  V30 54 H -8.354557 -3.763876 -2.630570 0
M  V30 55 H -8.466188 -3.636137 -3.605546 0
M  V30 56 H -4.589112 -5.451902 -5.413830 0
M  V30 57 H -2.146157 -5.057202 -4.973010 0
M  V30 58 H -0.459865 -3.731444 -3.075111 0
M  V30 59 H 1.094532 -2.779467 -1.739257 0
M  V30 60 H 2.680905 -1.656253 -0.140476 0
M  V30 END ATOM
M  V30 BEGIN BOND
M  V30 1 1 1 2
M  V30 2 2 2 3
M  V30 3 1 2 4
M  V30 4 1 4 5
M  V30 5 2 5 6
M  V30 6 1 6 7
M  V30 7 1 7 8
M  V30 8 1 8 9
M  V30 9 2 8 10
M  V30 10 1 10 11
M  V30 11 1 11 12
M  V30 12 2 12 13
M  V30 13 1 13 14
M  V30 14 2 14 15
M  V30 15 1 15 16
M  V30 16 2 16 17
M  V30 17 1 11 18
M  V30 18 1 18 19
M  V30 19 1 19 20
M  V30 20 2 20 21
M  V30 21 1 21 22
M  V30 22 2 22 23
M  V30 23 1 23 24
M  V30 24 2 24 25
M  V30 25 1 25 26
M  V30 26 2 26 27
M  V30 27 1 27 28
M  V30 28 1 28 29
M  V30 29 1 29 30
M  V30 30 2 29 31
M  V30 31 2 28 32
M  V30 32 1 32 33
M  V30 33 2 33 34
M  V30 34 1 34 35
M  V30 35 1 23 36
M  V30 36 2 36 37
M  V30 37 2 18 7
M  V30 38 1 37 20
M  V30 39 1 17 12
M  V30 40 1 35 24
M  V30 41 1 34 26
M  V30 42 1 1 38
M  V30 43 1 1 39
M  V30 44 1 1 40
M  V30 45 1 4 41
M  V30 46 1 6 42
M  V30 47 1 9 43
M  V30 48 1 9 44
M  V30 49 1 9 45
M  V30 50 1 13 46
M  V30 51 1 14 47
M  V30 52 1 15 48
M  V30 53 1 16 49
M  V30 54 1 17 50
M  V30 55 1 21 51
M  V30 56 1 22 52
M  V30 57 1 27 53
M  V30 58 1 30 54
M  V30 59 1 30 55
M  V30 60 1 32 56
M  V30 61 1 33 57
M  V30 62 1 35 58
M  V30 63 1 36 59
M  V30 64 1 37 60
M  V30 END BOND
M  V30 END CTAB
M  END
>  <Dataset>  (731) 
ChEMBL_Kinases

>  <Ligand_Instance>  (731) 
nan

>  <PDB_ID>  (731) 
nan

>  <Standardized_SMILES>  (731) 
CC(=O)N/N=C/c1c(C)nn(-c2ccccc2)c1Oc1ccc(-c2nc3cc(C(N)=O)ccc3[nH]2)cc1

>  <Name>  (731) 
nan

>  <Pocket>  (731) 
nan

>  <ATP_Site>  (731) 
nan

>  <Peripheral>  (731) 
nan

>  <Num_H_Atoms_ProtBoundConf>  (731) 
nan

>  <Num_Resolved_Atoms>  (731) 
nan

>  <Num_Not_Resolved_Atoms>  (731) 
nan

$$$$
CHEMBL4168692
     RDKit          3D

  0  0  0  0  0  0  0  0  0  0999 V3000
M  V30 BEGIN CTAB
M  V30 COUNTS 54 58 0 0 0
M  V30 BEGIN ATOM
M  V30 1 C 7.328573 -3.296903 1.398776 0
M  V30 2 O 6.559864 -3.040218 0.261781 0
M  V30 3 C 5.730444 -1.963296 0.129448 0
M  V30 4 C 5.564180 -1.012890 1.103680 0
M  V30 5 C 4.715208 0.052563 0.922834 0
M  V30 6 C 3.964181 0.256561 -0.241751 0
M  V30 7 C 3.144065 1.440376 -0.283368 0
M  V30 8 N 3.385193 2.424727 0.592687 0
M  V30 9 C 2.673690 3.555494 0.709548 0
M  V30 10 S 2.952676 4.755564 1.759516 0
M  V30 11 N 1.602699 3.764941 -0.114837 0
M  V30 12 C 1.269556 2.847353 -1.029190 0
M  V30 13 N 0.138015 2.957868 -1.907147 0
M  V30 14 C -0.791795 2.059321 -1.261341 0
M  V30 15 C -0.877291 1.790860 0.119388 0
M  V30 16 C -1.775695 0.865998 0.677661 0
M  V30 17 C -2.616790 0.188217 -0.192321 0
M  V30 18 C -3.510589 -0.752866 0.468803 0
M  V30 19 N -4.353820 -1.586500 -0.131509 0
M  V30 20 C -5.039056 -2.352903 0.736806 0
M  V30 21 C -5.999379 -3.345313 0.736007 0
M  V30 22 C -6.443160 -3.879565 1.924329 0
M  V30 23 C -7.461537 -4.919999 1.956372 0
M  V30 24 O -8.063710 -5.450374 0.955460 0
M  V30 25 O -7.981339 -5.542876 3.068109 0
M  V30 26 C -5.987897 -3.488465 3.162025 0
M  V30 27 C -5.019130 -2.487978 3.150967 0
M  V30 28 C -4.551191 -1.929370 1.984187 0
M  V30 29 N -3.630373 -0.962831 1.785410 0
M  V30 30 C -2.544759 0.440831 -1.531428 0
M  V30 31 C -1.659612 1.350821 -2.065899 0
M  V30 32 C 2.065745 1.707992 -1.074697 0
M  V30 33 C 1.648079 0.719872 -2.032071 0
M  V30 34 N 1.291008 -0.076024 -2.799962 0
M  V30 35 C 4.186131 -0.727276 -1.158782 0
M  V30 36 C 5.023322 -1.810224 -1.022114 0
M  V30 37 H 6.746604 -3.134782 2.328600 0
M  V30 38 H 7.689565 -4.351511 1.424995 0
M  V30 39 H 8.265369 -2.690393 1.470957 0
M  V30 40 H 6.158620 -1.198058 2.002393 0
M  V30 41 H 4.727433 0.674689 1.820969 0
M  V30 42 H 4.157111 2.467826 1.309584 0
M  V30 43 H -0.198716 3.413021 -2.754827 0
M  V30 44 H -0.185642 2.359807 0.741506 0
M  V30 45 H -1.711970 0.779983 1.753869 0
M  V30 46 H -6.369537 -3.667553 -0.223284 0
M  V30 47 H -8.225106 -6.512468 3.172461 0
M  V30 48 H -6.289182 -3.855345 4.120930 0
M  V30 49 H -4.621243 -2.140907 4.113771 0
M  V30 50 H -3.115935 -0.479905 2.567395 0
M  V30 51 H -3.217407 -0.108824 -2.172479 0
M  V30 52 H -1.638691 1.516884 -3.113441 0
M  V30 53 H 3.675529 -0.629894 -2.090742 0
M  V30 54 H 5.108653 -2.519509 -1.821338 0
M  V30 END ATOM
M  V30 BEGIN BOND
M  V30 1 1 1 2
M  V30 2 1 2 3
M  V30 3 2 3 4
M  V30 4 1 4 5
M  V30 5 2 5 6
M  V30 6 1 6 7
M  V30 7 1 7 8
M  V30 8 1 8 9
M  V30 9 2 9 10
M  V30 10 1 9 11
M  V30 11 2 11 12
M  V30 12 1 12 13
M  V30 13 1 13 14
M  V30 14 2 14 15
M  V30 15 1 15 16
M  V30 16 2 16 17
M  V30 17 1 17 18
M  V30 18 2 18 19
M  V30 19 1 19 20
M  V30 20 2 20 21
M  V30 21 1 21 22
M  V30 22 1 22 23
M  V30 23 2 23 24
M  V30 24 1 23 25
M  V30 25 2 22 26
M  V30 26 1 26 27
M  V30 27 2 27 28
M  V30 28 1 28 29
M  V30 29 1 17 30
M  V30 30 2 30 31
M  V30 31 1 12 32
M  V30 32 1 32 33
M  V30 33 3 33 34
M  V30 34 1 6 35
M  V30 35 2 35 36
M  V30 36 1 36 3
M  V30 37 2 32 7
M  V30 38 1 31 14
M  V30 39 1 29 18
M  V30 40 1 28 20
M  V30 41 1 1 37
M  V30 42 1 1 38
M  V30 43 1 1 39
M  V30 44 1 4 40
M  V30 45 1 5 41
M  V30 46 1 8 42
M  V30 47 1 13 43
M  V30 48 1 15 44
M  V30 49 1 16 45
M  V30 50 1 21 46
M  V30 51 1 25 47
M  V30 52 1 26 48
M  V30 53 1 27 49
M  V30 54 1 29 50
M  V30 55 1 30 51
M  V30 56 1 31 52
M  V30 57 1 35 53
M  V30 58 1 36 54
M  V30 END BOND
M  V30 END CTAB
M  END
>  <Dataset>  (732) 
ChEMBL_Kinases

>  <Ligand_Instance>  (732) 
nan

>  <PDB_ID>  (732) 
nan

>  <Standardized_SMILES>  (732) 
COc1ccc(-c2[nH]c(=S)nc(Nc3ccc(-c4nc5cc(C(=O)O)ccc5[nH]4)cc3)c2C#N)cc1

>  <Name>  (732) 
nan

>  <Pocket>  (732) 
nan

>  <ATP_Site>  (732) 
nan

>  <Peripheral>  (732) 
nan

>  <Num_H_Atoms_ProtBoundConf>  (732) 
nan

>  <Num_Resolved_Atoms>  (732) 
nan

>  <Num_Not_Resolved_Atoms>  (732) 
nan

$$$$
CHEMBL4168671
     RDKit          3D

  0  0  0  0  0  0  0  0  0  0999 V3000
M  V30 BEGIN CTAB
M  V30 COUNTS 63 66 0 0 0
M  V30 BEGIN ATOM
M  V30 1 C 8.393754 0.884288 5.706851 0
M  V30 2 C 8.550226 0.532250 4.443984 0
M  V30 3 C 7.630355 0.923973 3.376242 0
M  V30 4 O 7.843254 0.554024 2.219670 0
M  V30 5 N 6.513568 1.738161 3.778521 0
M  V30 6 C 5.502852 2.223204 2.865563 0
M  V30 7 C 4.428995 1.369244 2.705219 0
M  V30 8 C 3.413411 1.751417 1.856255 0
M  V30 9 C 3.410591 2.939088 1.160334 0
M  V30 10 C 2.443789 3.522621 0.248906 0
M  V30 11 O 2.638320 4.409546 -0.584557 0
M  V30 12 C 1.018238 3.075067 0.233879 0
M  V30 13 S 0.173277 1.820798 1.197822 0
M  V30 14 C -1.503029 2.143497 0.362661 0
M  V30 15 N -2.342321 1.140938 1.079561 0
M  V30 16 C -2.753511 -0.082653 0.448018 0
M  V30 17 C -4.135467 -0.239599 0.408992 0
M  V30 18 C -4.644216 -1.388842 -0.195614 0
M  V30 19 C -3.862290 -2.383756 -0.760335 0
M  V30 20 N -4.441673 -3.535721 -1.360740 0
M  V30 21 C -5.871345 -3.707315 -1.341192 0
M  V30 22 C -6.352772 -4.716470 -2.349396 0
M  V30 23 N -5.636604 -5.937730 -2.212624 0
M  V30 24 C -6.245352 -6.756441 -1.192037 0
M  V30 25 C -4.218385 -5.866018 -2.167223 0
M  V30 26 C -3.607223 -4.525288 -1.987759 0
M  V30 27 C -2.528254 -2.135189 -0.670470 0
M  V30 28 C -1.935763 -1.035667 -0.095563 0
M  V30 29 O -0.579703 -0.817461 -0.024561 0
M  V30 30 C 0.250347 -1.818312 -0.595009 0
M  V30 31 N -1.180161 2.961947 -0.338218 0
M  V30 32 C -0.014540 3.537454 -0.539619 0
M  V30 33 N 0.088164 4.580546 -1.535408 0
M  V30 34 C 4.512174 3.768074 1.351984 0
M  V30 35 C 5.569227 3.450863 2.186757 0
M  V30 36 H 7.627188 1.479323 6.176588 0
M  V30 37 H 9.079831 0.589702 6.484632 0
M  V30 38 H 9.411426 -0.078586 4.215528 0
M  V30 39 H 6.290156 2.072328 4.743649 0
M  V30 40 H 4.309217 0.410069 3.192995 0
M  V30 41 H 2.539829 1.144940 1.668736 0
M  V30 42 H -2.664694 1.282167 2.060448 0
M  V30 43 H -4.825096 0.493760 0.829811 0
M  V30 44 H -5.738675 -1.464189 -0.195374 0
M  V30 45 H -6.438243 -2.762503 -1.575741 0
M  V30 46 H -6.244994 -4.040959 -0.348107 0
M  V30 47 H -6.399892 -4.314347 -3.382593 0
M  V30 48 H -7.418594 -4.944801 -2.043539 0
M  V30 49 H -7.075485 -7.339577 -1.656925 0
M  V30 50 H -5.468994 -7.422696 -0.751148 0
M  V30 51 H -6.694462 -6.168584 -0.384180 0
M  V30 52 H -3.849959 -6.585640 -1.393504 0
M  V30 53 H -3.848385 -6.304533 -3.142835 0
M  V30 54 H -2.702685 -4.664796 -1.325522 0
M  V30 55 H -3.175538 -4.140951 -2.952353 0
M  V30 56 H -1.825535 -2.852243 -1.081588 0
M  V30 57 H 0.017195 -1.947219 -1.691787 0
M  V30 58 H 1.320995 -1.504877 -0.539966 0
M  V30 59 H 0.185614 -2.787836 -0.076336 0
M  V30 60 H -0.310189 5.538920 -1.385518 0
M  V30 61 H 0.597186 4.202364 -2.355289 0
M  V30 62 H 4.675231 4.740862 0.882480 0
M  V30 63 H 6.444154 4.056790 2.366838 0
M  V30 END ATOM
M  V30 BEGIN BOND
M  V30 1 2 1 2
M  V30 2 1 2 3
M  V30 3 2 3 4
M  V30 4 1 3 5
M  V30 5 1 5 6
M  V30 6 2 6 7
M  V30 7 1 7 8
M  V30 8 2 8 9
M  V30 9 1 9 10
M  V30 10 2 10 11
M  V30 11 1 10 12
M  V30 12 1 12 13
M  V30 13 1 13 14
M  V30 14 1 14 15
M  V30 15 1 15 16
M  V30 16 2 16 17
M  V30 17 1 17 18
M  V30 18 2 18 19
M  V30 19 1 19 20
M  V30 20 1 20 21
M  V30 21 1 21 22
M  V30 22 1 22 23
M  V30 23 1 23 24
M  V30 24 1 23 25
M  V30 25 1 25 26
M  V30 26 1 19 27
M  V30 27 2 27 28
M  V30 28 1 28 29
M  V30 29 1 29 30
M  V30 30 2 14 31
M  V30 31 1 31 32
M  V30 32 1 32 33
M  V30 33 1 9 34
M  V30 34 2 34 35
M  V30 35 1 35 6
M  V30 36 2 32 12
M  V30 37 1 28 16
M  V30 38 1 26 20
M  V30 39 1 1 36
M  V30 40 1 1 37
M  V30 41 1 2 38
M  V30 42 1 5 39
M  V30 43 1 7 40
M  V30 44 1 8 41
M  V30 45 1 15 42
M  V30 46 1 17 43
M  V30 47 1 18 44
M  V30 48 1 21 45
M  V30 49 1 21 46
M  V30 50 1 22 47
M  V30 51 1 22 48
M  V30 52 1 24 49
M  V30 53 1 24 50
M  V30 54 1 24 51
M  V30 55 1 25 52
M  V30 56 1 25 53
M  V30 57 1 26 54
M  V30 58 1 26 55
M  V30 59 1 27 56
M  V30 60 1 30 57
M  V30 61 1 30 58
M  V30 62 1 30 59
M  V30 63 1 33 60
M  V30 64 1 33 61
M  V30 65 1 34 62
M  V30 66 1 35 63
M  V30 END BOND
M  V30 END CTAB
M  END
>  <Dataset>  (733) 
ChEMBL_Kinases

>  <Ligand_Instance>  (733) 
nan

>  <PDB_ID>  (733) 
nan

>  <Standardized_SMILES>  (733) 
C=CC(=O)Nc1ccc(C(=O)c2sc(Nc3ccc(N4CCN(C)CC4)cc3OC)nc2N)cc1

>  <Name>  (733) 
nan

>  <Pocket>  (733) 
nan

>  <ATP_Site>  (733) 
nan

>  <Peripheral>  (733) 
nan

>  <Num_H_Atoms_ProtBoundConf>  (733) 
nan

>  <Num_Resolved_Atoms>  (733) 
nan

>  <Num_Not_Resolved_Atoms>  (733) 
nan

$$$$
CHEMBL4168375
     RDKit          3D

  0  0  0  0  0  0  0  0  0  0999 V3000
M  V30 BEGIN CTAB
M  V30 COUNTS 62 67 0 0 0
M  V30 BEGIN ATOM
M  V30 1 C 2.146818 2.317127 0.332956 0
M  V30 2 C 1.424128 1.793353 1.576401 0 CFG=2
M  V30 3 C 0.619887 2.889351 2.195726 0
M  V30 4 C 1.518714 3.802895 2.999715 0
M  V30 5 C 2.034461 3.107866 4.243300 0 CFG=2
M  V30 6 O 2.740277 3.990528 5.056548 0
M  V30 7 C 2.964584 2.023152 3.801716 0
M  V30 8 C 2.461643 1.347094 2.548309 0
M  V30 9 C 3.035020 0.180721 2.279169 0
M  V30 10 C 2.735355 -0.696326 1.116793 0
M  V30 11 C 1.456980 -0.347339 0.405383 0 CFG=2
M  V30 12 C 0.597232 0.607858 1.220032 0 CFG=2
M  V30 13 C -0.590286 0.922458 0.372464 0
M  V30 14 C -1.407109 -0.335358 0.105977 0
M  V30 15 C -0.601334 -1.299152 -0.660129 0 CFG=2
M  V30 16 C -0.167427 -0.816188 -2.024230 0
M  V30 17 C -1.101204 -2.656774 -0.838173 0
M  V30 18 C -2.368621 -3.296778 -1.166602 0
M  V30 19 C -3.498255 -2.572969 -1.472543 0
M  V30 20 C -4.717567 -3.123605 -1.774792 0
M  V30 21 C -4.880721 -4.487770 -1.788574 0
M  V30 22 C -6.064126 -5.125249 -2.079873 0
M  V30 23 N -6.161405 -6.486696 -2.076969 0
M  V30 24 N -5.073932 -7.193110 -1.782736 0
M  V30 25 C -3.882884 -6.636402 -1.487766 0
M  V30 26 C -3.781657 -5.262328 -1.489907 0
M  V30 27 C -2.581036 -4.656776 -1.193397 0
M  V30 28 C -0.063762 -3.494456 -0.631643 0
M  V30 29 C 1.174000 -2.755052 -0.309840 0
M  V30 30 C 0.602264 -1.534304 0.247398 0 CFG=1
M  V30 31 H 1.521588 2.239245 -0.575790 0
M  V30 32 H 3.105704 1.788636 0.163778 0
M  V30 33 H 2.369014 3.414519 0.461103 0
M  V30 34 H -0.102065 2.438371 2.910759 0
M  V30 35 H 0.109814 3.550962 1.454702 0
M  V30 36 H 2.386325 4.150135 2.407072 0
M  V30 37 H 0.976171 4.704467 3.346205 0
M  V30 38 H 1.208403 2.645789 4.801097 0
M  V30 39 H 3.667453 4.133624 4.732762 0
M  V30 40 H 2.947296 1.221586 4.578214 0
M  V30 41 H 4.014739 2.354781 3.672401 0
M  V30 42 H 3.816267 -0.240871 2.934663 0
M  V30 43 H 3.619979 -0.597729 0.443590 0
M  V30 44 H 2.713409 -1.744446 1.433288 0
M  V30 45 H 1.739367 0.208884 -0.494058 0
M  V30 46 H 0.274902 0.058113 2.113196 0
M  V30 47 H -1.219054 1.676591 0.919091 0
M  V30 48 H -0.321981 1.353198 -0.612318 0
M  V30 49 H -1.576995 -0.783758 1.118343 0
M  V30 50 H -2.366204 -0.009576 -0.254403 0
M  V30 51 H -1.038185 -0.681182 -2.699187 0
M  V30 52 H 0.415172 0.104805 -2.026496 0
M  V30 53 H 0.448643 -1.576338 -2.548215 0
M  V30 54 H -3.524482 -1.520152 -1.511656 0
M  V30 55 H -5.599085 -2.564747 -2.013055 0
M  V30 56 H -6.921145 -4.489287 -2.313365 0
M  V30 57 H -3.050152 -7.297190 -1.259905 0
M  V30 58 H -1.767689 -5.326703 -0.969779 0
M  V30 59 H 0.065053 -4.587289 -0.651058 0
M  V30 60 H 1.838730 -3.265463 0.414469 0
M  V30 61 H 1.713960 -2.614351 -1.268040 0
M  V30 62 H 0.163829 -1.772635 1.251587 0
M  V30 END ATOM
M  V30 BEGIN BOND
M  V30 1 1 2 1 CFG=3
M  V30 2 1 2 3
M  V30 3 1 3 4
M  V30 4 1 4 5
M  V30 5 1 5 6
M  V30 6 1 5 7
M  V30 7 1 7 8
M  V30 8 2 8 9
M  V30 9 1 9 10
M  V30 10 1 10 11
M  V30 11 1 11 12
M  V30 12 1 12 13
M  V30 13 1 13 14
M  V30 14 1 14 15
M  V30 15 1 15 16 CFG=3
M  V30 16 1 15 17
M  V30 17 1 17 18
M  V30 18 2 18 19
M  V30 19 1 19 20
M  V30 20 2 20 21
M  V30 21 1 21 22
M  V30 22 2 22 23
M  V30 23 1 23 24
M  V30 24 2 24 25
M  V30 25 1 25 26
M  V30 26 2 26 27
M  V30 27 2 17 28
M  V30 28 1 28 29
M  V30 29 1 29 30
M  V30 30 1 8 2
M  V30 31 1 30 11
M  V30 32 1 12 2
M  V30 33 1 30 15
M  V30 34 1 27 18
M  V30 35 1 26 21
M  V30 36 1 1 31
M  V30 37 1 1 32
M  V30 38 1 1 33
M  V30 39 1 3 34
M  V30 40 1 3 35
M  V30 41 1 4 36
M  V30 42 1 4 37
M  V30 43 1 5 38 CFG=1
M  V30 44 1 6 39
M  V30 45 1 7 40
M  V30 46 1 7 41
M  V30 47 1 9 42
M  V30 48 1 10 43
M  V30 49 1 10 44
M  V30 50 1 11 45 CFG=3
M  V30 51 1 12 46 CFG=1
M  V30 52 1 13 47
M  V30 53 1 13 48
M  V30 54 1 14 49
M  V30 55 1 14 50
M  V30 56 1 16 51
M  V30 57 1 16 52
M  V30 58 1 16 53
M  V30 59 1 19 54
M  V30 60 1 20 55
M  V30 61 1 22 56
M  V30 62 1 25 57
M  V30 63 1 27 58
M  V30 64 1 28 59
M  V30 65 1 29 60
M  V30 66 1 29 61
M  V30 67 1 30 62 CFG=1
M  V30 END BOND
M  V30 END CTAB
M  END
>  <Dataset>  (734) 
ChEMBL_Kinases

>  <Ligand_Instance>  (734) 
nan

>  <PDB_ID>  (734) 
nan

>  <Standardized_SMILES>  (734) 
C[C@]12CC[C@H](O)CC1=CC[C@@H]1[C@@H]2CC[C@]2(C)C(c3ccc4cnncc4c3)=CC[C@@H]12

>  <Name>  (734) 
nan

>  <Pocket>  (734) 
nan

>  <ATP_Site>  (734) 
nan

>  <Peripheral>  (734) 
nan

>  <Num_H_Atoms_ProtBoundConf>  (734) 
nan

>  <Num_Resolved_Atoms>  (734) 
nan

>  <Num_Not_Resolved_Atoms>  (734) 
nan

$$$$
CHEMBL4168337
     RDKit          3D

  0  0  0  0  0  0  0  0  0  0999 V3000
M  V30 BEGIN CTAB
M  V30 COUNTS 44 47 0 0 0
M  V30 BEGIN ATOM
M  V30 1 C 0.143163 -4.801925 3.793467 0
M  V30 2 O 0.461736 -5.622664 2.672607 0
M  V30 3 C 0.537308 -5.073827 1.402286 0
M  V30 4 C 0.297828 -3.702862 1.236274 0
M  V30 5 C 0.359778 -3.097871 -0.002178 0
M  V30 6 C 0.087799 -1.649808 -0.180040 0
M  V30 7 C 0.422123 -0.832170 0.889626 0
M  V30 8 N 0.189994 0.480033 0.717029 0
M  V30 9 C -0.328966 1.002429 -0.399054 0
M  V30 10 C -0.541365 2.335626 -0.585722 0
M  V30 11 N -0.393379 3.503621 0.195467 0
M  V30 12 C 0.154350 4.750109 -0.236024 0
M  V30 13 C 1.535348 4.907252 0.344223 0
M  V30 14 S 1.777185 4.097929 1.877864 0
M  V30 15 O 2.395196 5.062439 2.879166 0
M  V30 16 O 2.785997 2.985253 1.704763 0
M  V30 17 C 0.282435 3.417146 2.544542 0
M  V30 18 C -0.857550 3.510458 1.582544 0
M  V30 19 S -1.211079 2.549611 -2.244169 0
M  V30 20 N -1.169492 0.722029 -2.618369 0
M  V30 21 C -0.665855 0.218060 -1.464919 0
M  V30 22 C -0.450734 -1.140418 -1.347588 0
M  V30 23 C 0.668148 -3.846251 -1.142851 0
M  V30 24 C 0.921703 -5.224759 -1.064856 0
M  V30 25 C 0.824305 -5.678037 0.209104 0
M  V30 26 N 1.086054 -7.095746 0.354966 0
M  V30 27 H 0.959892 -4.077292 3.982972 0
M  V30 28 H 0.025584 -5.490522 4.652230 0
M  V30 29 H -0.785355 -4.266671 3.594309 0
M  V30 30 H 0.051518 -3.048607 2.082517 0
M  V30 31 H 0.848979 -1.185047 1.826319 0
M  V30 32 H 0.239553 4.801574 -1.354181 0
M  V30 33 H -0.455546 5.626346 0.083124 0
M  V30 34 H 1.725793 6.011312 0.476536 0
M  V30 35 H 2.286659 4.599118 -0.440992 0
M  V30 36 H 0.004001 3.994959 3.453918 0
M  V30 37 H 0.470340 2.383904 2.914773 0
M  V30 38 H -1.452141 4.450864 1.779675 0
M  V30 39 H -1.562163 2.678635 1.763826 0
M  V30 40 H -0.656648 -1.896654 -2.072940 0
M  V30 41 H 0.723028 -3.384308 -2.135248 0
M  V30 42 H 1.160912 -5.848262 -1.886553 0
M  V30 43 H 1.348329 -7.758497 1.119112 0
M  V30 44 H 1.153120 -8.037330 -0.079966 0
M  V30 END ATOM
M  V30 BEGIN BOND
M  V30 1 1 1 2
M  V30 2 1 2 3
M  V30 3 2 3 4
M  V30 4 1 4 5
M  V30 5 1 5 6
M  V30 6 1 6 7
M  V30 7 2 7 8
M  V30 8 1 8 9
M  V30 9 2 9 10
M  V30 10 1 10 11
M  V30 11 1 11 12
M  V30 12 1 12 13
M  V30 13 1 13 14
M  V30 14 2 14 15
M  V30 15 2 14 16
M  V30 16 1 14 17
M  V30 17 1 17 18
M  V30 18 1 10 19
M  V30 19 1 19 20
M  V30 20 2 20 21
M  V30 21 1 21 22
M  V30 22 2 5 23
M  V30 23 1 23 24
M  V30 24 2 24 25
M  V30 25 1 25 26
M  V30 26 1 25 3
M  V30 27 2 22 6
M  V30 28 1 21 9
M  V30 29 1 18 11
M  V30 30 1 1 27
M  V30 31 1 1 28
M  V30 32 1 1 29
M  V30 33 1 4 30
M  V30 34 1 7 31
M  V30 35 1 12 32
M  V30 36 1 12 33
M  V30 37 1 13 34
M  V30 38 1 13 35
M  V30 39 1 17 36
M  V30 40 1 17 37
M  V30 41 1 18 38
M  V30 42 1 18 39
M  V30 43 1 22 40
M  V30 44 1 23 41
M  V30 45 1 24 42
M  V30 46 1 26 43
M  V30 47 1 26 44
M  V30 END BOND
M  V30 END CTAB
M  END
>  <Dataset>  (735) 
ChEMBL_Kinases

>  <Ligand_Instance>  (735) 
nan

>  <PDB_ID>  (735) 
nan

>  <Standardized_SMILES>  (735) 
COc1cc(-c2cnc3c(N4CCS(=O)(=O)CC4)snc3c2)ccc1N

>  <Name>  (735) 
nan

>  <Pocket>  (735) 
nan

>  <ATP_Site>  (735) 
nan

>  <Peripheral>  (735) 
nan

>  <Num_H_Atoms_ProtBoundConf>  (735) 
nan

>  <Num_Resolved_Atoms>  (735) 
nan

>  <Num_Not_Resolved_Atoms>  (735) 
nan

$$$$
CHEMBL4168305
     RDKit          3D

  0  0  0  0  0  0  0  0  0  0999 V3000
M  V30 BEGIN CTAB
M  V30 COUNTS 72 76 0 0 0
M  V30 BEGIN ATOM
M  V30 1 C -1.698067 -3.073651 -5.843743 0
M  V30 2 C -0.449218 -2.286778 -5.492485 0
M  V30 3 C 0.677096 -2.786637 -6.349459 0
M  V30 4 C -0.149086 -2.400303 -4.047270 0
M  V30 5 C 0.667660 -3.345232 -3.466570 0
M  V30 6 C 0.893284 -3.375310 -2.105462 0
M  V30 7 C 0.323406 -2.473720 -1.251069 0
M  V30 8 C 0.493205 -2.415998 0.183109 0
M  V30 9 O -0.074601 -1.534294 0.918963 0
M  V30 10 N 1.278841 -3.284999 0.973523 0
M  V30 11 C 1.302605 -3.036927 2.389828 0
M  V30 12 C 2.279208 -2.192530 2.889530 0
M  V30 13 C 2.319433 -1.943539 4.253412 0
M  V30 14 C 3.382710 -1.030545 4.769544 0
M  V30 15 N 2.915626 0.277705 4.836273 0
M  V30 16 C 2.427432 0.956773 3.703943 0
M  V30 17 C 0.923738 0.934236 3.692219 0
M  V30 18 N 0.301009 0.661571 4.940797 0
M  V30 19 C -1.006331 1.303970 4.958795 0
M  V30 20 C 1.013461 1.108263 6.107214 0
M  V30 21 C 2.486131 0.803664 6.052987 0
M  V30 22 C 1.433209 -2.493883 5.153863 0
M  V30 23 C 0.453255 -3.341802 4.646350 0
M  V30 24 C -0.584723 -4.020107 5.451318 0
M  V30 25 F -0.512126 -3.666775 6.784023 0
M  V30 26 F -1.826436 -3.661718 4.942801 0
M  V30 27 F -0.465240 -5.381578 5.267528 0
M  V30 28 C 0.416479 -3.586820 3.290814 0
M  V30 29 C -0.509172 -1.505284 -1.814202 0
M  V30 30 C -0.729614 -1.485532 -3.195205 0
M  V30 31 C -1.602530 -0.460186 -3.747918 0
M  V30 32 C -2.314885 0.402041 -4.197237 0
M  V30 33 C -3.153926 1.423573 -4.754203 0
M  V30 34 C -3.798587 1.429499 -5.983875 0
M  V30 35 N -4.480378 2.584032 -6.103387 0
M  V30 36 C -4.261833 3.273871 -4.975932 0
M  V30 37 C -4.710794 4.527621 -4.549759 0
M  V30 38 N -4.357603 5.028270 -3.359421 0
M  V30 39 C -3.550989 4.335902 -2.524452 0
M  V30 40 C -3.085363 3.078086 -2.922829 0
M  V30 41 N -3.452672 2.595412 -4.122363 0
M  V30 42 H -2.048911 -2.777689 -6.851640 0
M  V30 43 H -2.494521 -2.724422 -5.145089 0
M  V30 44 H -1.560842 -4.165052 -5.734894 0
M  V30 45 H -0.634129 -1.231468 -5.792290 0
M  V30 46 H 0.434560 -3.816160 -6.676016 0
M  V30 47 H 0.768567 -2.192027 -7.295713 0
M  V30 48 H 1.649803 -2.862982 -5.819934 0
M  V30 49 H 1.127102 -4.064651 -4.126104 0
M  V30 50 H 1.544186 -4.131159 -1.660618 0
M  V30 51 H 1.794715 -4.060084 0.452363 0
M  V30 52 H 2.971867 -1.766644 2.196632 0
M  V30 53 H 3.641723 -1.379988 5.795178 0
M  V30 54 H 4.290298 -1.164727 4.099014 0
M  V30 55 H 2.767111 2.033456 3.674979 0
M  V30 56 H 2.783267 0.550478 2.731652 0
M  V30 57 H 0.594672 0.153446 2.975843 0
M  V30 58 H 0.564520 1.893105 3.225492 0
M  V30 59 H -0.896470 2.366882 5.325691 0
M  V30 60 H -1.436466 1.416748 3.927041 0
M  V30 61 H -1.743348 0.746673 5.596340 0
M  V30 62 H 0.596079 0.549233 6.975955 0
M  V30 63 H 0.786692 2.178208 6.310953 0
M  V30 64 H 2.821005 0.198357 6.945798 0
M  V30 65 H 3.003904 1.795392 6.213828 0
M  V30 66 H 1.436599 -2.320629 6.219897 0
M  V30 67 H -0.332565 -4.248886 2.826777 0
M  V30 68 H -1.014469 -0.739183 -1.222699 0
M  V30 69 H -3.755026 0.630935 -6.720708 0
M  V30 70 H -5.364236 5.159567 -5.155567 0
M  V30 71 H -3.196670 4.636266 -1.538168 0
M  V30 72 H -2.430362 2.478530 -2.283354 0
M  V30 END ATOM
M  V30 BEGIN BOND
M  V30 1 1 1 2
M  V30 2 1 2 3
M  V30 3 1 2 4
M  V30 4 2 4 5
M  V30 5 1 5 6
M  V30 6 2 6 7
M  V30 7 1 7 8
M  V30 8 2 8 9
M  V30 9 1 8 10
M  V30 10 1 10 11
M  V30 11 2 11 12
M  V30 12 1 12 13
M  V30 13 1 13 14
M  V30 14 1 14 15
M  V30 15 1 15 16
M  V30 16 1 16 17
M  V30 17 1 17 18
M  V30 18 1 18 19
M  V30 19 1 18 20
M  V30 20 1 20 21
M  V30 21 2 13 22
M  V30 22 1 22 23
M  V30 23 1 23 24
M  V30 24 1 24 25
M  V30 25 1 24 26
M  V30 26 1 24 27
M  V30 27 2 23 28
M  V30 28 1 7 29
M  V30 29 2 29 30
M  V30 30 1 30 31
M  V30 31 3 31 32
M  V30 32 1 32 33
M  V30 33 2 33 34
M  V30 34 1 34 35
M  V30 35 2 35 36
M  V30 36 1 36 37
M  V30 37 2 37 38
M  V30 38 1 38 39
M  V30 39 2 39 40
M  V30 40 1 40 41
M  V30 41 1 30 4
M  V30 42 1 41 33
M  V30 43 1 28 11
M  V30 44 1 41 36
M  V30 45 1 21 15
M  V30 46 1 1 42
M  V30 47 1 1 43
M  V30 48 1 1 44
M  V30 49 1 2 45
M  V30 50 1 3 46
M  V30 51 1 3 47
M  V30 52 1 3 48
M  V30 53 1 5 49
M  V30 54 1 6 50
M  V30 55 1 10 51
M  V30 56 1 12 52
M  V30 57 1 14 53
M  V30 58 1 14 54
M  V30 59 1 16 55
M  V30 60 1 16 56
M  V30 61 1 17 57
M  V30 62 1 17 58
M  V30 63 1 19 59
M  V30 64 1 19 60
M  V30 65 1 19 61
M  V30 66 1 20 62
M  V30 67 1 20 63
M  V30 68 1 21 64
M  V30 69 1 21 65
M  V30 70 1 22 66
M  V30 71 1 28 67
M  V30 72 1 29 68
M  V30 73 1 34 69
M  V30 74 1 37 70
M  V30 75 1 39 71
M  V30 76 1 40 72
M  V30 END BOND
M  V30 END CTAB
M  END
>  <Dataset>  (736) 
ChEMBL_Kinases

>  <Ligand_Instance>  (736) 
nan

>  <PDB_ID>  (736) 
nan

>  <Standardized_SMILES>  (736) 
CC(C)c1ccc(C(=O)Nc2cc(CN3CCN(C)CC3)cc(C(F)(F)F)c2)cc1C#Cc1cnc2cnccn12

>  <Name>  (736) 
nan

>  <Pocket>  (736) 
nan

>  <ATP_Site>  (736) 
nan

>  <Peripheral>  (736) 
nan

>  <Num_H_Atoms_ProtBoundConf>  (736) 
nan

>  <Num_Resolved_Atoms>  (736) 
nan

>  <Num_Not_Resolved_Atoms>  (736) 
nan

$$$$
CHEMBL4786728
     RDKit          3D

  0  0  0  0  0  0  0  0  0  0999 V3000
M  V30 BEGIN CTAB
M  V30 COUNTS 65 69 0 0 0
M  V30 BEGIN ATOM
M  V30 1 O -1.385197 2.024911 5.546467 0
M  V30 2 S -0.148428 2.078350 4.661921 0
M  V30 3 O 0.639830 0.843548 4.973888 0
M  V30 4 N -0.717072 2.087218 3.047461 0
M  V30 5 C 0.372426 2.147204 2.094871 0
M  V30 6 C -0.170887 2.153138 0.658968 0
M  V30 7 C 1.010597 2.217273 -0.257247 0
M  V30 8 N 0.700398 2.224434 -1.654900 0
M  V30 9 C 0.121155 1.170188 -2.403727 0
M  V30 10 C -0.139062 -0.076107 -1.888478 0
M  V30 11 C -0.721977 -1.141425 -2.587865 0
M  V30 12 C -0.926262 -2.403278 -1.886356 0
M  V30 13 N -1.780732 -2.320521 -0.827299 0
M  V30 14 C -1.898193 -3.530190 -0.244212 0
M  V30 15 C -2.665823 -4.000400 0.903413 0
M  V30 16 C -2.667687 -5.294440 1.373488 0
M  V30 17 C -3.431096 -5.640272 2.471459 0
M  V30 18 C -4.219115 -4.729465 3.146900 0
M  V30 19 C -4.216903 -3.425147 2.672960 0
M  V30 20 C -3.448455 -3.072744 1.565906 0
M  V30 21 N -1.104719 -4.390492 -0.947311 0
M  V30 22 C -0.511488 -3.715566 -1.945177 0
M  V30 23 C 0.418097 -4.087507 -3.001738 0
M  V30 24 C 0.190851 -4.160271 -4.356890 0
M  V30 25 C 1.166417 -4.522841 -5.257826 0
M  V30 26 C 2.431652 -4.834015 -4.843039 0
M  V30 27 C 2.710680 -4.776846 -3.498771 0
M  V30 28 O 3.996143 -5.097772 -3.121477 0
M  V30 29 C 1.714461 -4.407870 -2.592113 0
M  V30 30 C -1.034974 -0.846044 -3.895187 0
M  V30 31 C -0.782828 0.394443 -4.431481 0
M  V30 32 N -0.219721 1.356963 -3.684008 0
M  V30 33 C 0.744493 3.526640 5.061517 0
M  V30 34 C 0.029758 4.609284 5.573506 0
M  V30 35 C 0.667824 5.787376 5.913744 0
M  V30 36 C 2.043581 5.901489 5.745603 0
M  V30 37 C 2.752300 4.812373 5.232128 0
M  V30 38 C 2.109974 3.637928 4.893771 0
M  V30 39 H -1.215149 1.182128 2.896181 0
M  V30 40 H 1.024242 3.012071 2.206568 0
M  V30 41 H 0.997914 1.238504 2.181172 0
M  V30 42 H -0.892753 1.364195 0.480903 0
M  V30 43 H -0.750408 3.117542 0.515652 0
M  V30 44 H 1.725218 1.367903 -0.029713 0
M  V30 45 H 1.578824 3.126215 0.025729 0
M  V30 46 H 0.931249 3.118501 -2.186206 0
M  V30 47 H 0.127012 -0.282435 -0.855799 0
M  V30 48 H -2.349409 -1.560930 -0.375143 0
M  V30 49 H -2.046030 -5.992227 0.833797 0
M  V30 50 H -3.394418 -6.678554 2.797521 0
M  V30 51 H -4.817939 -4.998567 4.008355 0
M  V30 52 H -4.823784 -2.698372 3.183138 0
M  V30 53 H -3.503939 -2.051734 1.266634 0
M  V30 54 H -0.816731 -3.914352 -4.658892 0
M  V30 55 H 0.839338 -4.537420 -6.307105 0
M  V30 56 H 3.112615 -5.104342 -5.641323 0
M  V30 57 H 4.371944 -6.056090 -3.106367 0
M  V30 58 H 2.070002 -4.404038 -1.570045 0
M  V30 59 H -1.488572 -1.643423 -4.463198 0
M  V30 60 H -1.056267 0.551323 -5.465295 0
M  V30 61 H -1.037409 4.580035 5.725589 0
M  V30 62 H 0.091026 6.624329 6.312549 0
M  V30 63 H 2.538334 6.827974 6.015203 0
M  V30 64 H 3.825639 4.917659 5.107320 0
M  V30 65 H 2.648369 2.786754 4.494701 0
M  V30 END ATOM
M  V30 BEGIN BOND
M  V30 1 2 1 2
M  V30 2 2 2 3
M  V30 3 1 2 4
M  V30 4 1 4 5
M  V30 5 1 5 6
M  V30 6 1 6 7
M  V30 7 1 7 8
M  V30 8 1 8 9
M  V30 9 2 9 10
M  V30 10 1 10 11
M  V30 11 1 11 12
M  V30 12 1 12 13
M  V30 13 1 13 14
M  V30 14 1 14 15
M  V30 15 2 15 16
M  V30 16 1 16 17
M  V30 17 2 17 18
M  V30 18 1 18 19
M  V30 19 2 19 20
M  V30 20 2 14 21
M  V30 21 1 21 22
M  V30 22 1 22 23
M  V30 23 2 23 24
M  V30 24 1 24 25
M  V30 25 2 25 26
M  V30 26 1 26 27
M  V30 27 1 27 28
M  V30 28 2 27 29
M  V30 29 2 11 30
M  V30 30 1 30 31
M  V30 31 2 31 32
M  V30 32 1 2 33
M  V30 33 2 33 34
M  V30 34 1 34 35
M  V30 35 2 35 36
M  V30 36 1 36 37
M  V30 37 2 37 38
M  V30 38 1 32 9
M  V30 39 1 38 33
M  V30 40 2 22 12
M  V30 41 1 29 23
M  V30 42 1 20 15
M  V30 43 1 4 39
M  V30 44 1 5 40
M  V30 45 1 5 41
M  V30 46 1 6 42
M  V30 47 1 6 43
M  V30 48 1 7 44
M  V30 49 1 7 45
M  V30 50 1 8 46
M  V30 51 1 10 47
M  V30 52 1 13 48
M  V30 53 1 16 49
M  V30 54 1 17 50
M  V30 55 1 18 51
M  V30 56 1 19 52
M  V30 57 1 20 53
M  V30 58 1 24 54
M  V30 59 1 25 55
M  V30 60 1 26 56
M  V30 61 1 28 57
M  V30 62 1 29 58
M  V30 63 1 30 59
M  V30 64 1 31 60
M  V30 65 1 34 61
M  V30 66 1 35 62
M  V30 67 1 36 63
M  V30 68 1 37 64
M  V30 69 1 38 65
M  V30 END BOND
M  V30 END CTAB
M  END
>  <Dataset>  (737) 
ChEMBL_Kinases

>  <Ligand_Instance>  (737) 
nan

>  <PDB_ID>  (737) 
nan

>  <Standardized_SMILES>  (737) 
O=S(=O)(NCCCNc1cc(-c2[nH]c(-c3ccccc3)nc2-c2cccc(O)c2)ccn1)c1ccccc1

>  <Name>  (737) 
nan

>  <Pocket>  (737) 
nan

>  <ATP_Site>  (737) 
nan

>  <Peripheral>  (737) 
nan

>  <Num_H_Atoms_ProtBoundConf>  (737) 
nan

>  <Num_Resolved_Atoms>  (737) 
nan

>  <Num_Not_Resolved_Atoms>  (737) 
nan

$$$$
CHEMBL4786846
     RDKit          3D

  0  0  0  0  0  0  0  0  0  0999 V3000
M  V30 BEGIN CTAB
M  V30 COUNTS 64 68 0 0 0
M  V30 BEGIN ATOM
M  V30 1 C 3.643352 -3.083067 6.434761 0
M  V30 2 C 3.133446 -2.810129 5.066694 0
M  V30 3 N 2.847043 -1.636108 4.526570 0
M  V30 4 C 2.400669 -1.683351 3.266994 0
M  V30 5 C 1.987687 -0.729456 2.254125 0
M  V30 6 C 2.601248 0.374461 1.859231 0
M  V30 7 C 3.852985 0.893905 2.352238 0
M  V30 8 O 4.519481 0.310785 3.229483 0
M  V30 9 N 4.057983 2.079270 1.642993 0
M  V30 10 C 2.996732 2.327782 0.730085 0
M  V30 11 C 2.797541 3.372585 -0.154385 0
M  V30 12 C 1.639798 3.358297 -0.942960 0
M  V30 13 C 0.712323 2.340090 -0.854579 0
M  V30 14 C -0.466265 2.416087 -1.711049 0
M  V30 15 O -0.575782 3.452423 -2.416375 0
M  V30 16 N -1.459012 1.405601 -1.778505 0
M  V30 17 C -2.640224 1.428815 -2.598171 0
M  V30 18 C -3.480221 0.194823 -2.454734 0
M  V30 19 C -4.699314 0.166077 -3.259032 0
M  V30 20 C -4.838168 -0.283641 -4.554091 0
M  V30 21 C -6.013586 -0.298587 -5.270303 0
M  V30 22 C -7.149836 0.172135 -4.650970 0
M  V30 23 C -7.093863 0.638368 -3.358041 0
M  V30 24 C -5.878727 0.633318 -2.672625 0
M  V30 25 C -3.422022 2.698113 -2.677521 0
M  V30 26 O -3.716355 2.335694 -4.017628 0
M  V30 27 C -2.414959 1.782274 -4.046716 0
M  V30 28 C 0.951859 1.317731 0.041681 0
M  V30 29 C 2.076037 1.284642 0.841173 0
M  V30 30 C 2.416697 -3.060115 3.007100 0
M  V30 31 C 2.032647 -3.797194 1.767718 0
M  V30 32 C 2.863044 -3.759536 4.101551 0
M  V30 33 N 3.034027 -5.166230 4.269298 0
M  V30 34 C 1.887986 -5.837664 4.770205 0
M  V30 35 O 0.846572 -5.173070 5.020851 0
M  V30 36 C 1.949854 -7.295595 4.982661 0
M  V30 37 Cl 2.502003 -7.726441 6.619361 0
M  V30 38 H 4.156231 -4.061331 6.484649 0
M  V30 39 H 4.218223 -2.247064 6.868163 0
M  V30 40 H 2.720626 -3.164478 7.081264 0
M  V30 41 H 2.952551 -0.754425 5.063126 0
M  V30 42 H 1.029293 -0.982087 1.765722 0
M  V30 43 H 4.918351 2.661390 1.821156 0
M  V30 44 H 3.514818 4.185493 -0.241387 0
M  V30 45 H 1.545971 4.203161 -1.612317 0
M  V30 46 H -1.291696 0.570756 -1.162408 0
M  V30 47 H -2.795060 -0.664421 -2.704529 0
M  V30 48 H -3.717479 0.008565 -1.364479 0
M  V30 49 H -3.973955 -0.654466 -5.045218 0
M  V30 50 H -6.036628 -0.674033 -6.300091 0
M  V30 51 H -8.092313 0.168969 -5.204545 0
M  V30 52 H -8.026582 0.987874 -2.949664 0
M  V30 53 H -6.005775 1.023473 -1.663550 0
M  V30 54 H -2.879231 3.649032 -2.597079 0
M  V30 55 H -4.355900 2.638415 -2.088754 0
M  V30 56 H -1.719253 2.611683 -4.261533 0
M  V30 57 H -2.254439 0.931718 -4.695340 0
M  V30 58 H 0.248082 0.504439 0.137367 0
M  V30 59 H 0.994289 -4.199870 1.860324 0
M  V30 60 H 2.701188 -4.687743 1.611674 0
M  V30 61 H 2.027791 -3.145860 0.866000 0
M  V30 62 H 3.931181 -5.596415 4.030752 0
M  V30 63 H 0.921237 -7.715837 4.842036 0
M  V30 64 H 2.576269 -7.825412 4.225286 0
M  V30 END ATOM
M  V30 BEGIN BOND
M  V30 1 1 1 2
M  V30 2 1 2 3
M  V30 3 1 3 4
M  V30 4 1 4 5
M  V30 5 2 5 6
M  V30 6 1 6 7
M  V30 7 2 7 8
M  V30 8 1 7 9
M  V30 9 1 9 10
M  V30 10 2 10 11
M  V30 11 1 11 12
M  V30 12 2 12 13
M  V30 13 1 13 14
M  V30 14 2 14 15
M  V30 15 1 14 16
M  V30 16 1 16 17
M  V30 17 1 17 18
M  V30 18 1 18 19
M  V30 19 2 19 20
M  V30 20 1 20 21
M  V30 21 2 21 22
M  V30 22 1 22 23
M  V30 23 2 23 24
M  V30 24 1 17 25
M  V30 25 1 25 26
M  V30 26 1 26 27
M  V30 27 1 13 28
M  V30 28 2 28 29
M  V30 29 2 4 30
M  V30 30 1 30 31
M  V30 31 1 30 32
M  V30 32 1 32 33
M  V30 33 1 33 34
M  V30 34 2 34 35
M  V30 35 1 34 36
M  V30 36 1 36 37
M  V30 37 2 32 2
M  V30 38 1 29 6
M  V30 39 1 29 10
M  V30 40 1 27 17
M  V30 41 1 24 19
M  V30 42 1 1 38
M  V30 43 1 1 39
M  V30 44 1 1 40
M  V30 45 1 3 41
M  V30 46 1 5 42
M  V30 47 1 9 43
M  V30 48 1 11 44
M  V30 49 1 12 45
M  V30 50 1 16 46
M  V30 51 1 18 47
M  V30 52 1 18 48
M  V30 53 1 20 49
M  V30 54 1 21 50
M  V30 55 1 22 51
M  V30 56 1 23 52
M  V30 57 1 24 53
M  V30 58 1 25 54
M  V30 59 1 25 55
M  V30 60 1 27 56
M  V30 61 1 27 57
M  V30 62 1 28 58
M  V30 63 1 31 59
M  V30 64 1 31 60
M  V30 65 1 31 61
M  V30 66 1 33 62
M  V30 67 1 36 63
M  V30 68 1 36 64
M  V30 END BOND
M  V30 END CTAB
M  END
>  <Dataset>  (738) 
ChEMBL_Kinases

>  <Ligand_Instance>  (738) 
nan

>  <PDB_ID>  (738) 
nan

>  <Standardized_SMILES>  (738) 
Cc1[nH]c(/C=C2\C(=O)Nc3ccc(C(=O)NC4(Cc5ccccc5)COC4)cc32)c(C)c1NC(=O)CCl

>  <Name>  (738) 
nan

>  <Pocket>  (738) 
nan

>  <ATP_Site>  (738) 
nan

>  <Peripheral>  (738) 
nan

>  <Num_H_Atoms_ProtBoundConf>  (738) 
nan

>  <Num_Resolved_Atoms>  (738) 
nan

>  <Num_Not_Resolved_Atoms>  (738) 
nan

$$$$
CHEMBL4168084
     RDKit          3D

  0  0  0  0  0  0  0  0  0  0999 V3000
M  V30 BEGIN CTAB
M  V30 COUNTS 60 64 0 0 0
M  V30 BEGIN ATOM
M  V30 1 C 3.028628 -5.120924 -1.222460 0
M  V30 2 O 3.141092 -3.732101 -1.564213 0
M  V30 3 C 3.104994 -2.860696 -0.487012 0
M  V30 4 C 2.971464 -3.249406 0.829834 0
M  V30 5 C 2.937309 -2.358503 1.894220 0
M  V30 6 C 3.046900 -1.002636 1.574024 0
M  V30 7 C 3.183677 -0.582805 0.243314 0
M  V30 8 C 3.310647 0.866629 0.174680 0
M  V30 9 C 2.351397 1.743186 0.003039 0
M  V30 10 C 2.587951 3.178636 -0.058874 0
M  V30 11 O 3.678831 3.796444 0.006907 0
M  V30 12 N 1.261171 3.723230 -0.217676 0
M  V30 13 C 0.325123 2.654192 -0.244620 0
M  V30 14 C -1.054852 2.701386 -0.376205 0
M  V30 15 C -1.739848 1.501459 -0.368370 0
M  V30 16 C -1.129971 0.269420 -0.237864 0
M  V30 17 C -1.904745 -0.966856 -0.237693 0
M  V30 18 O -1.319335 -2.071975 -0.181925 0
M  V30 19 N -3.313114 -0.989118 -0.298358 0
M  V30 20 C -4.096038 -2.218555 -0.303704 0 CFG=2
M  V30 21 C -4.925261 -2.223791 -1.562803 0
M  V30 22 O -5.790335 -1.132560 -1.621684 0
M  V30 23 C -4.955739 -2.312263 0.905226 0
M  V30 24 C -6.290378 -2.680980 0.992947 0
M  V30 25 C -6.907438 -2.701247 2.236999 0
M  V30 26 C -6.206923 -2.358727 3.382555 0
M  V30 27 C -4.869446 -1.987368 3.310949 0
M  V30 28 C -4.278270 -1.975758 2.058161 0
M  V30 29 C 0.244525 0.257556 -0.108586 0
M  V30 30 C 0.952856 1.433190 -0.113277 0
M  V30 31 C 4.726417 1.123550 0.402317 0
M  V30 32 N 5.876337 0.688900 -0.120271 0
M  V30 33 C 6.946531 1.227778 0.509419 0
M  V30 34 C 6.391979 2.056563 1.493411 0
M  V30 35 N 5.043880 1.972839 1.405209 0
M  V30 36 C 3.213709 -1.508139 -0.799031 0
M  V30 37 H 3.185827 -5.776027 -2.094905 0
M  V30 38 H 2.059831 -5.381587 -0.782632 0
M  V30 39 H 3.810408 -5.382639 -0.458977 0
M  V30 40 H 2.891240 -4.313080 1.031868 0
M  V30 41 H 2.830721 -2.720141 2.899326 0
M  V30 42 H 3.013878 -0.370809 2.445970 0
M  V30 43 H 1.045103 4.735056 -0.297423 0
M  V30 44 H -1.542841 3.654136 -0.478258 0
M  V30 45 H -2.809331 1.608998 -0.474875 0
M  V30 46 H -3.875454 -0.112738 -0.343608 0
M  V30 47 H -3.463651 -3.126795 -0.312919 0
M  V30 48 H -5.432083 -3.189033 -1.754154 0
M  V30 49 H -4.189337 -2.044789 -2.401335 0
M  V30 50 H -5.828198 -0.723975 -0.699274 0
M  V30 51 H -6.732619 -2.925761 0.038635 0
M  V30 52 H -7.957955 -2.999528 2.240305 0
M  V30 53 H -6.718593 -2.383658 4.335755 0
M  V30 54 H -4.386238 -1.734231 4.243839 0
M  V30 55 H -3.228448 -1.666482 2.135452 0
M  V30 56 H 0.663609 -0.723459 -0.003886 0
M  V30 57 H 7.959700 0.977192 0.207931 0
M  V30 58 H 7.160308 2.566696 2.091341 0
M  V30 59 H 4.635966 2.588808 2.155165 0
M  V30 60 H 3.321108 -1.061664 -1.757054 0
M  V30 END ATOM
M  V30 BEGIN BOND
M  V30 1 1 1 2
M  V30 2 1 2 3
M  V30 3 2 3 4
M  V30 4 1 4 5
M  V30 5 2 5 6
M  V30 6 1 6 7
M  V30 7 1 7 8
M  V30 8 2 8 9
M  V30 9 1 9 10
M  V30 10 2 10 11
M  V30 11 1 10 12
M  V30 12 1 12 13
M  V30 13 2 13 14
M  V30 14 1 14 15
M  V30 15 2 15 16
M  V30 16 1 16 17
M  V30 17 2 17 18
M  V30 18 1 17 19
M  V30 19 1 19 20
M  V30 20 1 20 21
M  V30 21 1 21 22
M  V30 22 1 20 23
M  V30 23 2 23 24
M  V30 24 1 24 25
M  V30 25 2 25 26
M  V30 26 1 26 27
M  V30 27 2 27 28
M  V30 28 1 16 29
M  V30 29 2 29 30
M  V30 30 1 8 31
M  V30 31 2 31 32
M  V30 32 1 32 33
M  V30 33 2 33 34
M  V30 34 1 34 35
M  V30 35 2 7 36
M  V30 36 1 36 3
M  V30 37 1 30 9
M  V30 38 1 35 31
M  V30 39 1 30 13
M  V30 40 1 28 23
M  V30 41 1 1 37
M  V30 42 1 1 38
M  V30 43 1 1 39
M  V30 44 1 4 40
M  V30 45 1 5 41
M  V30 46 1 6 42
M  V30 47 1 12 43
M  V30 48 1 14 44
M  V30 49 1 15 45
M  V30 50 1 19 46
M  V30 51 1 20 47 CFG=3
M  V30 52 1 21 48
M  V30 53 1 21 49
M  V30 54 1 22 50
M  V30 55 1 24 51
M  V30 56 1 25 52
M  V30 57 1 26 53
M  V30 58 1 27 54
M  V30 59 1 28 55
M  V30 60 1 29 56
M  V30 61 1 33 57
M  V30 62 1 34 58
M  V30 63 1 35 59
M  V30 64 1 36 60
M  V30 END BOND
M  V30 END CTAB
M  END
>  <Dataset>  (739) 
ChEMBL_Kinases

>  <Ligand_Instance>  (739) 
nan

>  <PDB_ID>  (739) 
nan

>  <Standardized_SMILES>  (739) 
COc1cccc(/C(=C2/C(=O)Nc3ccc(C(=O)N[C@H](CO)c4ccccc4)cc32)c2ncc[nH]2)c1

>  <Name>  (739) 
nan

>  <Pocket>  (739) 
nan

>  <ATP_Site>  (739) 
nan

>  <Peripheral>  (739) 
nan

>  <Num_H_Atoms_ProtBoundConf>  (739) 
nan

>  <Num_Resolved_Atoms>  (739) 
nan

>  <Num_Not_Resolved_Atoms>  (739) 
nan

$$$$
CHEMBL4786880
     RDKit          3D

  0  0  0  0  0  0  0  0  0  0999 V3000
M  V30 BEGIN CTAB
M  V30 COUNTS 48 51 0 0 0
M  V30 BEGIN ATOM
M  V30 1 N 0.471012 -0.308545 3.527506 0
M  V30 2 C 1.633307 -0.415801 3.373203 0
M  V30 3 C 3.068701 -0.542403 3.163098 0
M  V30 4 C 3.887068 -0.179504 4.223131 0
M  V30 5 C 5.256879 -0.290054 4.050744 0
M  V30 6 C 5.785032 -0.749115 2.856023 0
M  V30 7 C 4.943679 -1.109758 1.800356 0
M  V30 8 C 3.555367 -1.008337 1.945346 0
M  V30 9 C 2.617280 -1.381991 0.843474 0
M  V30 10 C 2.104561 -0.113893 0.213601 0
M  V30 11 O 3.076181 0.497221 -0.339102 0
M  V30 12 N 0.764368 0.433330 0.170621 0
M  V30 13 C 0.886084 1.660632 -0.575364 0
M  V30 14 C -0.402833 2.392413 -0.714854 0
M  V30 15 C -1.510706 1.728897 -1.443677 0
M  V30 16 N -1.984699 0.485501 -0.950376 0
M  V30 17 C -2.953478 0.509390 0.013513 0
M  V30 18 O -3.367328 1.621459 0.436731 0
M  V30 19 C -3.516365 -0.615253 0.561203 0
M  V30 20 C -4.479123 -0.524111 1.521823 0
M  V30 21 C -5.018056 -1.683251 2.047850 0
M  V30 22 F -5.980889 -1.599656 3.009545 0
M  V30 23 C -4.603129 -2.925543 1.621962 0
M  V30 24 C -3.624243 -2.990001 0.645283 0
M  V30 25 C -3.083979 -1.844795 0.117570 0
M  V30 26 N -2.139143 -1.887487 -0.822499 0
M  V30 27 C -1.554966 -2.926901 -1.418350 0
M  V30 28 S -1.718957 -4.539371 -1.274247 0
M  V30 29 N -0.668302 -2.433127 -2.295945 0
M  V30 30 N -0.690596 -1.090170 -2.256738 0
M  V30 31 C -1.613175 -0.764830 -1.333523 0
M  V30 32 H 3.428645 0.181756 5.158905 0
M  V30 33 H 5.820465 0.014821 4.930502 0
M  V30 34 H 6.859800 -0.809873 2.792133 0
M  V30 35 H 5.376509 -1.469304 0.865065 0
M  V30 36 H 1.728104 -1.937460 1.191342 0
M  V30 37 H 3.152107 -1.993304 0.074595 0
M  V30 38 H 0.226530 -0.280016 0.708859 0
M  V30 39 H 1.560694 2.337929 0.028053 0
M  V30 40 H 1.373180 1.467106 -1.564909 0
M  V30 41 H -0.153798 3.394892 -1.190385 0
M  V30 42 H -0.758485 2.631786 0.323705 0
M  V30 43 H -2.380103 2.460631 -1.386971 0
M  V30 44 H -1.323376 1.698413 -2.564740 0
M  V30 45 H -4.846654 0.436060 1.897028 0
M  V30 46 H -5.080632 -3.800324 2.092069 0
M  V30 47 H -3.363955 -3.987666 0.377176 0
M  V30 48 H -0.014559 -2.917602 -2.955611 0
M  V30 END ATOM
M  V30 BEGIN BOND
M  V30 1 3 1 2
M  V30 2 1 2 3
M  V30 3 2 3 4
M  V30 4 1 4 5
M  V30 5 2 5 6
M  V30 6 1 6 7
M  V30 7 2 7 8
M  V30 8 1 8 9
M  V30 9 1 9 10
M  V30 10 2 10 11
M  V30 11 1 10 12
M  V30 12 1 12 13
M  V30 13 1 13 14
M  V30 14 1 14 15
M  V30 15 1 15 16
M  V30 16 1 16 17
M  V30 17 2 17 18
M  V30 18 1 17 19
M  V30 19 2 19 20
M  V30 20 1 20 21
M  V30 21 1 21 22
M  V30 22 2 21 23
M  V30 23 1 23 24
M  V30 24 2 24 25
M  V30 25 1 25 26
M  V30 26 1 26 27
M  V30 27 2 27 28
M  V30 28 1 27 29
M  V30 29 1 29 30
M  V30 30 2 30 31
M  V30 31 1 8 3
M  V30 32 1 31 16
M  V30 33 1 25 19
M  V30 34 1 31 26
M  V30 35 1 4 32
M  V30 36 1 5 33
M  V30 37 1 6 34
M  V30 38 1 7 35
M  V30 39 1 9 36
M  V30 40 1 9 37
M  V30 41 1 12 38
M  V30 42 1 13 39
M  V30 43 1 13 40
M  V30 44 1 14 41
M  V30 45 1 14 42
M  V30 46 1 15 43
M  V30 47 1 15 44
M  V30 48 1 20 45
M  V30 49 1 23 46
M  V30 50 1 24 47
M  V30 51 1 29 48
M  V30 END BOND
M  V30 END CTAB
M  END
>  <Dataset>  (740) 
ChEMBL_Kinases

>  <Ligand_Instance>  (740) 
nan

>  <PDB_ID>  (740) 
nan

>  <Standardized_SMILES>  (740) 
N#Cc1ccccc1CC(=O)NCCCn1c(=O)c2cc(F)ccc2n2c(=S)[nH]nc12

>  <Name>  (740) 
nan

>  <Pocket>  (740) 
nan

>  <ATP_Site>  (740) 
nan

>  <Peripheral>  (740) 
nan

>  <Num_H_Atoms_ProtBoundConf>  (740) 
nan

>  <Num_Resolved_Atoms>  (740) 
nan

>  <Num_Not_Resolved_Atoms>  (740) 
nan

$$$$
CHEMBL4167865
     RDKit          3D

  0  0  0  0  0  0  0  0  0  0999 V3000
M  V30 BEGIN CTAB
M  V30 COUNTS 50 54 0 0 0
M  V30 BEGIN ATOM
M  V30 1 C -0.714657 -3.220813 3.081060 0
M  V30 2 C 0.781310 -3.208823 2.942057 0
M  V30 3 C 1.243664 -3.458647 1.509089 0
M  V30 4 C 2.748016 -3.408809 1.576416 0
M  V30 5 O 3.605465 -4.343415 1.494795 0
M  V30 6 N 3.285982 -2.083485 1.763420 0
M  V30 7 C 4.600065 -1.863060 2.366232 0
M  V30 8 C 2.549843 -0.936604 1.364236 0
M  V30 9 C 3.016754 0.359332 1.519475 0
M  V30 10 N 2.252067 1.399687 1.112107 0
M  V30 11 C 1.030198 1.239138 0.549440 0
M  V30 12 N 0.296088 2.392904 0.150857 0
M  V30 13 C 0.840310 3.377264 -0.590730 0
M  V30 14 C -0.135799 4.331909 -0.794046 0
M  V30 15 C -1.280876 3.895691 -0.155345 0
M  V30 16 C -2.536297 4.470103 -0.048505 0
M  V30 17 C -3.449025 3.734573 0.679218 0
M  V30 18 F -4.694617 4.271251 0.803955 0
M  V30 19 C -3.217501 2.517419 1.285927 0
M  V30 20 C -1.946317 1.979991 1.152832 0
M  V30 21 C -0.990132 2.671089 0.435250 0
M  V30 22 N 0.553647 -0.030369 0.388421 0
M  V30 23 C 1.304831 -1.095887 0.790706 0
M  V30 24 N 0.790528 -2.410968 0.614256 0
M  V30 25 C -0.147724 -2.690248 -0.418004 0
M  V30 26 C -0.737007 -3.913442 -0.715225 0
M  V30 27 C -1.570110 -3.720253 -1.779635 0
M  V30 28 N -1.488115 -2.403743 -2.122396 0
M  V30 29 C -2.285904 -1.915174 -3.243419 0
M  V30 30 N -0.628072 -1.795989 -1.294049 0
M  V30 31 H -1.258542 -2.723142 2.269567 0
M  V30 32 H -1.070496 -4.251080 3.289487 0
M  V30 33 H -0.940108 -2.650340 4.027692 0
M  V30 34 H 1.175532 -4.033490 3.550590 0
M  V30 35 H 1.163970 -2.239864 3.306040 0
M  V30 36 H 0.884197 -4.435655 1.178712 0
M  V30 37 H 4.479305 -1.096664 3.145362 0
M  V30 38 H 4.931229 -2.808161 2.856423 0
M  V30 39 H 5.363041 -1.626823 1.597268 0
M  V30 40 H 3.996132 0.509806 1.969427 0
M  V30 41 H 1.848435 3.474827 -0.991542 0
M  V30 42 H -0.086971 5.281697 -1.346208 0
M  V30 43 H -2.810988 5.419711 -0.489585 0
M  V30 44 H -3.981655 2.006986 1.835795 0
M  V30 45 H -1.675131 1.029752 1.595484 0
M  V30 46 H -0.566066 -4.862121 -0.192227 0
M  V30 47 H -2.154190 -4.523241 -2.211418 0
M  V30 48 H -3.366701 -1.951684 -3.025819 0
M  V30 49 H -2.072845 -2.463313 -4.186594 0
M  V30 50 H -2.033244 -0.839263 -3.427583 0
M  V30 END ATOM
M  V30 BEGIN BOND
M  V30 1 1 1 2
M  V30 2 1 2 3
M  V30 3 1 3 4
M  V30 4 2 4 5
M  V30 5 1 4 6
M  V30 6 1 6 7
M  V30 7 1 6 8
M  V30 8 2 8 9
M  V30 9 1 9 10
M  V30 10 2 10 11
M  V30 11 1 11 12
M  V30 12 1 12 13
M  V30 13 2 13 14
M  V30 14 1 14 15
M  V30 15 2 15 16
M  V30 16 1 16 17
M  V30 17 1 17 18
M  V30 18 2 17 19
M  V30 19 1 19 20
M  V30 20 2 20 21
M  V30 21 1 11 22
M  V30 22 2 22 23
M  V30 23 1 23 24
M  V30 24 1 24 25
M  V30 25 1 25 26
M  V30 26 2 26 27
M  V30 27 1 27 28
M  V30 28 1 28 29
M  V30 29 1 28 30
M  V30 30 1 24 3
M  V30 31 2 30 25
M  V30 32 1 23 8
M  V30 33 1 21 12
M  V30 34 1 21 15
M  V30 35 1 1 31
M  V30 36 1 1 32
M  V30 37 1 1 33
M  V30 38 1 2 34
M  V30 39 1 2 35
M  V30 40 1 3 36
M  V30 41 1 7 37
M  V30 42 1 7 38
M  V30 43 1 7 39
M  V30 44 1 9 40
M  V30 45 1 13 41
M  V30 46 1 14 42
M  V30 47 1 16 43
M  V30 48 1 19 44
M  V30 49 1 20 45
M  V30 50 1 26 46
M  V30 51 1 27 47
M  V30 52 1 29 48
M  V30 53 1 29 49
M  V30 54 1 29 50
M  V30 END BOND
M  V30 END CTAB
M  END
>  <Dataset>  (741) 
ChEMBL_Kinases

>  <Ligand_Instance>  (741) 
nan

>  <PDB_ID>  (741) 
nan

>  <Standardized_SMILES>  (741) 
CCC1C(=O)N(C)c2cnc(-n3ccc4cc(F)ccc43)nc2N1c1ccn(C)n1

>  <Name>  (741) 
nan

>  <Pocket>  (741) 
nan

>  <ATP_Site>  (741) 
nan

>  <Peripheral>  (741) 
nan

>  <Num_H_Atoms_ProtBoundConf>  (741) 
nan

>  <Num_Resolved_Atoms>  (741) 
nan

>  <Num_Not_Resolved_Atoms>  (741) 
nan

$$$$
CHEMBL4168766
     RDKit          3D

  0  0  0  0  0  0  0  0  0  0999 V3000
M  V30 BEGIN CTAB
M  V30 COUNTS 36 38 0 0 0
M  V30 BEGIN ATOM
M  V30 1 N -4.236448 -3.225910 2.090770 0
M  V30 2 C -3.040456 -3.907876 1.734148 0
M  V30 3 N -2.715447 -5.204225 2.001929 0
M  V30 4 N -1.495872 -5.442106 1.489071 0
M  V30 5 C -0.992390 -4.331570 0.880661 0
M  V30 6 C 0.231125 -4.189539 0.241338 0
M  V30 7 C 0.443583 -2.912888 -0.280466 0
M  V30 8 C -0.513577 -1.910276 -0.145700 0
M  V30 9 N -0.145272 -0.646119 -0.739957 0
M  V30 10 C 0.536136 0.124758 0.242596 0
M  V30 11 O 0.850823 -0.081439 1.442714 0
M  V30 12 C 1.097404 1.469068 0.110292 0
M  V30 13 C 1.719718 1.849171 1.437714 0
M  V30 14 C 2.556858 3.098077 1.279068 0
M  V30 15 C 2.364305 3.767531 -0.067176 0
M  V30 16 N 2.642326 2.875001 -1.172384 0
M  V30 17 C 2.156331 1.531555 -0.970259 0
M  V30 18 C -1.707164 -2.135511 0.506453 0
M  V30 19 C -1.971734 -3.377214 1.042092 0
M  V30 20 H -4.246076 -2.182807 2.058840 0
M  V30 21 H -5.053203 -3.815836 2.370132 0
M  V30 22 H -1.063089 -6.406506 1.594985 0
M  V30 23 H 0.907067 -5.020726 0.186285 0
M  V30 24 H 1.387683 -2.760998 -0.788047 0
M  V30 25 H -0.184358 -0.070230 -1.617751 0
M  V30 26 H 0.379150 2.269867 -0.127667 0
M  V30 27 H 0.905116 1.953730 2.181503 0
M  V30 28 H 2.381380 1.026559 1.807607 0
M  V30 29 H 2.305747 3.798944 2.074571 0
M  V30 30 H 3.632653 2.843737 1.342568 0
M  V30 31 H 1.398413 4.304072 -0.161902 0
M  V30 32 H 3.156417 4.550051 -0.118087 0
M  V30 33 H 2.240926 3.324119 -2.026038 0
M  V30 34 H 3.006805 0.851339 -0.772437 0
M  V30 35 H 1.683812 1.199195 -1.916844 0
M  V30 36 H -2.405026 -1.341868 0.584363 0
M  V30 END ATOM
M  V30 BEGIN BOND
M  V30 1 1 1 2
M  V30 2 2 2 3
M  V30 3 1 3 4
M  V30 4 1 4 5
M  V30 5 2 5 6
M  V30 6 1 6 7
M  V30 7 2 7 8
M  V30 8 1 8 9
M  V30 9 1 9 10
M  V30 10 2 10 11
M  V30 11 1 10 12
M  V30 12 1 12 13
M  V30 13 1 13 14
M  V30 14 1 14 15
M  V30 15 1 15 16
M  V30 16 1 16 17
M  V30 17 1 8 18
M  V30 18 2 18 19
M  V30 19 1 19 2
M  V30 20 1 19 5
M  V30 21 1 17 12
M  V30 22 1 1 20
M  V30 23 1 1 21
M  V30 24 1 4 22
M  V30 25 1 6 23
M  V30 26 1 7 24
M  V30 27 1 9 25
M  V30 28 1 12 26
M  V30 29 1 13 27
M  V30 30 1 13 28
M  V30 31 1 14 29
M  V30 32 1 14 30
M  V30 33 1 15 31
M  V30 34 1 15 32
M  V30 35 1 16 33
M  V30 36 1 17 34
M  V30 37 1 17 35
M  V30 38 1 18 36
M  V30 END BOND
M  V30 END CTAB
M  END
>  <Dataset>  (742) 
ChEMBL_Kinases

>  <Ligand_Instance>  (742) 
nan

>  <PDB_ID>  (742) 
nan

>  <Standardized_SMILES>  (742) 
Nc1n[nH]c2ccc(NC(=O)C3CCCNC3)cc12

>  <Name>  (742) 
nan

>  <Pocket>  (742) 
nan

>  <ATP_Site>  (742) 
nan

>  <Peripheral>  (742) 
nan

>  <Num_H_Atoms_ProtBoundConf>  (742) 
nan

>  <Num_Resolved_Atoms>  (742) 
nan

>  <Num_Not_Resolved_Atoms>  (742) 
nan

$$$$
CHEMBL4170540
     RDKit          3D

  0  0  0  0  0  0  0  0  0  0999 V3000
M  V30 BEGIN CTAB
M  V30 COUNTS 122 130 0 0 0
M  V30 BEGIN ATOM
M  V30 1 C 1.564338 -1.828521 -1.274649 0
M  V30 2 N 0.257889 -1.187060 -1.483444 0
M  V30 3 C -0.825258 -1.907247 -2.110582 0
M  V30 4 O -1.998303 -1.508669 -2.362146 0
M  V30 5 C -0.529239 -3.329177 -2.524433 0
M  V30 6 C -1.699764 -3.935577 -3.221172 0
M  V30 7 O -1.470752 -5.233593 -3.608527 0
M  V30 8 C -1.179794 -6.067633 -2.545129 0
M  V30 9 C -0.981512 -7.518609 -3.011529 0
M  V30 10 O -0.687835 -8.328486 -1.914826 0
M  V30 11 C -0.531430 -9.650870 -2.317603 0
M  V30 12 C -0.200986 -10.550372 -1.141120 0
M  V30 13 N 1.032664 -10.155733 -0.485714 0
M  V30 14 C 1.678512 -10.706319 0.678960 0
M  V30 15 C 0.988662 -11.773345 1.249295 0
M  V30 16 C 1.596074 -12.304199 2.373342 0
M  V30 17 C 2.775771 -11.852100 2.914732 0
M  V30 18 C 3.381342 -10.789087 2.272614 0
M  V30 19 C 2.862074 -10.192499 1.154665 0
M  V30 20 C 3.740103 -9.099160 0.712242 0
M  V30 21 O 3.525046 -8.378679 -0.277888 0
M  V30 22 N 4.847766 -9.019308 1.596260 0
M  V30 23 C 5.980301 -8.106076 1.564836 0
M  V30 24 C 5.609279 -6.666868 1.591049 0
M  V30 25 C 5.895088 -5.970508 0.291046 0
M  V30 26 C 7.383682 -6.024487 0.069589 0
M  V30 27 O 8.335341 -5.195747 -0.016939 0
M  V30 28 N 7.776339 -7.405362 -0.077008 0
M  V30 29 C 6.821475 -8.365804 0.350728 0
M  V30 30 O 6.647617 -9.466430 -0.272775 0
M  V30 31 C 4.615321 -10.065400 2.553317 0
M  V30 32 O 5.371608 -10.336238 3.518982 0
M  V30 33 C 0.090934 0.185654 -1.040040 0 CFG=1
M  V30 34 C -0.304845 1.021206 -2.211876 0
M  V30 35 C -0.630116 2.451951 -1.837562 0
M  V30 36 C -1.625852 2.530573 -0.719568 0 CFG=1
M  V30 37 C -2.970940 2.099664 -1.246121 0
M  V30 38 C -1.177967 1.690080 0.457833 0 CFG=1
M  V30 39 C -2.101816 1.809433 1.623614 0
M  V30 40 C -2.256129 3.238106 2.033197 0
M  V30 41 C -2.635502 4.161561 0.886951 0 CFG=2
M  V30 42 C -1.639536 3.958036 -0.235663 0 CFG=2
M  V30 43 C -1.928074 4.946473 -1.315823 0
M  V30 44 C -1.665142 6.344836 -0.740154 0
M  V30 45 C -2.713160 6.618394 0.274760 0 CFG=2
M  V30 46 C -4.131220 6.519202 -0.228060 0
M  V30 47 C -2.469759 7.797885 1.140970 0 CFG=1
M  V30 48 C -2.766913 9.126757 0.703209 0
M  V30 49 C -1.730925 10.044766 0.985093 0
M  V30 50 C -1.786414 11.407858 0.653574 0
M  V30 51 C -2.898320 11.891207 0.021451 0
M  V30 52 C -3.000737 13.220334 -0.324212 0
M  V30 53 C -4.143495 13.642723 -0.957398 0
M  V30 54 N -5.160493 12.783280 -1.244526 0
M  V30 55 C -5.082761 11.477709 -0.915088 0
M  V30 56 C -3.941332 11.040297 -0.278884 0
M  V30 57 C -3.812099 9.732151 0.075554 0
M  V30 58 C -3.338598 7.491865 2.383415 0
M  V30 59 C -3.502490 5.980157 2.390772 0
M  V30 60 C -2.491667 5.545272 1.371366 0 CFG=1
M  V30 61 C -0.958158 0.247769 0.050992 0
M  V30 62 H 1.778507 -1.834430 -0.188185 0
M  V30 63 H 2.324962 -1.249361 -1.825902 0
M  V30 64 H 1.538513 -2.847609 -1.677827 0
M  V30 65 H -0.238342 -3.832130 -1.585115 0
M  V30 66 H 0.319663 -3.244513 -3.251398 0
M  V30 67 H -2.641240 -3.820168 -2.646222 0
M  V30 68 H -1.854129 -3.338631 -4.160558 0
M  V30 69 H -0.177772 -5.759504 -2.123619 0
M  V30 70 H -1.960553 -6.037985 -1.769190 0
M  V30 71 H -1.960896 -7.870369 -3.447010 0
M  V30 72 H -0.227625 -7.599139 -3.803473 0
M  V30 73 H 0.180252 -9.729031 -3.142688 0
M  V30 74 H -1.533974 -9.999077 -2.683990 0
M  V30 75 H -0.079537 -11.582173 -1.508025 0
M  V30 76 H -1.040728 -10.509072 -0.426031 0
M  V30 77 H 1.526969 -9.334060 -0.942255 0
M  V30 78 H 0.073646 -12.182780 0.892471 0
M  V30 79 H 1.171798 -13.140156 2.924403 0
M  V30 80 H 3.236773 -12.286416 3.803023 0
M  V30 81 H 6.643723 -8.361051 2.428595 0
M  V30 82 H 4.576200 -6.475679 1.954067 0
M  V30 83 H 6.270686 -6.154663 2.353345 0
M  V30 84 H 5.435642 -6.454629 -0.595556 0
M  V30 85 H 5.554654 -4.906752 0.327151 0
M  V30 86 H 8.692081 -7.782606 -0.463929 0
M  V30 87 H 1.054322 0.523688 -0.585094 0
M  V30 88 H -1.167458 0.596128 -2.713164 0
M  V30 89 H 0.586553 1.072420 -2.896356 0
M  V30 90 H -1.116798 2.889204 -2.744828 0
M  V30 91 H 0.251554 3.050589 -1.578601 0
M  V30 92 H -3.724894 2.041581 -0.436835 0
M  V30 93 H -3.245941 2.803167 -2.058335 0
M  V30 94 H -2.862833 1.097127 -1.705133 0
M  V30 95 H -0.178787 2.097977 0.757328 0
M  V30 96 H -3.098733 1.382479 1.418080 0
M  V30 97 H -1.619998 1.281957 2.486960 0
M  V30 98 H -3.064765 3.300030 2.788147 0
M  V30 99 H -1.289926 3.608194 2.488588 0
M  V30 100 H -3.644617 3.842182 0.570442 0
M  V30 101 H -0.618255 4.163628 0.143728 0
M  V30 102 H -1.218863 4.833254 -2.151786 0
M  V30 103 H -2.954850 4.838665 -1.710695 0
M  V30 104 H -0.688672 6.310801 -0.239583 0
M  V30 105 H -1.637375 7.014376 -1.615961 0
M  V30 106 H -4.824018 6.868535 0.562319 0
M  V30 107 H -4.293997 7.001961 -1.210287 0
M  V30 108 H -4.436792 5.444447 -0.381514 0
M  V30 109 H -1.387365 7.723958 1.469652 0
M  V30 110 H -0.772471 9.824330 1.485977 0
M  V30 111 H -1.001663 12.118031 0.867696 0
M  V30 112 H -2.191851 13.933561 -0.102422 0
M  V30 113 H -4.236433 14.702978 -1.238324 0
M  V30 114 H -5.891568 10.774414 -1.142212 0
M  V30 115 H -4.617478 9.083350 -0.154170 0
M  V30 116 H -4.357592 7.911940 2.272289 0
M  V30 117 H -2.794778 7.872962 3.272462 0
M  V30 118 H -3.147446 5.606781 3.390061 0
M  V30 119 H -4.540965 5.660113 2.166361 0
M  V30 120 H -1.488517 5.704541 1.768436 0
M  V30 121 H -1.877947 -0.275198 -0.199708 0
M  V30 122 H -0.527232 -0.268602 0.935003 0
M  V30 END ATOM
M  V30 BEGIN BOND
M  V30 1 1 1 2
M  V30 2 1 2 3
M  V30 3 2 3 4
M  V30 4 1 3 5
M  V30 5 1 5 6
M  V30 6 1 6 7
M  V30 7 1 7 8
M  V30 8 1 8 9
M  V30 9 1 9 10
M  V30 10 1 10 11
M  V30 11 1 11 12
M  V30 12 1 12 13
M  V30 13 1 13 14
M  V30 14 2 14 15
M  V30 15 1 15 16
M  V30 16 2 16 17
M  V30 17 1 17 18
M  V30 18 2 18 19
M  V30 19 1 19 20
M  V30 20 2 20 21
M  V30 21 1 20 22
M  V30 22 1 22 23
M  V30 23 1 23 24
M  V30 24 1 24 25
M  V30 25 1 25 26
M  V30 26 2 26 27
M  V30 27 1 26 28
M  V30 28 1 28 29
M  V30 29 2 29 30
M  V30 30 1 22 31
M  V30 31 2 31 32
M  V30 32 1 2 33
M  V30 33 1 33 34
M  V30 34 1 34 35
M  V30 35 1 35 36
M  V30 36 1 36 37 CFG=3
M  V30 37 1 36 38
M  V30 38 1 38 39
M  V30 39 1 39 40
M  V30 40 1 40 41
M  V30 41 1 41 42
M  V30 42 1 42 43
M  V30 43 1 43 44
M  V30 44 1 44 45
M  V30 45 1 45 46 CFG=3
M  V30 46 1 45 47
M  V30 47 1 47 48
M  V30 48 2 48 49
M  V30 49 1 49 50
M  V30 50 2 50 51
M  V30 51 1 51 52
M  V30 52 2 52 53
M  V30 53 1 53 54
M  V30 54 2 54 55
M  V30 55 1 55 56
M  V30 56 2 56 57
M  V30 57 1 47 58
M  V30 58 1 58 59
M  V30 59 1 59 60
M  V30 60 1 38 61
M  V30 61 1 19 14
M  V30 62 1 29 23
M  V30 63 1 61 33
M  V30 64 1 31 18
M  V30 65 1 42 36
M  V30 66 1 60 45
M  V30 67 1 60 41
M  V30 68 1 57 48
M  V30 69 1 56 51
M  V30 70 1 1 62
M  V30 71 1 1 63
M  V30 72 1 1 64
M  V30 73 1 5 65
M  V30 74 1 5 66
M  V30 75 1 6 67
M  V30 76 1 6 68
M  V30 77 1 8 69
M  V30 78 1 8 70
M  V30 79 1 9 71
M  V30 80 1 9 72
M  V30 81 1 11 73
M  V30 82 1 11 74
M  V30 83 1 12 75
M  V30 84 1 12 76
M  V30 85 1 13 77
M  V30 86 1 15 78
M  V30 87 1 16 79
M  V30 88 1 17 80
M  V30 89 1 23 81
M  V30 90 1 24 82
M  V30 91 1 24 83
M  V30 92 1 25 84
M  V30 93 1 25 85
M  V30 94 1 28 86
M  V30 95 1 33 87 CFG=1
M  V30 96 1 34 88
M  V30 97 1 34 89
M  V30 98 1 35 90
M  V30 99 1 35 91
M  V30 100 1 37 92
M  V30 101 1 37 93
M  V30 102 1 37 94
M  V30 103 1 38 95 CFG=1
M  V30 104 1 39 96
M  V30 105 1 39 97
M  V30 106 1 40 98
M  V30 107 1 40 99
M  V30 108 1 41 100 CFG=3
M  V30 109 1 42 101 CFG=1
M  V30 110 1 43 102
M  V30 111 1 43 103
M  V30 112 1 44 104
M  V30 113 1 44 105
M  V30 114 1 46 106
M  V30 115 1 46 107
M  V30 116 1 46 108
M  V30 117 1 47 109 CFG=1
M  V30 118 1 49 110
M  V30 119 1 50 111
M  V30 120 1 52 112
M  V30 121 1 53 113
M  V30 122 1 55 114
M  V30 123 1 57 115
M  V30 124 1 58 116
M  V30 125 1 58 117
M  V30 126 1 59 118
M  V30 127 1 59 119
M  V30 128 1 60 120 CFG=1
M  V30 129 1 61 121
M  V30 130 1 61 122
M  V30 END BOND
M  V30 END CTAB
M  END
>  <Dataset>  (743) 
ChEMBL_Kinases

>  <Ligand_Instance>  (743) 
nan

>  <PDB_ID>  (743) 
nan

>  <Standardized_SMILES>  (743) 
CN(C(=O)CCOCCOCCNc1cccc2c1C(=O)N(C1CCC(=O)NC1=O)C2=O)[C@H]1CC[C@@]2(C)[C@@H](CC[C@@H]3[C@@H]2CC[C@]2(C)[C@@H](c4ccc5ccncc5c4)CC[C@@H]32)C1

>  <Name>  (743) 
nan

>  <Pocket>  (743) 
nan

>  <ATP_Site>  (743) 
nan

>  <Peripheral>  (743) 
nan

>  <Num_H_Atoms_ProtBoundConf>  (743) 
nan

>  <Num_Resolved_Atoms>  (743) 
nan

>  <Num_Not_Resolved_Atoms>  (743) 
nan

$$$$
CHEMBL4170505
     RDKit          3D

  0  0  0  0  0  0  0  0  0  0999 V3000
M  V30 BEGIN CTAB
M  V30 COUNTS 63 68 0 0 0
M  V30 BEGIN ATOM
M  V30 1 C 1.869205 -4.114193 4.235815 0
M  V30 2 C 1.346727 -3.535717 2.969267 0
M  V30 3 N 0.226409 -3.917003 2.333303 0
M  V30 4 N 0.073840 -3.184794 1.243882 0
M  V30 5 C -0.932068 -3.204410 0.248094 0
M  V30 6 C -2.133010 -2.537841 0.201521 0
M  V30 7 C -3.060431 -2.614081 -0.810734 0
M  V30 8 C -2.754362 -3.442872 -1.888185 0
M  V30 9 C -1.550914 -4.124227 -1.864509 0
M  V30 10 C -0.630395 -4.036783 -0.840103 0
M  V30 11 C 1.094597 -2.297058 1.133052 0
M  V30 12 O 1.431105 -1.327207 0.235561 0
M  V30 13 C 0.800835 -0.901676 -0.881660 0
M  V30 14 C -0.034270 0.170016 -0.515861 0
M  V30 15 C -0.826917 0.832232 -1.465221 0
M  V30 16 C -0.787074 0.423350 -2.790125 0
M  V30 17 C -1.589927 1.094507 -3.810453 0
M  V30 18 N -2.420793 2.134503 -3.561140 0
M  V30 19 C -3.013068 2.532192 -4.700084 0
M  V30 20 C -3.924232 3.541659 -4.940698 0
M  V30 21 C -4.375365 3.738628 -6.229351 0
M  V30 22 N -5.311761 4.763044 -6.533475 0 CHG=1 VAL=4
M  V30 23 O -5.737310 5.488709 -5.593755 0
M  V30 24 O -5.679287 4.874335 -7.852055 0 CHG=-1 VAL=1
M  V30 25 C -3.897464 2.916917 -7.230698 0
M  V30 26 C -2.986888 1.912241 -6.973527 0
M  V30 27 C -2.518579 1.692306 -5.696391 0
M  V30 28 N -1.656757 0.829016 -5.128636 0
M  V30 29 C 0.035454 -0.641816 -3.180338 0
M  V30 30 C 0.791322 -1.255807 -2.210311 0
M  V30 31 C 1.925592 -2.514709 2.244206 0
M  V30 32 C 3.170314 -1.775539 2.557632 0
M  V30 33 N 2.779409 -0.744600 3.168463 0
M  V30 34 N 3.543932 0.294756 3.689726 0
M  V30 35 C 2.945949 1.571578 3.439387 0
M  V30 36 C 1.753331 1.725690 2.755921 0
M  V30 37 C 1.154452 2.953726 2.502937 0
M  V30 38 C 1.779089 4.091419 2.956312 0
M  V30 39 C 2.958904 4.003336 3.637566 0
M  V30 40 C 3.516142 2.764473 3.865489 0
M  V30 41 H 1.335157 -5.046786 4.507479 0
M  V30 42 H 2.922568 -4.394145 4.063337 0
M  V30 43 H 1.761355 -3.429947 5.092261 0
M  V30 44 H -2.309981 -1.909953 1.069389 0
M  V30 45 H -3.966939 -2.036817 -0.724488 0
M  V30 46 H -3.459968 -3.516795 -2.685159 0
M  V30 47 H -1.307572 -4.773505 -2.705672 0
M  V30 48 H 0.277920 -4.603434 -0.909692 0
M  V30 49 H -0.195770 0.622673 0.454370 0
M  V30 50 H -1.489112 1.657919 -1.264411 0
M  V30 51 H -4.302140 4.189958 -4.152757 0
M  V30 52 H -4.232782 3.046176 -8.252913 0
M  V30 53 H -2.593804 1.256566 -7.721134 0
M  V30 54 H -1.140058 0.087832 -5.640834 0
M  V30 55 H 0.114720 -1.010495 -4.182568 0
M  V30 56 H 1.476773 -2.096197 -2.356027 0
M  V30 57 H 4.232592 -1.891535 2.403125 0
M  V30 58 H 4.440063 0.305704 4.209024 0
M  V30 59 H 1.233592 0.865964 2.385201 0
M  V30 60 H 0.205426 2.999467 1.953786 0
M  V30 61 H 1.274104 5.035721 2.735639 0
M  V30 62 H 3.415085 4.923844 3.976098 0
M  V30 63 H 4.435245 2.755030 4.402154 0
M  V30 END ATOM
M  V30 BEGIN BOND
M  V30 1 1 1 2
M  V30 2 2 2 3
M  V30 3 1 3 4
M  V30 4 1 4 5
M  V30 5 2 5 6
M  V30 6 1 6 7
M  V30 7 2 7 8
M  V30 8 1 8 9
M  V30 9 2 9 10
M  V30 10 1 4 11
M  V30 11 1 11 12
M  V30 12 1 12 13
M  V30 13 2 13 14
M  V30 14 1 14 15
M  V30 15 2 15 16
M  V30 16 1 16 17
M  V30 17 2 17 18
M  V30 18 1 18 19
M  V30 19 2 19 20
M  V30 20 1 20 21
M  V30 21 1 21 22
M  V30 22 2 22 23
M  V30 23 1 22 24
M  V30 24 2 21 25
M  V30 25 1 25 26
M  V30 26 2 26 27
M  V30 27 1 27 28
M  V30 28 1 16 29
M  V30 29 2 29 30
M  V30 30 2 11 31
M  V30 31 1 31 32
M  V30 32 2 32 33
M  V30 33 1 33 34
M  V30 34 1 34 35
M  V30 35 2 35 36
M  V30 36 1 36 37
M  V30 37 2 37 38
M  V30 38 1 38 39
M  V30 39 2 39 40
M  V30 40 1 31 2
M  V30 41 1 40 35
M  V30 42 1 10 5
M  V30 43 1 30 13
M  V30 44 1 28 17
M  V30 45 1 27 19
M  V30 46 1 1 41
M  V30 47 1 1 42
M  V30 48 1 1 43
M  V30 49 1 6 44
M  V30 50 1 7 45
M  V30 51 1 8 46
M  V30 52 1 9 47
M  V30 53 1 10 48
M  V30 54 1 14 49
M  V30 55 1 15 50
M  V30 56 1 20 51
M  V30 57 1 25 52
M  V30 58 1 26 53
M  V30 59 1 28 54
M  V30 60 1 29 55
M  V30 61 1 30 56
M  V30 62 1 32 57
M  V30 63 1 34 58
M  V30 64 1 36 59
M  V30 65 1 37 60
M  V30 66 1 38 61
M  V30 67 1 39 62
M  V30 68 1 40 63
M  V30 END BOND
M  V30 END CTAB
M  END
>  <Dataset>  (744) 
ChEMBL_Kinases

>  <Ligand_Instance>  (744) 
nan

>  <PDB_ID>  (744) 
nan

>  <Standardized_SMILES>  (744) 
Cc1nn(-c2ccccc2)c(Oc2ccc(-c3nc4cc([N+](=O)[O-])ccc4[nH]3)cc2)c1/C=N/Nc1ccccc1

>  <Name>  (744) 
nan

>  <Pocket>  (744) 
nan

>  <ATP_Site>  (744) 
nan

>  <Peripheral>  (744) 
nan

>  <Num_H_Atoms_ProtBoundConf>  (744) 
nan

>  <Num_Resolved_Atoms>  (744) 
nan

>  <Num_Not_Resolved_Atoms>  (744) 
nan

$$$$
CHEMBL4170480
     RDKit          3D

  0  0  0  0  0  0  0  0  0  0999 V3000
M  V30 BEGIN CTAB
M  V30 COUNTS 55 59 0 0 0
M  V30 BEGIN ATOM
M  V30 1 N 1.314721 -1.899620 2.928033 0
M  V30 2 C 2.220183 -1.546581 3.973446 0 CFG=1
M  V30 3 C 3.476871 -2.419104 3.890102 0
M  V30 4 C 3.971620 -2.301180 2.496640 0
M  V30 5 C 3.710870 -1.036554 1.789097 0
M  V30 6 C 3.389473 0.178343 2.584223 0 CFG=1
M  V30 7 C 2.416888 1.016417 1.782919 0
M  V30 8 O 1.314659 1.394404 2.333734 0
M  V30 9 N 2.469456 1.500750 0.463602 0
M  V30 10 C 1.216417 2.212315 0.335003 0
M  V30 11 C 1.003426 3.559972 0.518839 0
M  V30 12 C -0.270086 4.055888 0.381761 0
M  V30 13 C -1.281943 3.182706 0.066371 0
M  V30 14 N -2.619603 3.350487 -0.117262 0
M  V30 15 N -3.168759 2.193493 -0.389516 0
M  V30 16 C -2.289832 1.182222 -0.414872 0
M  V30 17 N -2.583183 -0.181681 -0.653991 0
M  V30 18 C -2.878692 -0.944428 -1.790423 0
M  V30 19 C -2.947615 -0.373607 -3.039005 0
M  V30 20 C -3.260756 -1.166948 -4.132551 0
M  V30 21 C -3.500161 -2.531891 -3.947458 0
M  V30 22 C -3.421569 -3.067003 -2.681702 0
M  V30 23 C -3.671494 -4.414133 -2.614675 0
M  V30 24 C -3.618320 -5.061998 -1.395984 0
M  V30 25 C -3.311527 -4.321659 -0.274390 0
M  V30 26 C -3.071494 -2.972075 -0.407042 0
M  V30 27 C -3.110211 -2.286488 -1.578463 0
M  V30 28 C -1.103812 1.832567 -0.123426 0
M  V30 29 C 0.194317 1.319396 0.013518 0
M  V30 30 C 2.733012 -0.128835 3.913795 0
M  V30 31 H 1.541816 -2.834781 2.490490 0
M  V30 32 H 0.314436 -1.870633 3.152233 0
M  V30 33 H 1.761573 -1.715843 4.943523 0
M  V30 34 H 4.201592 -2.095582 4.633646 0
M  V30 35 H 3.214358 -3.463525 4.105353 0
M  V30 36 H 3.609449 -3.180084 1.905278 0
M  V30 37 H 5.093046 -2.445790 2.544410 0
M  V30 38 H 2.831667 -1.218639 1.098494 0
M  V30 39 H 4.546292 -0.833770 1.050090 0
M  V30 40 H 4.324551 0.708871 2.816560 0
M  V30 41 H 3.353723 1.220608 -0.036100 0
M  V30 42 H 1.883194 4.134127 0.766712 0
M  V30 43 H -0.433723 5.113522 0.526682 0
M  V30 44 H -3.139921 4.268968 -0.049640 0
M  V30 45 H -2.519466 -0.526069 0.313517 0
M  V30 46 H -2.756392 0.679079 -3.135142 0
M  V30 47 H -3.305676 -0.673720 -5.103110 0
M  V30 48 H -3.731179 -3.020392 -4.882508 0
M  V30 49 H -3.913351 -5.016099 -3.478414 0
M  V30 50 H -3.811108 -6.117258 -1.324771 0
M  V30 51 H -3.257331 -4.782773 0.700138 0
M  V30 52 H -2.835330 -2.435496 0.486458 0
M  V30 53 H 0.318164 0.248071 -0.146101 0
M  V30 54 H 1.904055 0.588413 4.052828 0
M  V30 55 H 3.427789 0.002686 4.766297 0
M  V30 END ATOM
M  V30 BEGIN BOND
M  V30 1 1 1 2
M  V30 2 1 2 3
M  V30 3 1 3 4
M  V30 4 1 4 5
M  V30 5 1 5 6
M  V30 6 1 6 7
M  V30 7 2 7 8
M  V30 8 1 7 9
M  V30 9 1 9 10
M  V30 10 2 10 11
M  V30 11 1 11 12
M  V30 12 2 12 13
M  V30 13 1 13 14
M  V30 14 1 14 15
M  V30 15 2 15 16
M  V30 16 1 16 17
M  V30 17 1 17 18
M  V30 18 2 18 19
M  V30 19 1 19 20
M  V30 20 2 20 21
M  V30 21 1 21 22
M  V30 22 2 22 23
M  V30 23 1 23 24
M  V30 24 2 24 25
M  V30 25 1 25 26
M  V30 26 2 26 27
M  V30 27 1 16 28
M  V30 28 2 28 29
M  V30 29 1 6 30
M  V30 30 1 30 2
M  V30 31 1 29 10
M  V30 32 1 28 13
M  V30 33 1 27 18
M  V30 34 1 27 22
M  V30 35 1 1 31
M  V30 36 1 1 32
M  V30 37 1 2 33 CFG=1
M  V30 38 1 3 34
M  V30 39 1 3 35
M  V30 40 1 4 36
M  V30 41 1 4 37
M  V30 42 1 5 38
M  V30 43 1 5 39
M  V30 44 1 6 40 CFG=1
M  V30 45 1 9 41
M  V30 46 1 11 42
M  V30 47 1 12 43
M  V30 48 1 14 44
M  V30 49 1 17 45
M  V30 50 1 19 46
M  V30 51 1 20 47
M  V30 52 1 21 48
M  V30 53 1 23 49
M  V30 54 1 24 50
M  V30 55 1 25 51
M  V30 56 1 26 52
M  V30 57 1 29 53
M  V30 58 1 30 54
M  V30 59 1 30 55
M  V30 END BOND
M  V30 END CTAB
M  END
>  <Dataset>  (745) 
ChEMBL_Kinases

>  <Ligand_Instance>  (745) 
nan

>  <PDB_ID>  (745) 
nan

>  <Standardized_SMILES>  (745) 
N[C@H]1CCC[C@@H](C(=O)Nc2ccc3[nH]nc(Nc4cccc5ccccc45)c3c2)C1

>  <Name>  (745) 
nan

>  <Pocket>  (745) 
nan

>  <ATP_Site>  (745) 
nan

>  <Peripheral>  (745) 
nan

>  <Num_H_Atoms_ProtBoundConf>  (745) 
nan

>  <Num_Resolved_Atoms>  (745) 
nan

>  <Num_Not_Resolved_Atoms>  (745) 
nan

$$$$
CHEMBL4170449
     RDKit          3D

  0  0  0  0  0  0  0  0  0  0999 V3000
M  V30 BEGIN CTAB
M  V30 COUNTS 38 41 0 0 0
M  V30 BEGIN ATOM
M  V30 1 C -1.445843 -2.180461 5.723750 0
M  V30 2 C -1.525221 -3.485162 5.223847 0
M  V30 3 C -1.200856 -3.718333 3.892002 0
M  V30 4 C -0.803443 -2.686656 3.062578 0
M  V30 5 N -0.491784 -2.968401 1.678974 0
M  V30 6 C 0.148177 -1.967134 0.900108 0
M  V30 7 N -0.190218 -0.816640 0.270975 0
M  V30 8 C 0.680634 -0.093526 -0.414184 0
M  V30 9 N 0.349087 1.120675 -1.072548 0
M  V30 10 C 0.595401 1.186421 -2.500942 0
M  V30 11 C -0.660983 1.743563 -3.133245 0
M  V30 12 O -0.791665 3.060978 -2.681941 0
M  V30 13 C -1.175188 3.054916 -1.344963 0
M  V30 14 C -0.218991 2.335822 -0.459943 0
M  V30 15 C 2.003561 -0.498263 -0.515915 0
M  V30 16 N 3.151293 -0.072866 -1.096836 0
M  V30 17 C 4.155681 -0.922325 -0.836246 0
M  V30 18 N 3.723657 -1.940453 -0.078060 0
M  V30 19 C 2.388327 -1.663770 0.109404 0
M  V30 20 N 1.440695 -2.344486 0.788610 0
M  V30 21 C -0.726787 -1.392830 3.566663 0
M  V30 22 C -1.043131 -1.130334 4.882647 0
M  V30 23 H -1.700248 -2.009077 6.760325 0
M  V30 24 H -1.831827 -4.347327 5.839325 0
M  V30 25 H -1.243111 -4.716945 3.446890 0
M  V30 26 H -0.743836 -3.899716 1.302072 0
M  V30 27 H 0.874780 0.180331 -2.900142 0
M  V30 28 H 1.426661 1.922354 -2.706860 0
M  V30 29 H -1.554736 1.173008 -2.755661 0
M  V30 30 H -0.637627 1.667645 -4.237264 0
M  V30 31 H -1.186705 4.145476 -1.030950 0
M  V30 32 H -2.212191 2.718523 -1.261265 0
M  V30 33 H -0.715491 2.078669 0.492821 0
M  V30 34 H 0.653929 3.024174 -0.257278 0
M  V30 35 H 5.188609 -0.933655 -1.113159 0
M  V30 36 H 4.188616 -2.786035 0.326904 0
M  V30 37 H -0.413795 -0.557111 2.938380 0
M  V30 38 H -0.980711 -0.102183 5.273304 0
M  V30 END ATOM
M  V30 BEGIN BOND
M  V30 1 2 1 2
M  V30 2 1 2 3
M  V30 3 2 3 4
M  V30 4 1 4 5
M  V30 5 1 5 6
M  V30 6 2 6 7
M  V30 7 1 7 8
M  V30 8 1 8 9
M  V30 9 1 9 10
M  V30 10 1 10 11
M  V30 11 1 11 12
M  V30 12 1 12 13
M  V30 13 1 13 14
M  V30 14 2 8 15
M  V30 15 1 15 16
M  V30 16 2 16 17
M  V30 17 1 17 18
M  V30 18 1 18 19
M  V30 19 2 19 20
M  V30 20 1 4 21
M  V30 21 2 21 22
M  V30 22 1 22 1
M  V30 23 1 20 6
M  V30 24 1 14 9
M  V30 25 1 19 15
M  V30 26 1 1 23
M  V30 27 1 2 24
M  V30 28 1 3 25
M  V30 29 1 5 26
M  V30 30 1 10 27
M  V30 31 1 10 28
M  V30 32 1 11 29
M  V30 33 1 11 30
M  V30 34 1 13 31
M  V30 35 1 13 32
M  V30 36 1 14 33
M  V30 37 1 14 34
M  V30 38 1 17 35
M  V30 39 1 18 36
M  V30 40 1 21 37
M  V30 41 1 22 38
M  V30 END BOND
M  V30 END CTAB
M  END
>  <Dataset>  (746) 
ChEMBL_Kinases

>  <Ligand_Instance>  (746) 
nan

>  <PDB_ID>  (746) 
nan

>  <Standardized_SMILES>  (746) 
c1ccc(Nc2nc(N3CCOCC3)c3nc[nH]c3n2)cc1

>  <Name>  (746) 
nan

>  <Pocket>  (746) 
nan

>  <ATP_Site>  (746) 
nan

>  <Peripheral>  (746) 
nan

>  <Num_H_Atoms_ProtBoundConf>  (746) 
nan

>  <Num_Resolved_Atoms>  (746) 
nan

>  <Num_Not_Resolved_Atoms>  (746) 
nan

$$$$
CHEMBL4170388
     RDKit          3D

  0  0  0  0  0  0  0  0  0  0999 V3000
M  V30 BEGIN CTAB
M  V30 COUNTS 63 68 0 0 0
M  V30 BEGIN ATOM
M  V30 1 C 1.622827 2.849765 -0.273268 0
M  V30 2 C 1.051764 2.327179 1.018232 0 CFG=2
M  V30 3 C -0.059048 3.245418 1.450329 0
M  V30 4 C 0.490171 4.552853 1.936181 0
M  V30 5 C 1.312695 4.283552 3.177278 0 CFG=2
M  V30 6 O 1.730843 5.511190 3.676332 0
M  V30 7 C 2.489558 3.420534 2.875034 0
M  V30 8 C 2.161302 2.268425 1.993667 0
M  V30 9 C 2.927694 1.218519 2.155973 0
M  V30 10 C 2.763566 -0.015715 1.381771 0
M  V30 11 C 1.579657 -0.072348 0.485941 0 CFG=2
M  V30 12 C 0.495076 0.959024 0.852344 0 CFG=2
M  V30 13 C -0.523026 0.875188 -0.234181 0
M  V30 14 C -1.197453 -0.500848 -0.263717 0
M  V30 15 C -0.179153 -1.530381 -0.537246 0 CFG=2
M  V30 16 C 0.457540 -1.432508 -1.901346 0
M  V30 17 C -0.521430 -2.934428 -0.337063 0
M  V30 18 C -1.677608 -3.794582 -0.556989 0
M  V30 19 C -2.844830 -3.353006 -1.137317 0
M  V30 20 C -3.971433 -4.114914 -1.360016 0
M  V30 21 C -3.985837 -5.429740 -0.992580 0
M  V30 22 C -4.910841 -6.449042 -1.063787 0
M  V30 23 N -6.219444 -6.324439 -1.608907 0
M  V30 24 N -4.295883 -7.514506 -0.521973 0
M  V30 25 N -3.074531 -7.237738 -0.124688 0
M  V30 26 C -2.850475 -5.942751 -0.404765 0
M  V30 27 C -1.762399 -5.125322 -0.212660 0
M  V30 28 C 0.549473 -3.571212 0.195997 0
M  V30 29 C 1.650907 -2.593675 0.367393 0
M  V30 30 C 0.873834 -1.357206 0.568024 0 CFG=1
M  V30 31 H 0.768454 3.087697 -0.952022 0
M  V30 32 H 2.383044 2.207654 -0.717175 0
M  V30 33 H 2.080100 3.854457 -0.053579 0
M  V30 34 H -0.708486 3.466248 0.576549 0
M  V30 35 H -0.655649 2.810421 2.279986 0
M  V30 36 H 1.049670 5.107394 1.177539 0
M  V30 37 H -0.336075 5.224952 2.269885 0
M  V30 38 H 0.643400 3.781563 3.922972 0
M  V30 39 H 2.667013 5.422350 3.958328 0
M  V30 40 H 2.955083 3.115714 3.841426 0
M  V30 41 H 3.259601 4.061773 2.364247 0
M  V30 42 H 3.760007 1.143164 2.872005 0
M  V30 43 H 2.763508 -0.920751 2.052961 0
M  V30 44 H 3.709135 -0.136050 0.784513 0
M  V30 45 H 1.905202 0.238541 -0.514105 0
M  V30 46 H 0.062236 0.586948 1.787244 0
M  V30 47 H -0.100808 1.036392 -1.245681 0
M  V30 48 H -1.341695 1.629987 -0.105569 0
M  V30 49 H -2.002733 -0.374393 -1.017576 0
M  V30 50 H -1.690252 -0.739857 0.691978 0
M  V30 51 H 0.383747 -2.379650 -2.489205 0
M  V30 52 H -0.033336 -0.604463 -2.450578 0
M  V30 53 H 1.546103 -1.223784 -1.881672 0
M  V30 54 H -2.976623 -2.355172 -1.480944 0
M  V30 55 H -4.873849 -3.753183 -1.814150 0
M  V30 56 H -7.126018 -6.053018 -1.132639 0
M  V30 57 H -6.260645 -6.539831 -2.637649 0
M  V30 58 H -2.404453 -7.900951 0.324557 0
M  V30 59 H -0.907305 -5.607228 0.257703 0
M  V30 60 H 0.803971 -4.593277 0.522056 0
M  V30 61 H 2.298896 -2.775253 1.237465 0
M  V30 62 H 2.305988 -2.555660 -0.540947 0
M  V30 63 H 0.333790 -1.412589 1.528378 0
M  V30 END ATOM
M  V30 BEGIN BOND
M  V30 1 1 2 1 CFG=3
M  V30 2 1 2 3
M  V30 3 1 3 4
M  V30 4 1 4 5
M  V30 5 1 5 6
M  V30 6 1 5 7
M  V30 7 1 7 8
M  V30 8 2 8 9
M  V30 9 1 9 10
M  V30 10 1 10 11
M  V30 11 1 11 12
M  V30 12 1 12 13
M  V30 13 1 13 14
M  V30 14 1 14 15
M  V30 15 1 15 16 CFG=3
M  V30 16 1 15 17
M  V30 17 1 17 18
M  V30 18 2 18 19
M  V30 19 1 19 20
M  V30 20 2 20 21
M  V30 21 1 21 22
M  V30 22 1 22 23
M  V30 23 2 22 24
M  V30 24 1 24 25
M  V30 25 1 25 26
M  V30 26 2 26 27
M  V30 27 2 17 28
M  V30 28 1 28 29
M  V30 29 1 29 30
M  V30 30 1 8 2
M  V30 31 1 30 11
M  V30 32 1 12 2
M  V30 33 1 30 15
M  V30 34 1 27 18
M  V30 35 1 26 21
M  V30 36 1 1 31
M  V30 37 1 1 32
M  V30 38 1 1 33
M  V30 39 1 3 34
M  V30 40 1 3 35
M  V30 41 1 4 36
M  V30 42 1 4 37
M  V30 43 1 5 38 CFG=1
M  V30 44 1 6 39
M  V30 45 1 7 40
M  V30 46 1 7 41
M  V30 47 1 9 42
M  V30 48 1 10 43
M  V30 49 1 10 44
M  V30 50 1 11 45 CFG=3
M  V30 51 1 12 46 CFG=1
M  V30 52 1 13 47
M  V30 53 1 13 48
M  V30 54 1 14 49
M  V30 55 1 14 50
M  V30 56 1 16 51
M  V30 57 1 16 52
M  V30 58 1 16 53
M  V30 59 1 19 54
M  V30 60 1 20 55
M  V30 61 1 23 56
M  V30 62 1 23 57
M  V30 63 1 25 58
M  V30 64 1 27 59
M  V30 65 1 28 60
M  V30 66 1 29 61
M  V30 67 1 29 62
M  V30 68 1 30 63 CFG=1
M  V30 END BOND
M  V30 END CTAB
M  END
>  <Dataset>  (747) 
ChEMBL_Kinases

>  <Ligand_Instance>  (747) 
nan

>  <PDB_ID>  (747) 
nan

>  <Standardized_SMILES>  (747) 
C[C@]12CC[C@H](O)CC1=CC[C@@H]1[C@@H]2CC[C@]2(C)C(c3ccc4c(N)n[nH]c4c3)=CC[C@@H]12

>  <Name>  (747) 
nan

>  <Pocket>  (747) 
nan

>  <ATP_Site>  (747) 
nan

>  <Peripheral>  (747) 
nan

>  <Num_H_Atoms_ProtBoundConf>  (747) 
nan

>  <Num_Resolved_Atoms>  (747) 
nan

>  <Num_Not_Resolved_Atoms>  (747) 
nan

$$$$
CHEMBL4786152
     RDKit          3D

  0  0  0  0  0  0  0  0  0  0999 V3000
M  V30 BEGIN CTAB
M  V30 COUNTS 54 58 0 0 0
M  V30 BEGIN ATOM
M  V30 1 O 2.670213 -0.067341 2.016939 0
M  V30 2 C 3.664512 0.150663 1.269976 0
M  V30 3 C 4.149541 -0.461129 2.516191 0
M  V30 4 C 5.295407 -1.415500 2.477361 0
M  V30 5 C 5.495023 0.010010 3.036468 0
M  V30 6 N 2.913518 0.705910 0.219081 0
M  V30 7 C 3.690713 1.116170 -0.891928 0
M  V30 8 O 4.940084 1.000023 -0.978149 0
M  V30 9 C 3.091441 1.731023 -2.074231 0
M  V30 10 C 3.716251 1.595716 -3.424007 0
M  V30 11 C 3.855274 2.875112 -2.716954 0
M  V30 12 C 1.600305 0.622571 0.749270 0
M  V30 13 C 1.145656 1.738149 1.415247 0
M  V30 14 C -0.123084 1.638180 1.929095 0
M  V30 15 C -0.877561 0.497069 1.782430 0
M  V30 16 N -2.186783 0.348501 2.311435 0
M  V30 17 C -3.200865 -0.608676 2.066739 0
M  V30 18 N -4.295027 -0.522870 2.880078 0
M  V30 19 C -5.343044 -1.352545 2.766670 0
M  V30 20 C -5.291571 -2.312366 1.793830 0
M  V30 21 C -6.465036 -3.221054 1.681081 0
M  V30 22 F -7.084034 -3.153058 0.448739 0
M  V30 23 F -6.082720 -4.530249 2.001008 0
M  V30 24 F -7.431399 -2.899345 2.609205 0
M  V30 25 C -4.217775 -2.451901 0.941165 0
M  V30 26 N -4.206419 -3.470992 -0.034463 0
M  V30 27 C -3.395515 -3.937711 -1.106071 0
M  V30 28 C -3.310801 -3.189840 -2.420213 0
M  V30 29 C -2.158214 -3.208337 -1.512967 0
M  V30 30 N -3.230469 -1.574122 1.141016 0
M  V30 31 C -0.394682 -0.604126 1.111407 0
M  V30 32 C 0.893269 -0.544607 0.571363 0
M  V30 33 H 3.383364 -0.715471 3.300419 0
M  V30 34 H 5.733146 -1.594020 1.485475 0
M  V30 35 H 5.325256 -2.251674 3.196438 0
M  V30 36 H 5.664209 0.058752 4.117924 0
M  V30 37 H 6.112002 0.700662 2.415579 0
M  V30 38 H 1.976881 1.855285 -2.043572 0
M  V30 39 H 4.553979 0.853367 -3.455600 0
M  V30 40 H 3.036065 1.464194 -4.291033 0
M  V30 41 H 4.873784 3.092737 -2.281491 0
M  V30 42 H 3.251586 3.719169 -3.119831 0
M  V30 43 H 1.694791 2.644585 1.552840 0
M  V30 44 H -0.536069 2.493662 2.467503 0
M  V30 45 H -2.389184 1.119733 3.008050 0
M  V30 46 H -6.202390 -1.275876 3.413206 0
M  V30 47 H -5.060718 -4.113819 0.000425 0
M  V30 48 H -3.352188 -5.058492 -1.229233 0
M  V30 49 H -3.254355 -3.770426 -3.363378 0
M  V30 50 H -3.983674 -2.294938 -2.542056 0
M  V30 51 H -1.257925 -3.768253 -1.807833 0
M  V30 52 H -1.947302 -2.261740 -0.974564 0
M  V30 53 H -0.882291 -1.542992 0.949594 0
M  V30 54 H 1.325786 -1.381226 0.033024 0
M  V30 END ATOM
M  V30 BEGIN BOND
M  V30 1 2 1 2
M  V30 2 1 2 3
M  V30 3 1 3 4
M  V30 4 1 4 5
M  V30 5 1 2 6
M  V30 6 1 6 7
M  V30 7 2 7 8
M  V30 8 1 7 9
M  V30 9 1 9 10
M  V30 10 1 10 11
M  V30 11 1 6 12
M  V30 12 2 12 13
M  V30 13 1 13 14
M  V30 14 2 14 15
M  V30 15 1 15 16
M  V30 16 1 16 17
M  V30 17 2 17 18
M  V30 18 1 18 19
M  V30 19 2 19 20
M  V30 20 1 20 21
M  V30 21 1 21 22
M  V30 22 1 21 23
M  V30 23 1 21 24
M  V30 24 1 20 25
M  V30 25 1 25 26
M  V30 26 1 26 27
M  V30 27 1 27 28
M  V30 28 1 28 29
M  V30 29 2 25 30
M  V30 30 1 15 31
M  V30 31 2 31 32
M  V30 32 1 5 3
M  V30 33 1 11 9
M  V30 34 1 32 12
M  V30 35 1 30 17
M  V30 36 1 29 27
M  V30 37 1 3 33
M  V30 38 1 4 34
M  V30 39 1 4 35
M  V30 40 1 5 36
M  V30 41 1 5 37
M  V30 42 1 9 38
M  V30 43 1 10 39
M  V30 44 1 10 40
M  V30 45 1 11 41
M  V30 46 1 11 42
M  V30 47 1 13 43
M  V30 48 1 14 44
M  V30 49 1 16 45
M  V30 50 1 19 46
M  V30 51 1 26 47
M  V30 52 1 27 48
M  V30 53 1 28 49
M  V30 54 1 28 50
M  V30 55 1 29 51
M  V30 56 1 29 52
M  V30 57 1 31 53
M  V30 58 1 32 54
M  V30 END BOND
M  V30 END CTAB
M  END
>  <Dataset>  (748) 
ChEMBL_Kinases

>  <Ligand_Instance>  (748) 
nan

>  <PDB_ID>  (748) 
nan

>  <Standardized_SMILES>  (748) 
O=C(C1CC1)N(C(=O)C1CC1)c1ccc(Nc2ncc(C(F)(F)F)c(NC3CC3)n2)cc1

>  <Name>  (748) 
nan

>  <Pocket>  (748) 
nan

>  <ATP_Site>  (748) 
nan

>  <Peripheral>  (748) 
nan

>  <Num_H_Atoms_ProtBoundConf>  (748) 
nan

>  <Num_Resolved_Atoms>  (748) 
nan

>  <Num_Not_Resolved_Atoms>  (748) 
nan

$$$$
CHEMBL4170221
     RDKit          3D

  0  0  0  0  0  0  0  0  0  0999 V3000
M  V30 BEGIN CTAB
M  V30 COUNTS 59 63 0 0 0
M  V30 BEGIN ATOM
M  V30 1 C 5.285923 -2.127939 2.707661 0
M  V30 2 C 4.529700 -0.863155 2.574653 0
M  V30 3 N 4.860090 0.419618 2.830538 0
M  V30 4 N 3.874304 1.248958 2.569686 0
M  V30 5 C 4.002028 2.673506 2.768240 0
M  V30 6 C 3.102589 3.407237 3.492129 0
M  V30 7 C 3.255748 4.750540 3.658173 0
M  V30 8 C 4.315242 5.442535 3.112098 0
M  V30 9 C 5.242129 4.706943 2.370185 0
M  V30 10 C 5.071841 3.355134 2.213525 0
M  V30 11 C 2.813347 0.556178 2.117939 0
M  V30 12 O 1.660813 1.201590 1.778163 0
M  V30 13 C 0.491905 0.633198 1.303258 0
M  V30 14 C -0.564532 0.198060 2.113273 0
M  V30 15 C -1.700893 -0.362190 1.519501 0
M  V30 16 C -1.745759 -0.469617 0.143451 0
M  V30 17 C -2.938151 -1.054044 -0.469757 0
M  V30 18 N -3.123175 -1.227195 -1.812151 0
M  V30 19 C -4.324987 -1.788677 -2.020594 0
M  V30 20 C -5.024857 -2.180675 -3.139776 0
M  V30 21 C -6.259726 -2.725184 -2.875038 0
M  V30 22 C -7.037650 -3.153391 -3.994705 0
M  V30 23 N -6.606955 -3.059808 -5.346334 0
M  V30 24 O -7.915154 -3.597260 -4.722000 0
M  V30 25 C -6.847786 -2.911711 -1.642756 0
M  V30 26 C -6.102534 -2.499572 -0.531771 0
M  V30 27 C -4.860197 -1.949701 -0.765770 0
M  V30 28 N -4.022774 -1.505157 0.185053 0
M  V30 29 C -0.700683 -0.038710 -0.648562 0
M  V30 30 C 0.435046 0.519030 -0.091813 0
M  V30 31 C 3.233751 -0.755707 2.125663 0
M  V30 32 C 2.387162 -1.862957 1.703576 0
M  V30 33 N 2.818397 -3.062000 1.725203 0
M  V30 34 N 2.073136 -4.195700 1.336370 0
M  V30 35 C 2.009480 -4.270396 -0.087584 0
M  V30 36 N 1.322460 -5.309645 -0.794371 0
M  V30 37 O 2.607157 -3.346582 -0.717078 0
M  V30 38 H 5.554269 -2.597350 1.738712 0
M  V30 39 H 6.234686 -2.003118 3.256731 0
M  V30 40 H 4.642728 -2.887713 3.242465 0
M  V30 41 H 2.268638 2.847530 3.918570 0
M  V30 42 H 2.479551 5.229884 4.252537 0
M  V30 43 H 4.398264 6.495928 3.265768 0
M  V30 44 H 6.066990 5.216489 1.939015 0
M  V30 45 H 5.803279 2.784547 1.630228 0
M  V30 46 H -0.421276 0.331673 3.185495 0
M  V30 47 H -2.496536 -0.686636 2.179111 0
M  V30 48 H -4.623233 -2.063070 -4.133602 0
M  V30 49 H -5.771591 -2.922271 -5.972578 0
M  V30 50 H -5.758878 -2.920619 -5.961891 0
M  V30 51 H -7.813177 -3.342977 -1.517294 0
M  V30 52 H -6.529094 -2.628973 0.452408 0
M  V30 53 H -4.139284 -1.488961 1.234573 0
M  V30 54 H -0.721756 -0.117292 -1.739943 0
M  V30 55 H 1.241991 0.849987 -0.730176 0
M  V30 56 H 1.371739 -1.808358 1.348870 0
M  V30 57 H 1.569787 -4.973622 1.827709 0
M  V30 58 H 1.330912 -6.240716 -1.262853 0
M  V30 59 H 0.364421 -4.884856 -0.832584 0
M  V30 END ATOM
M  V30 BEGIN BOND
M  V30 1 1 1 2
M  V30 2 2 2 3
M  V30 3 1 3 4
M  V30 4 1 4 5
M  V30 5 2 5 6
M  V30 6 1 6 7
M  V30 7 2 7 8
M  V30 8 1 8 9
M  V30 9 2 9 10
M  V30 10 1 4 11
M  V30 11 1 11 12
M  V30 12 1 12 13
M  V30 13 2 13 14
M  V30 14 1 14 15
M  V30 15 2 15 16
M  V30 16 1 16 17
M  V30 17 2 17 18
M  V30 18 1 18 19
M  V30 19 2 19 20
M  V30 20 1 20 21
M  V30 21 1 21 22
M  V30 22 1 22 23
M  V30 23 2 22 24
M  V30 24 2 21 25
M  V30 25 1 25 26
M  V30 26 2 26 27
M  V30 27 1 27 28
M  V30 28 1 16 29
M  V30 29 2 29 30
M  V30 30 2 11 31
M  V30 31 1 31 32
M  V30 32 2 32 33
M  V30 33 1 33 34
M  V30 34 1 34 35
M  V30 35 1 35 36
M  V30 36 2 35 37
M  V30 37 1 31 2
M  V30 38 1 10 5
M  V30 39 1 30 13
M  V30 40 1 28 17
M  V30 41 1 27 19
M  V30 42 1 1 38
M  V30 43 1 1 39
M  V30 44 1 1 40
M  V30 45 1 6 41
M  V30 46 1 7 42
M  V30 47 1 8 43
M  V30 48 1 9 44
M  V30 49 1 10 45
M  V30 50 1 14 46
M  V30 51 1 15 47
M  V30 52 1 20 48
M  V30 53 1 23 49
M  V30 54 1 23 50
M  V30 55 1 25 51
M  V30 56 1 26 52
M  V30 57 1 28 53
M  V30 58 1 29 54
M  V30 59 1 30 55
M  V30 60 1 32 56
M  V30 61 1 34 57
M  V30 62 1 36 58
M  V30 63 1 36 59
M  V30 END BOND
M  V30 END CTAB
M  END
>  <Dataset>  (749) 
ChEMBL_Kinases

>  <Ligand_Instance>  (749) 
nan

>  <PDB_ID>  (749) 
nan

>  <Standardized_SMILES>  (749) 
Cc1nn(-c2ccccc2)c(Oc2ccc(-c3nc4cc(C(N)=O)ccc4[nH]3)cc2)c1/C=N/NC(N)=O

>  <Name>  (749) 
nan

>  <Pocket>  (749) 
nan

>  <ATP_Site>  (749) 
nan

>  <Peripheral>  (749) 
nan

>  <Num_H_Atoms_ProtBoundConf>  (749) 
nan

>  <Num_Resolved_Atoms>  (749) 
nan

>  <Num_Not_Resolved_Atoms>  (749) 
nan

$$$$
CHEMBL4786165
     RDKit          3D

  0  0  0  0  0  0  0  0  0  0999 V3000
M  V30 BEGIN CTAB
M  V30 COUNTS 63 68 0 0 0
M  V30 BEGIN ATOM
M  V30 1 C 4.115041 2.074232 4.684330 0
M  V30 2 N 4.768341 0.905446 4.185565 0
M  V30 3 C 3.952626 0.074876 3.328759 0
M  V30 4 C 2.728034 -0.445406 3.992196 0
M  V30 5 C 1.606232 0.515584 3.659142 0
M  V30 6 C 2.073610 1.212489 2.440144 0
M  V30 7 C 3.417710 0.966459 2.241988 0
M  V30 8 C 4.132125 1.486467 1.180143 0
M  V30 9 C 3.481069 2.287101 0.274566 0
M  V30 10 C 2.126208 2.568699 0.424896 0
M  V30 11 F 1.484929 3.360753 -0.472218 0
M  V30 12 C 1.449162 2.018760 1.515176 0
M  V30 13 C 0.017107 2.338653 1.639493 0
M  V30 14 C -0.887223 1.500021 1.024556 0
M  V30 15 C -2.263113 1.726740 1.090006 0
M  V30 16 C -2.657320 2.833964 1.803007 0
M  V30 17 C -1.767800 3.673223 2.417391 0
M  V30 18 N -0.433820 3.406012 2.322407 0
M  V30 19 C -4.041064 2.858427 1.733242 0
M  V30 20 N -4.425174 1.796445 1.001895 0
M  V30 21 N -3.370213 1.101592 0.604674 0
M  V30 22 C -3.201531 -0.078668 -0.170833 0
M  V30 23 C -2.803625 -0.091024 -1.495739 0
M  V30 24 C -2.657423 -1.275853 -2.196167 0
M  V30 25 C -2.901178 -2.496931 -1.606938 0
M  V30 26 N -2.728021 -3.668016 -2.386738 0
M  V30 27 C -2.253508 -3.570756 -3.733966 0
M  V30 28 C -1.699231 -4.954241 -4.104956 0
M  V30 29 N -0.920785 -5.513737 -3.047846 0
M  V30 30 C 0.313691 -4.787221 -2.811863 0
M  V30 31 C -1.658463 -5.720489 -1.828656 0
M  V30 32 C -2.996756 -5.021821 -1.944138 0
M  V30 33 C -3.295748 -2.459424 -0.288762 0
M  V30 34 C -3.450371 -1.297215 0.435468 0
M  V30 35 H 3.543402 1.840900 5.593808 0
M  V30 36 H 3.558950 2.647254 3.917752 0
M  V30 37 H 4.929504 2.773616 5.028264 0
M  V30 38 H 5.712631 1.063686 3.824337 0
M  V30 39 H 4.580280 -0.684957 2.853536 0
M  V30 40 H 2.478211 -1.421479 3.484032 0
M  V30 41 H 2.796033 -0.660488 5.059814 0
M  V30 42 H 0.669035 -0.000378 3.414920 0
M  V30 43 H 1.497180 1.293277 4.454788 0
M  V30 44 H 5.191809 1.284011 1.036345 0
M  V30 45 H 4.044310 2.699270 -0.566075 0
M  V30 46 H -0.527299 0.659874 0.487229 0
M  V30 47 H -2.086969 4.547779 2.980289 0
M  V30 48 H -4.675638 3.607256 2.192713 0
M  V30 49 H -2.628308 0.894320 -1.900151 0
M  V30 50 H -2.346985 -1.100704 -3.199619 0
M  V30 51 H -3.134576 -3.433599 -4.397082 0
M  V30 52 H -1.483661 -2.791274 -3.905207 0
M  V30 53 H -2.476271 -5.642231 -4.435910 0
M  V30 54 H -1.021083 -4.794118 -4.969276 0
M  V30 55 H 0.187170 -4.181900 -1.880486 0
M  V30 56 H 0.468174 -4.075319 -3.633433 0
M  V30 57 H 1.114703 -5.527754 -2.678628 0
M  V30 58 H -1.102088 -5.219284 -1.009863 0
M  V30 59 H -1.782528 -6.792205 -1.578361 0
M  V30 60 H -3.556724 -5.014317 -1.004631 0
M  V30 61 H -3.597170 -5.503898 -2.745250 0
M  V30 62 H -3.496100 -3.396120 0.210677 0
M  V30 63 H -3.764978 -1.328931 1.475542 0
M  V30 END ATOM
M  V30 BEGIN BOND
M  V30 1 1 1 2
M  V30 2 1 2 3
M  V30 3 1 3 4
M  V30 4 1 4 5
M  V30 5 1 5 6
M  V30 6 2 6 7
M  V30 7 1 7 8
M  V30 8 2 8 9
M  V30 9 1 9 10
M  V30 10 1 10 11
M  V30 11 2 10 12
M  V30 12 1 12 13
M  V30 13 2 13 14
M  V30 14 1 14 15
M  V30 15 2 15 16
M  V30 16 1 16 17
M  V30 17 2 17 18
M  V30 18 1 16 19
M  V30 19 2 19 20
M  V30 20 1 20 21
M  V30 21 1 21 22
M  V30 22 2 22 23
M  V30 23 1 23 24
M  V30 24 2 24 25
M  V30 25 1 25 26
M  V30 26 1 26 27
M  V30 27 1 27 28
M  V30 28 1 28 29
M  V30 29 1 29 30
M  V30 30 1 29 31
M  V30 31 1 31 32
M  V30 32 1 25 33
M  V30 33 2 33 34
M  V30 34 1 7 3
M  V30 35 1 18 13
M  V30 36 1 34 22
M  V30 37 1 12 6
M  V30 38 1 21 15
M  V30 39 1 32 26
M  V30 40 1 1 35
M  V30 41 1 1 36
M  V30 42 1 1 37
M  V30 43 1 2 38
M  V30 44 1 3 39
M  V30 45 1 4 40
M  V30 46 1 4 41
M  V30 47 1 5 42
M  V30 48 1 5 43
M  V30 49 1 8 44
M  V30 50 1 9 45
M  V30 51 1 14 46
M  V30 52 1 17 47
M  V30 53 1 19 48
M  V30 54 1 23 49
M  V30 55 1 24 50
M  V30 56 1 27 51
M  V30 57 1 27 52
M  V30 58 1 28 53
M  V30 59 1 28 54
M  V30 60 1 30 55
M  V30 61 1 30 56
M  V30 62 1 30 57
M  V30 63 1 31 58
M  V30 64 1 31 59
M  V30 65 1 32 60
M  V30 66 1 32 61
M  V30 67 1 33 62
M  V30 68 1 34 63
M  V30 END BOND
M  V30 END CTAB
M  END
>  <Dataset>  (750) 
ChEMBL_Kinases

>  <Ligand_Instance>  (750) 
nan

>  <PDB_ID>  (750) 
nan

>  <Standardized_SMILES>  (750) 
CNC1CCc2c1ccc(F)c2-c1cc2c(cn1)cnn2-c1ccc(N2CCN(C)CC2)cc1

>  <Name>  (750) 
nan

>  <Pocket>  (750) 
nan

>  <ATP_Site>  (750) 
nan

>  <Peripheral>  (750) 
nan

>  <Num_H_Atoms_ProtBoundConf>  (750) 
nan

>  <Num_Resolved_Atoms>  (750) 
nan

>  <Num_Not_Resolved_Atoms>  (750) 
nan

$$$$
CHEMBL4786185
     RDKit          3D

  0  0  0  0  0  0  0  0  0  0999 V3000
M  V30 BEGIN CTAB
M  V30 COUNTS 64 67 0 0 0
M  V30 BEGIN ATOM
M  V30 1 C 9.040753 3.527482 0.674546 0
M  V30 2 C 8.529884 4.062587 1.633208 0
M  V30 3 C 7.891935 4.693749 2.798086 0
M  V30 4 C 6.395024 4.726401 2.484535 0
M  V30 5 N 5.955305 3.364690 2.296520 0
M  V30 6 C 4.580607 3.221145 1.996454 0
M  V30 7 O 4.064793 4.389222 1.969645 0
M  V30 8 C 3.851092 1.994239 1.756497 0
M  V30 9 C 4.194335 0.662710 1.732078 0
M  V30 10 C 5.565048 0.174279 1.979243 0
M  V30 11 N 3.084153 -0.040890 1.452773 0
M  V30 12 C 2.004334 0.781420 1.289432 0
M  V30 13 C 0.739831 0.158956 0.943709 0
M  V30 14 C -0.431853 0.161842 1.518235 0
M  V30 15 C -0.688408 0.876195 2.760762 0
M  V30 16 O 0.136727 1.535306 3.436376 0
M  V30 17 N -2.058614 0.680365 3.065740 0
M  V30 18 C -2.612981 -0.129989 2.037277 0
M  V30 19 C -3.895098 -0.618526 1.842469 0
M  V30 20 C -4.225971 -1.403419 0.754131 0
M  V30 21 C -3.271207 -1.728523 -0.186284 0
M  V30 22 C -3.433296 -2.535236 -1.384781 0
M  V30 23 O -2.547898 -2.820635 -2.229776 0
M  V30 24 N -4.697665 -3.100690 -1.711038 0
M  V30 25 C -4.995310 -3.924410 -2.875486 0 CFG=2
M  V30 26 C -6.100155 -3.241116 -3.652272 0
M  V30 27 C -5.427960 -5.291894 -2.438132 0
M  V30 28 C -4.924934 -6.436123 -3.057194 0
M  V30 29 C -5.316054 -7.701862 -2.662666 0
M  V30 30 C -6.226613 -7.855405 -1.631624 0
M  V30 31 C -6.733426 -6.730197 -1.009015 0
M  V30 32 C -6.347631 -5.449359 -1.396903 0
M  V30 33 C -1.973783 -1.248646 -0.012004 0
M  V30 34 C -1.671939 -0.466918 1.084342 0
M  V30 35 C 2.498517 2.030855 1.479367 0
M  V30 36 C 1.650883 3.243370 1.349171 0
M  V30 37 H 9.500053 3.059847 -0.172774 0
M  V30 38 H 8.015659 3.986458 3.658365 0
M  V30 39 H 8.295745 5.684449 3.021564 0
M  V30 40 H 6.261660 5.377949 1.608537 0
M  V30 41 H 5.891264 5.208064 3.353004 0
M  V30 42 H 6.549601 2.513624 2.362611 0
M  V30 43 H 5.902588 0.341592 3.012443 0
M  V30 44 H 6.303251 0.478934 1.200884 0
M  V30 45 H 5.528025 -0.954146 1.861472 0
M  V30 46 H 3.139262 -1.102501 1.387901 0
M  V30 47 H 0.764211 -0.433852 0.009773 0
M  V30 48 H -2.502584 1.091147 3.911489 0
M  V30 49 H -4.676571 -0.392069 2.549871 0
M  V30 50 H -5.196332 -1.807993 0.551898 0
M  V30 51 H -5.549051 -2.955983 -1.103426 0
M  V30 52 H -4.091541 -4.065323 -3.503649 0
M  V30 53 H -6.993478 -3.199231 -2.988227 0
M  V30 54 H -6.286933 -3.858728 -4.553748 0
M  V30 55 H -5.727801 -2.226125 -3.902860 0
M  V30 56 H -4.204480 -6.283866 -3.871701 0
M  V30 57 H -4.891683 -8.569529 -3.181010 0
M  V30 58 H -6.474632 -8.875264 -1.390249 0
M  V30 59 H -7.447857 -6.879430 -0.201193 0
M  V30 60 H -6.765155 -4.578437 -0.886137 0
M  V30 61 H -1.150074 -1.453129 -0.703696 0
M  V30 62 H 2.150926 3.997351 0.690729 0
M  V30 63 H 1.612808 3.713808 2.355830 0
M  V30 64 H 0.651154 3.036030 0.968592 0
M  V30 END ATOM
M  V30 BEGIN BOND
M  V30 1 3 1 2
M  V30 2 1 2 3
M  V30 3 1 3 4
M  V30 4 1 4 5
M  V30 5 1 5 6
M  V30 6 2 6 7
M  V30 7 1 6 8
M  V30 8 2 8 9
M  V30 9 1 9 10
M  V30 10 1 9 11
M  V30 11 1 11 12
M  V30 12 1 12 13
M  V30 13 2 13 14
M  V30 14 1 14 15
M  V30 15 2 15 16
M  V30 16 1 15 17
M  V30 17 1 17 18
M  V30 18 2 18 19
M  V30 19 1 19 20
M  V30 20 2 20 21
M  V30 21 1 21 22
M  V30 22 2 22 23
M  V30 23 1 22 24
M  V30 24 1 24 25
M  V30 25 1 25 26
M  V30 26 1 25 27
M  V30 27 2 27 28
M  V30 28 1 28 29
M  V30 29 2 29 30
M  V30 30 1 30 31
M  V30 31 2 31 32
M  V30 32 1 21 33
M  V30 33 2 33 34
M  V30 34 2 12 35
M  V30 35 1 35 36
M  V30 36 1 35 8
M  V30 37 1 34 14
M  V30 38 1 34 18
M  V30 39 1 32 27
M  V30 40 1 1 37
M  V30 41 1 3 38
M  V30 42 1 3 39
M  V30 43 1 4 40
M  V30 44 1 4 41
M  V30 45 1 5 42
M  V30 46 1 10 43
M  V30 47 1 10 44
M  V30 48 1 10 45
M  V30 49 1 11 46
M  V30 50 1 13 47
M  V30 51 1 17 48
M  V30 52 1 19 49
M  V30 53 1 20 50
M  V30 54 1 24 51
M  V30 55 1 25 52 CFG=3
M  V30 56 1 26 53
M  V30 57 1 26 54
M  V30 58 1 26 55
M  V30 59 1 28 56
M  V30 60 1 29 57
M  V30 61 1 30 58
M  V30 62 1 31 59
M  V30 63 1 32 60
M  V30 64 1 33 61
M  V30 65 1 36 62
M  V30 66 1 36 63
M  V30 67 1 36 64
M  V30 END BOND
M  V30 END CTAB
M  END
>  <Dataset>  (751) 
ChEMBL_Kinases

>  <Ligand_Instance>  (751) 
nan

>  <PDB_ID>  (751) 
nan

>  <Standardized_SMILES>  (751) 
C#CCCNC(=O)c1c(C)[nH]c(/C=C2\C(=O)Nc3ccc(C(=O)N[C@H](C)c4ccccc4)cc32)c1C

>  <Name>  (751) 
nan

>  <Pocket>  (751) 
nan

>  <ATP_Site>  (751) 
nan

>  <Peripheral>  (751) 
nan

>  <Num_H_Atoms_ProtBoundConf>  (751) 
nan

>  <Num_Resolved_Atoms>  (751) 
nan

>  <Num_Not_Resolved_Atoms>  (751) 
nan

$$$$
CHEMBL4170146
     RDKit          3D

  0  0  0  0  0  0  0  0  0  0999 V3000
M  V30 BEGIN CTAB
M  V30 COUNTS 27 29 0 0 0
M  V30 BEGIN ATOM
M  V30 1 O 3.359155 -3.940208 -2.149173 0
M  V30 2 C 3.255905 -3.500246 -0.976093 0
M  V30 3 N 4.252193 -3.396086 0.031977 0
M  V30 4 C 3.980312 -2.531473 1.096052 0
M  V30 5 O 4.799460 -2.354249 2.063421 0
M  V30 6 C 2.708178 -1.846116 1.035540 0
M  V30 7 C 2.265927 -0.780911 1.652349 0
M  V30 8 C 0.924534 -0.237836 1.450030 0
M  V30 9 C 0.333307 0.266736 2.611671 0
M  V30 10 C -0.928735 0.825786 2.653852 0
M  V30 11 C -1.628268 0.874145 1.447173 0
M  V30 12 C -1.044534 0.376244 0.301232 0
M  V30 13 C 0.215966 -0.180776 0.263941 0
M  V30 14 O -1.761076 0.436182 -0.885035 0
M  V30 15 C -3.007632 1.083139 -1.004750 0
M  V30 16 C -3.804616 1.008140 0.283916 0
M  V30 17 O -2.914087 1.410620 1.336070 0
M  V30 18 S 1.775276 -2.837909 -0.160615 0
M  V30 19 H 5.137291 -3.976070 -0.082381 0
M  V30 20 H 2.953277 -0.305195 2.336345 0
M  V30 21 H 0.814384 0.265915 3.591838 0
M  V30 22 H -1.385954 1.211378 3.533144 0
M  V30 23 H 0.712832 -0.578202 -0.598287 0
M  V30 24 H -2.777695 2.172024 -1.157686 0
M  V30 25 H -3.561083 0.645696 -1.861483 0
M  V30 26 H -4.216548 -0.011018 0.457370 0
M  V30 27 H -4.612107 1.755925 0.207818 0
M  V30 END ATOM
M  V30 BEGIN BOND
M  V30 1 2 1 2
M  V30 2 1 2 3
M  V30 3 1 3 4
M  V30 4 2 4 5
M  V30 5 1 4 6
M  V30 6 2 6 7
M  V30 7 1 7 8
M  V30 8 2 8 9
M  V30 9 1 9 10
M  V30 10 2 10 11
M  V30 11 1 11 12
M  V30 12 2 12 13
M  V30 13 1 12 14
M  V30 14 1 14 15
M  V30 15 1 15 16
M  V30 16 1 16 17
M  V30 17 1 6 18
M  V30 18 1 18 2
M  V30 19 1 13 8
M  V30 20 1 17 11
M  V30 21 1 3 19
M  V30 22 1 7 20
M  V30 23 1 9 21
M  V30 24 1 10 22
M  V30 25 1 13 23
M  V30 26 1 15 24
M  V30 27 1 15 25
M  V30 28 1 16 26
M  V30 29 1 16 27
M  V30 END BOND
M  V30 END CTAB
M  END
>  <Dataset>  (752) 
ChEMBL_Kinases

>  <Ligand_Instance>  (752) 
nan

>  <PDB_ID>  (752) 
nan

>  <Standardized_SMILES>  (752) 
O=C1NC(=O)/C(=C/c2ccc3c(c2)OCCO3)S1

>  <Name>  (752) 
nan

>  <Pocket>  (752) 
nan

>  <ATP_Site>  (752) 
nan

>  <Peripheral>  (752) 
nan

>  <Num_H_Atoms_ProtBoundConf>  (752) 
nan

>  <Num_Resolved_Atoms>  (752) 
nan

>  <Num_Not_Resolved_Atoms>  (752) 
nan

$$$$
CHEMBL4786242
     RDKit          3D

  0  0  0  0  0  0  0  0  0  0999 V3000
M  V30 BEGIN CTAB
M  V30 COUNTS 54 57 0 0 0
M  V30 BEGIN ATOM
M  V30 1 C 8.807198 -2.847861 0.178633 0
M  V30 2 C 8.330291 -1.595670 0.368482 0
M  V30 3 C 6.961864 -1.221120 -0.073509 0
M  V30 4 O 6.211832 -2.047541 -0.633757 0
M  V30 5 N 6.523630 0.114855 0.159399 0
M  V30 6 C 5.205211 0.200585 -0.365347 0
M  V30 7 C 5.209992 0.597280 -1.721498 0
M  V30 8 C 3.879934 0.655626 -2.177454 0
M  V30 9 C 2.773375 0.365756 -1.426623 0
M  V30 10 C 1.541670 0.361286 -2.233135 0
M  V30 11 O 0.432828 0.514518 -2.693177 0
M  V30 12 N 0.761063 1.233308 -1.307696 0
M  V30 13 C -0.628607 1.459506 -1.701382 0
M  V30 14 C -1.236500 2.250670 -2.627589 0
M  V30 15 C -2.603183 2.284097 -2.728798 0
M  V30 16 C -3.301752 1.487396 -1.851196 0
M  V30 17 C -2.803889 0.660239 -0.884600 0
M  V30 18 N -3.483713 -0.131236 0.060181 0
M  V30 19 C -4.865777 -0.309782 0.188330 0
M  V30 20 O -5.684016 0.234083 -0.591506 0
M  V30 21 C -5.453439 -1.125252 1.233144 0
M  V30 22 C -6.730096 -1.398850 1.557134 0
M  V30 23 C -7.277661 -2.140030 2.588245 0
M  V30 24 C -6.250261 -2.668884 3.404528 0
M  V30 25 C -4.951165 -2.446596 3.152090 0
M  V30 26 C -3.900013 -3.034640 4.011567 0
M  V30 27 C -2.549834 -2.915991 3.731553 0
M  V30 28 C -1.988861 -3.659838 4.755886 0
M  V30 29 N -2.939070 -4.150165 5.537884 0
M  V30 30 N -4.161790 -3.790297 5.117693 0
M  V30 31 N -4.582105 -1.710230 2.115613 0
M  V30 32 C -1.402409 0.670219 -0.837643 0
M  V30 33 C 2.929518 -0.004077 -0.122811 0
M  V30 34 C 4.135902 -0.105775 0.472629 0
M  V30 35 H 9.842702 -2.857618 0.596110 0
M  V30 36 H 8.137506 -3.515345 -0.310177 0
M  V30 37 H 8.933315 -0.809902 0.849444 0
M  V30 38 H 7.101158 0.850982 0.630923 0
M  V30 39 H 6.078658 0.821417 -2.294915 0
M  V30 40 H 3.849807 0.974273 -3.242629 0
M  V30 41 H 0.919198 1.803099 -0.360117 0
M  V30 42 H -0.483600 2.783388 -3.201491 0
M  V30 43 H -3.010806 2.913006 -3.477266 0
M  V30 44 H -4.378398 1.524187 -1.928722 0
M  V30 45 H -2.948707 -0.666581 0.767608 0
M  V30 46 H -7.419349 -0.936564 0.847305 0
M  V30 47 H -8.337566 -2.236507 2.666315 0
M  V30 48 H -6.620486 -3.266101 4.243174 0
M  V30 49 H -2.096718 -2.381267 2.921422 0
M  V30 50 H -0.889886 -3.736164 4.757529 0
M  V30 51 H -5.127934 -3.973826 5.458511 0
M  V30 52 H -0.954116 0.004452 -0.075877 0
M  V30 53 H 2.033938 -0.221798 0.429025 0
M  V30 54 H 4.352074 -0.382173 1.477261 0
M  V30 END ATOM
M  V30 BEGIN BOND
M  V30 1 2 1 2
M  V30 2 1 2 3
M  V30 3 2 3 4
M  V30 4 1 3 5
M  V30 5 1 5 6
M  V30 6 2 6 7
M  V30 7 1 7 8
M  V30 8 2 8 9
M  V30 9 1 9 10
M  V30 10 2 10 11
M  V30 11 1 10 12
M  V30 12 1 12 13
M  V30 13 2 13 14
M  V30 14 1 14 15
M  V30 15 2 15 16
M  V30 16 1 16 17
M  V30 17 1 17 18
M  V30 18 1 18 19
M  V30 19 2 19 20
M  V30 20 1 19 21
M  V30 21 2 21 22
M  V30 22 1 22 23
M  V30 23 2 23 24
M  V30 24 1 24 25
M  V30 25 1 25 26
M  V30 26 2 26 27
M  V30 27 1 27 28
M  V30 28 2 28 29
M  V30 29 1 29 30
M  V30 30 2 25 31
M  V30 31 2 17 32
M  V30 32 1 9 33
M  V30 33 2 33 34
M  V30 34 1 34 6
M  V30 35 1 32 13
M  V30 36 1 31 21
M  V30 37 1 30 26
M  V30 38 1 1 35
M  V30 39 1 1 36
M  V30 40 1 2 37
M  V30 41 1 5 38
M  V30 42 1 7 39
M  V30 43 1 8 40
M  V30 44 1 12 41
M  V30 45 1 14 42
M  V30 46 1 15 43
M  V30 47 1 16 44
M  V30 48 1 18 45
M  V30 49 1 22 46
M  V30 50 1 23 47
M  V30 51 1 24 48
M  V30 52 1 27 49
M  V30 53 1 28 50
M  V30 54 1 30 51
M  V30 55 1 32 52
M  V30 56 1 33 53
M  V30 57 1 34 54
M  V30 END BOND
M  V30 END CTAB
M  END
>  <Dataset>  (753) 
ChEMBL_Kinases

>  <Ligand_Instance>  (753) 
nan

>  <PDB_ID>  (753) 
nan

>  <Standardized_SMILES>  (753) 
C=CC(=O)Nc1ccc(C(=O)Nc2cccc(NC(=O)c3cccc(-c4ccn[nH]4)n3)c2)cc1

>  <Name>  (753) 
nan

>  <Pocket>  (753) 
nan

>  <ATP_Site>  (753) 
nan

>  <Peripheral>  (753) 
nan

>  <Num_H_Atoms_ProtBoundConf>  (753) 
nan

>  <Num_Resolved_Atoms>  (753) 
nan

>  <Num_Not_Resolved_Atoms>  (753) 
nan

$$$$
CHEMBL4169166
     RDKit          3D

  0  0  0  0  0  0  0  0  0  0999 V3000
M  V30 BEGIN CTAB
M  V30 COUNTS 45 48 0 0 0
M  V30 BEGIN ATOM
M  V30 1 C -0.892912 -6.680085 1.465702 0
M  V30 2 O -0.836993 -6.198788 2.789151 0
M  V30 3 C -0.543595 -4.870752 3.066804 0
M  V30 4 C -0.279113 -3.890667 2.095568 0
M  V30 5 C -0.001950 -2.608994 2.526265 0
M  V30 6 C 0.261818 -1.644339 1.460663 0
M  V30 7 C -0.103057 -0.339504 1.716409 0
M  V30 8 N 0.130115 0.555718 0.747174 0
M  V30 9 C 0.681187 0.297351 -0.437121 0
M  V30 10 C 0.956591 1.196141 -1.499905 0
M  V30 11 N 0.746160 2.579895 -1.672910 0
M  V30 12 C 1.269096 3.186662 -2.920649 0
M  V30 13 C 1.988541 4.445716 -2.507128 0
M  V30 14 O 2.398418 4.450881 -1.180585 0
M  V30 15 C 1.309714 4.416828 -0.304747 0
M  V30 16 C 0.139313 3.674955 -0.975957 0 CFG=2
M  V30 17 C -0.895332 3.326156 0.045095 0
M  V30 18 S 1.690280 0.247042 -2.785961 0
M  V30 19 N 1.618194 -1.365856 -1.871956 0
M  V30 20 C 1.060022 -0.982350 -0.736737 0
M  V30 21 C 0.839447 -1.940997 0.232236 0
M  V30 22 C 0.034577 -2.216487 3.847488 0
M  V30 23 C -0.226481 -3.176896 4.834291 0
M  V30 24 C -0.500455 -4.450229 4.379312 0
M  V30 25 N -0.760071 -5.411145 5.395885 0
M  V30 26 H -1.467401 -7.633197 1.418461 0
M  V30 27 H 0.160363 -6.873687 1.118305 0
M  V30 28 H -1.357006 -5.972927 0.748805 0
M  V30 29 H -0.310421 -4.207359 1.063537 0
M  V30 30 H -0.562729 0.020623 2.637107 0
M  V30 31 H 1.904072 2.474610 -3.443226 0
M  V30 32 H 0.387251 3.446467 -3.538245 0
M  V30 33 H 2.929205 4.527303 -3.111129 0
M  V30 34 H 1.343322 5.320542 -2.747111 0
M  V30 35 H 1.649961 3.866598 0.592859 0
M  V30 36 H 1.002705 5.421855 0.011557 0
M  V30 37 H -0.278071 4.460027 -1.682153 0
M  V30 38 H -1.540565 2.487208 -0.223990 0
M  V30 39 H -0.491269 3.195376 1.063809 0
M  V30 40 H -1.536319 4.268790 0.157966 0
M  V30 41 H 1.067945 -2.995687 0.184199 0
M  V30 42 H 0.258160 -1.197769 4.111367 0
M  V30 43 H -0.212728 -2.930299 5.882213 0
M  V30 44 H -0.448310 -6.145476 6.065093 0
M  V30 45 H -1.752846 -5.506252 5.702335 0
M  V30 END ATOM
M  V30 BEGIN BOND
M  V30 1 1 1 2
M  V30 2 1 2 3
M  V30 3 2 3 4
M  V30 4 1 4 5
M  V30 5 1 5 6
M  V30 6 1 6 7
M  V30 7 2 7 8
M  V30 8 1 8 9
M  V30 9 2 9 10
M  V30 10 1 10 11
M  V30 11 1 11 12
M  V30 12 1 12 13
M  V30 13 1 13 14
M  V30 14 1 14 15
M  V30 15 1 15 16
M  V30 16 1 16 17
M  V30 17 1 10 18
M  V30 18 1 18 19
M  V30 19 2 19 20
M  V30 20 1 20 21
M  V30 21 2 5 22
M  V30 22 1 22 23
M  V30 23 2 23 24
M  V30 24 1 24 25
M  V30 25 1 24 3
M  V30 26 2 21 6
M  V30 27 1 20 9
M  V30 28 1 16 11
M  V30 29 1 1 26
M  V30 30 1 1 27
M  V30 31 1 1 28
M  V30 32 1 4 29
M  V30 33 1 7 30
M  V30 34 1 12 31
M  V30 35 1 12 32
M  V30 36 1 13 33
M  V30 37 1 13 34
M  V30 38 1 15 35
M  V30 39 1 15 36
M  V30 40 1 16 37 CFG=3
M  V30 41 1 17 38
M  V30 42 1 17 39
M  V30 43 1 17 40
M  V30 44 1 21 41
M  V30 45 1 22 42
M  V30 46 1 23 43
M  V30 47 1 25 44
M  V30 48 1 25 45
M  V30 END BOND
M  V30 END CTAB
M  END
>  <Dataset>  (754) 
ChEMBL_Kinases

>  <Ligand_Instance>  (754) 
nan

>  <PDB_ID>  (754) 
nan

>  <Standardized_SMILES>  (754) 
COc1cc(-c2cnc3c(N4CCOC[C@@H]4C)snc3c2)ccc1N

>  <Name>  (754) 
nan

>  <Pocket>  (754) 
nan

>  <ATP_Site>  (754) 
nan

>  <Peripheral>  (754) 
nan

>  <Num_H_Atoms_ProtBoundConf>  (754) 
nan

>  <Num_Resolved_Atoms>  (754) 
nan

>  <Num_Not_Resolved_Atoms>  (754) 
nan

$$$$
CHEMBL4786263
     RDKit          3D

  0  0  0  0  0  0  0  0  0  0999 V3000
M  V30 BEGIN CTAB
M  V30 COUNTS 55 58 0 0 0
M  V30 BEGIN ATOM
M  V30 1 C -3.794781 2.734873 2.786051 0
M  V30 2 C -2.371432 2.203687 2.860186 0
M  V30 3 O -2.203789 1.116000 1.991429 0
M  V30 4 C -0.978756 0.476630 1.892138 0
M  V30 5 C 0.154113 0.823956 2.616147 0
M  V30 6 C 1.360553 0.128906 2.464319 0
M  V30 7 C 2.369379 0.696857 3.327755 0
M  V30 8 O 2.846430 0.408158 4.479948 0
M  V30 9 N 3.089361 1.859859 2.935751 0
M  V30 10 C 2.762483 2.427779 1.622840 0
M  V30 11 C 3.930725 1.992246 0.726095 0
M  V30 12 O 5.117741 2.210322 1.383648 0
M  V30 13 C 5.064186 3.102795 2.443481 0
M  V30 14 C 4.117272 2.686709 3.530092 0
M  V30 15 C 1.403323 -0.913663 1.575725 0
M  V30 16 C 0.308508 -1.296023 0.835084 0
M  V30 17 C -0.865567 -0.584999 1.012426 0
M  V30 18 N -1.992594 -1.019495 0.228109 0
M  V30 19 C -2.038441 -2.038538 -0.772784 0
M  V30 20 N -2.178054 -3.373405 -0.697466 0
M  V30 21 C -2.218274 -4.106917 -1.840511 0
M  V30 22 O -2.350589 -5.405061 -2.039663 0
M  V30 23 C -2.479564 -6.592983 -1.402510 0
M  V30 24 C -1.318819 -7.007142 -0.510304 0
M  V30 25 C -2.108116 -3.418855 -3.063023 0
M  V30 26 C -2.098908 -3.787379 -4.401291 0
M  V30 27 C -1.957920 -2.724433 -5.249830 0
M  V30 28 N -1.875857 -1.664559 -4.445058 0
M  V30 29 C -1.961930 -2.041713 -3.148093 0
M  V30 30 N -1.933013 -1.390051 -1.964571 0
M  V30 31 H -4.236356 2.323615 1.838879 0
M  V30 32 H -4.375132 2.361783 3.673048 0
M  V30 33 H -3.798238 3.836230 2.734022 0
M  V30 34 H -2.050295 2.013734 3.911715 0
M  V30 35 H -1.710833 3.065321 2.541768 0
M  V30 36 H -0.059133 1.681985 3.278293 0
M  V30 37 H 2.671991 3.511450 1.629219 0
M  V30 38 H 1.794799 2.037149 1.234689 0
M  V30 39 H 3.829369 0.874387 0.599534 0
M  V30 40 H 3.879337 2.422989 -0.273844 0
M  V30 41 H 4.913201 4.158777 2.116262 0
M  V30 42 H 6.097949 3.091145 2.909214 0
M  V30 43 H 3.598912 3.635835 3.856509 0
M  V30 44 H 4.621454 2.236199 4.402918 0
M  V30 45 H 2.386563 -1.369934 1.546826 0
M  V30 46 H 0.433496 -2.143121 0.155887 0
M  V30 47 H -2.895919 -0.566987 0.375328 0
M  V30 48 H -2.673727 -7.428249 -2.154144 0
M  V30 49 H -3.395973 -6.602485 -0.740063 0
M  V30 50 H -0.563771 -7.522454 -1.179886 0
M  V30 51 H -0.850670 -6.167359 0.013404 0
M  V30 52 H -1.605733 -7.776933 0.232783 0
M  V30 53 H -2.189022 -4.808041 -4.776409 0
M  V30 54 H -1.911880 -2.670626 -6.322773 0
M  V30 55 H -1.762977 -0.638906 -4.672047 0
M  V30 END ATOM
M  V30 BEGIN BOND
M  V30 1 1 1 2
M  V30 2 1 2 3
M  V30 3 1 3 4
M  V30 4 2 4 5
M  V30 5 1 5 6
M  V30 6 1 6 7
M  V30 7 2 7 8
M  V30 8 1 7 9
M  V30 9 1 9 10
M  V30 10 1 10 11
M  V30 11 1 11 12
M  V30 12 1 12 13
M  V30 13 1 13 14
M  V30 14 2 6 15
M  V30 15 1 15 16
M  V30 16 2 16 17
M  V30 17 1 17 18
M  V30 18 1 18 19
M  V30 19 2 19 20
M  V30 20 1 20 21
M  V30 21 1 21 22
M  V30 22 1 22 23
M  V30 23 1 23 24
M  V30 24 2 21 25
M  V30 25 1 25 26
M  V30 26 2 26 27
M  V30 27 1 27 28
M  V30 28 1 28 29
M  V30 29 2 29 30
M  V30 30 1 17 4
M  V30 31 1 30 19
M  V30 32 1 14 9
M  V30 33 1 29 25
M  V30 34 1 1 31
M  V30 35 1 1 32
M  V30 36 1 1 33
M  V30 37 1 2 34
M  V30 38 1 2 35
M  V30 39 1 5 36
M  V30 40 1 10 37
M  V30 41 1 10 38
M  V30 42 1 11 39
M  V30 43 1 11 40
M  V30 44 1 13 41
M  V30 45 1 13 42
M  V30 46 1 14 43
M  V30 47 1 14 44
M  V30 48 1 15 45
M  V30 49 1 16 46
M  V30 50 1 18 47
M  V30 51 1 23 48
M  V30 52 1 23 49
M  V30 53 1 24 50
M  V30 54 1 24 51
M  V30 55 1 24 52
M  V30 56 1 26 53
M  V30 57 1 27 54
M  V30 58 1 28 55
M  V30 END BOND
M  V30 END CTAB
M  END
>  <Dataset>  (755) 
ChEMBL_Kinases

>  <Ligand_Instance>  (755) 
nan

>  <PDB_ID>  (755) 
nan

>  <Standardized_SMILES>  (755) 
CCOc1cc(C(=O)N2CCOCC2)ccc1Nc1nc(OCC)c2cc[nH]c2n1

>  <Name>  (755) 
nan

>  <Pocket>  (755) 
nan

>  <ATP_Site>  (755) 
nan

>  <Peripheral>  (755) 
nan

>  <Num_H_Atoms_ProtBoundConf>  (755) 
nan

>  <Num_Resolved_Atoms>  (755) 
nan

>  <Num_Not_Resolved_Atoms>  (755) 
nan

$$$$
CHEMBL4169832
     RDKit          3D

  0  0  0  0  0  0  0  0  0  0999 V3000
M  V30 BEGIN CTAB
M  V30 COUNTS 39 41 0 0 0
M  V30 BEGIN ATOM
M  V30 1 N -1.062763 -4.219306 4.322599 0
M  V30 2 C -0.575641 -4.793190 3.111809 0
M  V30 3 N -0.407333 -6.110989 2.800263 0
M  V30 4 N 0.074138 -6.210530 1.558888 0
M  V30 5 C 0.229376 -4.977291 1.037921 0
M  V30 6 C 0.683147 -4.520986 -0.184546 0
M  V30 7 C 0.747415 -3.174445 -0.479998 0
M  V30 8 C 0.336431 -2.282948 0.502701 0
M  V30 9 N 0.338868 -0.859290 0.360471 0
M  V30 10 C 1.454806 -0.049188 0.712557 0
M  V30 11 O 2.430436 -0.744210 1.161490 0
M  V30 12 C 1.485051 1.425832 0.575967 0 CFG=1
M  V30 13 C 1.286695 1.919169 -0.827278 0
M  V30 14 C 0.973976 3.415224 -0.695204 0
M  V30 15 C -0.437155 3.577079 -0.138424 0 CFG=1
M  V30 16 N -1.323063 3.357906 -1.267863 0
M  V30 17 C -0.688613 2.615383 0.981238 0
M  V30 18 C 0.614446 2.141018 1.582340 0
M  V30 19 C -0.122643 -2.707440 1.735908 0
M  V30 20 C -0.171403 -4.064197 1.992043 0
M  V30 21 H -0.628017 -4.018988 5.271946 0
M  V30 22 H -2.079529 -3.932893 4.253072 0
M  V30 23 H 0.313421 -7.073580 1.019572 0
M  V30 24 H 1.010450 -5.203404 -0.969839 0
M  V30 25 H 1.077147 -2.717422 -1.380272 0
M  V30 26 H -0.517919 -0.399166 -0.018675 0
M  V30 27 H 2.540091 1.718804 0.845706 0
M  V30 28 H 0.482460 1.421577 -1.375356 0
M  V30 29 H 2.244231 1.894372 -1.405503 0
M  V30 30 H 1.656300 3.792048 0.098608 0
M  V30 31 H 1.078465 3.942284 -1.648669 0
M  V30 32 H -0.563967 4.603917 0.243947 0
M  V30 33 H -1.328831 2.370175 -1.560163 0
M  V30 34 H -1.037437 4.033457 -2.017910 0
M  V30 35 H -1.301425 1.751767 0.701698 0
M  V30 36 H -1.243049 3.116604 1.812247 0
M  V30 37 H 1.140151 2.956682 2.106655 0
M  V30 38 H 0.329255 1.415936 2.399834 0
M  V30 39 H -0.451003 -2.050575 2.526334 0
M  V30 END ATOM
M  V30 BEGIN BOND
M  V30 1 1 1 2
M  V30 2 2 2 3
M  V30 3 1 3 4
M  V30 4 1 4 5
M  V30 5 2 5 6
M  V30 6 1 6 7
M  V30 7 2 7 8
M  V30 8 1 8 9
M  V30 9 1 9 10
M  V30 10 2 10 11
M  V30 11 1 10 12
M  V30 12 1 12 13
M  V30 13 1 13 14
M  V30 14 1 14 15
M  V30 15 1 15 16
M  V30 16 1 15 17
M  V30 17 1 17 18
M  V30 18 1 8 19
M  V30 19 2 19 20
M  V30 20 1 20 2
M  V30 21 1 20 5
M  V30 22 1 18 12
M  V30 23 1 1 21
M  V30 24 1 1 22
M  V30 25 1 4 23
M  V30 26 1 6 24
M  V30 27 1 7 25
M  V30 28 1 9 26
M  V30 29 1 12 27 CFG=1
M  V30 30 1 13 28
M  V30 31 1 13 29
M  V30 32 1 14 30
M  V30 33 1 14 31
M  V30 34 1 15 32 CFG=1
M  V30 35 1 16 33
M  V30 36 1 16 34
M  V30 37 1 17 35
M  V30 38 1 17 36
M  V30 39 1 18 37
M  V30 40 1 18 38
M  V30 41 1 19 39
M  V30 END BOND
M  V30 END CTAB
M  END
>  <Dataset>  (756) 
ChEMBL_Kinases

>  <Ligand_Instance>  (756) 
nan

>  <PDB_ID>  (756) 
nan

>  <Standardized_SMILES>  (756) 
Nc1n[nH]c2ccc(NC(=O)[C@H]3CC[C@@H](N)CC3)cc12

>  <Name>  (756) 
nan

>  <Pocket>  (756) 
nan

>  <ATP_Site>  (756) 
nan

>  <Peripheral>  (756) 
nan

>  <Num_H_Atoms_ProtBoundConf>  (756) 
nan

>  <Num_Resolved_Atoms>  (756) 
nan

>  <Num_Not_Resolved_Atoms>  (756) 
nan

$$$$
CHEMBL4169791
     RDKit          3D

  0  0  0  0  0  0  0  0  0  0999 V3000
M  V30 BEGIN CTAB
M  V30 COUNTS 64 68 0 0 0
M  V30 BEGIN ATOM
M  V30 1 C 3.845097 -3.432127 4.549406 0
M  V30 2 C 2.620325 -2.588187 4.575033 0
M  V30 3 O 2.188076 -2.103765 3.328092 0
M  V30 4 C 2.969389 -1.293583 2.529341 0
M  V30 5 O 3.976096 -1.263006 3.321597 0
M  V30 6 C 2.731400 -0.679112 1.233923 0
M  V30 7 C 3.071737 -1.301083 0.050977 0
M  V30 8 C 3.714713 -2.637381 0.041064 0
M  V30 9 N 2.829675 -0.725694 -1.140959 0
M  V30 10 C 2.244799 0.482180 -1.200322 0
M  V30 11 N 1.872957 1.290541 -2.338987 0
M  V30 12 N 0.507849 0.958091 -2.561193 0
M  V30 13 C -0.295941 0.028357 -3.315298 0
M  V30 14 O 0.399511 -0.743720 -4.014907 0
M  V30 15 C -1.742501 0.212764 -3.079449 0
M  V30 16 C -2.276313 1.482973 -3.069984 0
M  V30 17 C -3.619634 1.644006 -2.835718 0
M  V30 18 C -4.417241 0.526783 -2.611976 0
M  V30 19 C -3.848253 -0.740013 -2.628141 0
M  V30 20 C -4.686216 -1.838258 -2.398356 0
M  V30 21 O -5.922306 -1.686845 -2.183252 0
M  V30 22 C -4.147846 -3.103483 -2.409610 0
M  V30 23 C -4.882473 -4.243691 -2.194453 0
M  V30 24 C -4.271994 -5.483057 -2.217497 0
M  V30 25 C -2.923199 -5.641626 -2.453838 0
M  V30 26 C -2.167783 -4.506108 -2.673354 0
M  V30 27 C -2.790485 -3.256898 -2.647869 0
M  V30 28 N -2.026264 -2.187264 -2.861921 0
M  V30 29 C -2.493058 -0.922211 -2.863742 0
M  V30 30 N 1.907166 1.101997 -0.061035 0
M  V30 31 C 2.117116 0.586054 1.182246 0
M  V30 32 C 1.683432 1.352059 2.352218 0
M  V30 33 C 2.235309 1.684729 3.537719 0
M  V30 34 C 1.609001 2.428240 4.510739 0
M  V30 35 C 0.323592 2.888021 4.300245 0
M  V30 36 O -0.276336 3.634135 5.307064 0
M  V30 37 C -1.593330 4.101337 5.073920 0
M  V30 38 C -0.296064 2.585608 3.112790 0
M  V30 39 C 0.370531 1.826639 2.145737 0
M  V30 40 H 4.042566 -3.982119 3.628114 0
M  V30 41 H 3.778583 -4.225416 5.355195 0
M  V30 42 H 4.765349 -2.841605 4.831055 0
M  V30 43 H 1.774476 -3.056230 5.125379 0
M  V30 44 H 2.870818 -1.668186 5.178167 0
M  V30 45 H 3.258819 -3.210334 0.885719 0
M  V30 46 H 3.407437 -3.185322 -0.893302 0
M  V30 47 H 4.817862 -2.579483 0.124931 0
M  V30 48 H 2.401806 1.966812 -2.911262 0
M  V30 49 H 0.058826 1.690370 -1.927453 0
M  V30 50 H -1.651029 2.359330 -3.245888 0
M  V30 51 H -4.003698 2.658236 -2.835322 0
M  V30 52 H -5.468111 0.719925 -2.435818 0
M  V30 53 H -5.928358 -4.136110 -2.010597 0
M  V30 54 H -4.849648 -6.368939 -2.048587 0
M  V30 55 H -2.492771 -6.636446 -2.462483 0
M  V30 56 H -1.108051 -4.606646 -2.861502 0
M  V30 57 H -0.993622 -2.319355 -3.040835 0
M  V30 58 H 3.231729 1.301958 3.628957 0
M  V30 59 H 2.201781 2.599512 5.398108 0
M  V30 60 H -1.956517 4.725676 5.936612 0
M  V30 61 H -1.594257 4.837083 4.215430 0
M  V30 62 H -2.338481 3.321187 4.917836 0
M  V30 63 H -1.312978 2.948961 2.944393 0
M  V30 64 H -0.242599 1.664358 1.246616 0
M  V30 END ATOM
M  V30 BEGIN BOND
M  V30 1 1 1 2
M  V30 2 1 2 3
M  V30 3 1 3 4
M  V30 4 2 4 5
M  V30 5 1 4 6
M  V30 6 2 6 7
M  V30 7 1 7 8
M  V30 8 1 7 9
M  V30 9 2 9 10
M  V30 10 1 10 11
M  V30 11 1 11 12
M  V30 12 1 12 13
M  V30 13 2 13 14
M  V30 14 1 13 15
M  V30 15 2 15 16
M  V30 16 1 16 17
M  V30 17 2 17 18
M  V30 18 1 18 19
M  V30 19 1 19 20
M  V30 20 2 20 21
M  V30 21 1 20 22
M  V30 22 2 22 23
M  V30 23 1 23 24
M  V30 24 2 24 25
M  V30 25 1 25 26
M  V30 26 2 26 27
M  V30 27 1 27 28
M  V30 28 1 28 29
M  V30 29 1 10 30
M  V30 30 2 30 31
M  V30 31 1 31 32
M  V30 32 2 32 33
M  V30 33 1 33 34
M  V30 34 2 34 35
M  V30 35 1 35 36
M  V30 36 1 36 37
M  V30 37 1 35 38
M  V30 38 2 38 39
M  V30 39 1 31 6
M  V30 40 1 39 32
M  V30 41 1 29 15
M  V30 42 2 29 19
M  V30 43 1 27 22
M  V30 44 1 1 40
M  V30 45 1 1 41
M  V30 46 1 1 42
M  V30 47 1 2 43
M  V30 48 1 2 44
M  V30 49 1 8 45
M  V30 50 1 8 46
M  V30 51 1 8 47
M  V30 52 1 11 48
M  V30 53 1 12 49
M  V30 54 1 16 50
M  V30 55 1 17 51
M  V30 56 1 18 52
M  V30 57 1 23 53
M  V30 58 1 24 54
M  V30 59 1 25 55
M  V30 60 1 26 56
M  V30 61 1 28 57
M  V30 62 1 33 58
M  V30 63 1 34 59
M  V30 64 1 37 60
M  V30 65 1 37 61
M  V30 66 1 37 62
M  V30 67 1 38 63
M  V30 68 1 39 64
M  V30 END BOND
M  V30 END CTAB
M  END
>  <Dataset>  (757) 
ChEMBL_Kinases

>  <Ligand_Instance>  (757) 
nan

>  <PDB_ID>  (757) 
nan

>  <Standardized_SMILES>  (757) 
CCOC(=O)c1c(C)nc(NNC(=O)c2cccc3c(=O)c4ccccc4[nH]c23)nc1-c1ccc(OC)cc1

>  <Name>  (757) 
nan

>  <Pocket>  (757) 
nan

>  <ATP_Site>  (757) 
nan

>  <Peripheral>  (757) 
nan

>  <Num_H_Atoms_ProtBoundConf>  (757) 
nan

>  <Num_Resolved_Atoms>  (757) 
nan

>  <Num_Not_Resolved_Atoms>  (757) 
nan

$$$$
CHEMBL4169662
     RDKit          3D

  0  0  0  0  0  0  0  0  0  0999 V3000
M  V30 BEGIN CTAB
M  V30 COUNTS 57 61 0 0 0
M  V30 BEGIN ATOM
M  V30 1 C 3.328517 -3.365004 5.619998 0
M  V30 2 O 3.759202 -3.938470 4.406060 0
M  V30 3 C 3.571667 -3.287732 3.198101 0
M  V30 4 C 2.987728 -2.066487 2.942785 0
M  V30 5 C 2.887104 -1.575641 1.659672 0
M  V30 6 C 3.385251 -2.333760 0.621722 0
M  V30 7 N 3.263399 -1.832696 -0.703833 0
M  V30 8 C 2.749195 -0.630345 -1.265736 0
M  V30 9 N 3.517051 0.242839 -1.942798 0
M  V30 10 C 2.978957 1.389004 -2.455086 0
M  V30 11 C 1.633012 1.557169 -2.221808 0
M  V30 12 C 0.797508 0.715452 -1.546167 0
M  V30 13 C -0.602821 0.866958 -1.246990 0
M  V30 14 C -1.193080 0.037122 -0.285429 0
M  V30 15 N -2.496849 0.310431 -0.144455 0
M  V30 16 C -3.470227 -0.287742 0.731787 0
M  V30 17 C -4.164693 0.686868 1.636509 0
M  V30 18 C -5.619959 0.376505 1.598234 0
M  V30 19 C -5.780733 -0.950273 0.883957 0
M  V30 20 C -4.494484 -1.147243 0.069651 0
M  V30 21 C -2.842900 1.306630 -0.978326 0
M  V30 22 C -3.982934 2.044121 -1.337220 0
M  V30 23 C -3.976370 3.020536 -2.273615 0
M  V30 24 C -2.779313 3.322555 -2.926226 0
M  V30 25 C -1.660546 2.605535 -2.579044 0
M  V30 26 C -1.671196 1.623683 -1.635133 0
M  V30 27 N 1.460874 -0.362398 -1.102034 0
M  V30 28 C 3.983297 -3.563107 0.793533 0
M  V30 29 O 4.458930 -4.261949 -0.289829 0
M  V30 30 C 5.085522 -5.504055 -0.294471 0
M  V30 31 C 4.058728 -4.009770 2.103197 0
M  V30 32 H 2.227139 -3.252146 5.576929 0
M  V30 33 H 3.528567 -4.030412 6.481616 0
M  V30 34 H 3.756522 -2.347983 5.796292 0
M  V30 35 H 2.634121 -1.564306 3.835475 0
M  V30 36 H 2.420645 -0.614394 1.507396 0
M  V30 37 H 3.581989 -2.358755 -1.537295 0
M  V30 38 H 3.564965 2.109923 -3.002294 0
M  V30 39 H 1.255838 2.465276 -2.621081 0
M  V30 40 H -0.753365 -0.762735 0.333329 0
M  V30 41 H -2.894348 -0.975452 1.421441 0
M  V30 42 H -3.818647 0.605627 2.708553 0
M  V30 43 H -3.914768 1.749715 1.370997 0
M  V30 44 H -6.049042 0.332700 2.626411 0
M  V30 45 H -6.171487 1.195104 1.094210 0
M  V30 46 H -5.922109 -1.721506 1.653038 0
M  V30 47 H -6.627449 -0.842777 0.183950 0
M  V30 48 H -4.283951 -2.240439 0.166631 0
M  V30 49 H -4.641230 -0.982150 -1.005495 0
M  V30 50 H -4.878579 1.789304 -0.823136 0
M  V30 51 H -4.902589 3.537577 -2.486887 0
M  V30 52 H -2.818948 4.103340 -3.662291 0
M  V30 53 H -0.807448 2.894924 -3.135036 0
M  V30 54 H 5.869452 -5.518842 -1.106821 0
M  V30 55 H 5.591646 -5.736135 0.640060 0
M  V30 56 H 4.406024 -6.348297 -0.574872 0
M  V30 57 H 4.539227 -4.989646 2.212967 0
M  V30 END ATOM
M  V30 BEGIN BOND
M  V30 1 1 1 2
M  V30 2 1 2 3
M  V30 3 2 3 4
M  V30 4 1 4 5
M  V30 5 2 5 6
M  V30 6 1 6 7
M  V30 7 1 7 8
M  V30 8 2 8 9
M  V30 9 1 9 10
M  V30 10 2 10 11
M  V30 11 1 11 12
M  V30 12 1 12 13
M  V30 13 2 13 14
M  V30 14 1 14 15
M  V30 15 1 15 16
M  V30 16 1 16 17
M  V30 17 1 17 18
M  V30 18 1 18 19
M  V30 19 1 19 20
M  V30 20 1 15 21
M  V30 21 2 21 22
M  V30 22 1 22 23
M  V30 23 2 23 24
M  V30 24 1 24 25
M  V30 25 2 25 26
M  V30 26 2 12 27
M  V30 27 1 6 28
M  V30 28 1 28 29
M  V30 29 1 29 30
M  V30 30 2 28 31
M  V30 31 1 31 3
M  V30 32 1 27 8
M  V30 33 1 26 13
M  V30 34 1 20 16
M  V30 35 1 26 21
M  V30 36 1 1 32
M  V30 37 1 1 33
M  V30 38 1 1 34
M  V30 39 1 4 35
M  V30 40 1 5 36
M  V30 41 1 7 37
M  V30 42 1 10 38
M  V30 43 1 11 39
M  V30 44 1 14 40
M  V30 45 1 16 41
M  V30 46 1 17 42
M  V30 47 1 17 43
M  V30 48 1 18 44
M  V30 49 1 18 45
M  V30 50 1 19 46
M  V30 51 1 19 47
M  V30 52 1 20 48
M  V30 53 1 20 49
M  V30 54 1 22 50
M  V30 55 1 23 51
M  V30 56 1 24 52
M  V30 57 1 25 53
M  V30 58 1 30 54
M  V30 59 1 30 55
M  V30 60 1 30 56
M  V30 61 1 31 57
M  V30 END BOND
M  V30 END CTAB
M  END
>  <Dataset>  (758) 
ChEMBL_Kinases

>  <Ligand_Instance>  (758) 
nan

>  <PDB_ID>  (758) 
nan

>  <Standardized_SMILES>  (758) 
COc1ccc(Nc2nccc(-c3cn(C4CCCC4)c4ccccc34)n2)c(OC)c1

>  <Name>  (758) 
nan

>  <Pocket>  (758) 
nan

>  <ATP_Site>  (758) 
nan

>  <Peripheral>  (758) 
nan

>  <Num_H_Atoms_ProtBoundConf>  (758) 
nan

>  <Num_Resolved_Atoms>  (758) 
nan

>  <Num_Not_Resolved_Atoms>  (758) 
nan

$$$$
CHEMBL4786277
     RDKit          3D

  0  0  0  0  0  0  0  0  0  0999 V3000
M  V30 BEGIN CTAB
M  V30 COUNTS 53 56 0 0 0
M  V30 BEGIN ATOM
M  V30 1 C 4.879607 -1.456894 3.908771 0
M  V30 2 C 4.342873 -0.053998 3.772646 0
M  V30 3 C 3.211747 -0.064408 2.750839 0
M  V30 4 S 3.860416 -0.636637 1.183060 0
M  V30 5 O 5.001598 0.262181 0.746046 0
M  V30 6 O 4.425167 -2.019715 1.339749 0
M  V30 7 N 2.583087 -0.645826 0.037764 0
M  V30 8 C 1.905786 0.531576 -0.321476 0
M  V30 9 C 2.328603 1.320534 -1.369855 0
M  V30 10 F 3.423636 0.938139 -2.059637 0
M  V30 11 C 1.663146 2.466052 -1.713097 0
M  V30 12 C 0.560391 2.821842 -0.994190 0
M  V30 13 C 0.033789 2.111183 0.084018 0
M  V30 14 C -1.144494 2.509611 0.808484 0
M  V30 15 O -0.969924 3.743356 1.086584 0
M  V30 16 C -2.360833 1.882418 1.247271 0
M  V30 17 N -3.178428 2.548939 2.079591 0
M  V30 18 N -4.222551 1.777737 2.330785 0
M  V30 19 C -4.172993 0.592228 1.706728 0
M  V30 20 N -4.940208 -0.498240 1.623204 0
M  V30 21 C -4.546501 -1.533926 0.857122 0
M  V30 22 C -3.342855 -1.487624 0.143901 0
M  V30 23 C -2.998022 -2.655658 -0.659891 0
M  V30 24 C -4.038163 -3.173353 -1.423901 0
M  V30 25 C -3.858186 -4.292540 -2.245571 0
M  V30 26 C -2.624344 -4.907850 -2.309433 0
M  V30 27 Cl -2.288433 -6.311096 -3.302003 0
M  V30 28 C -1.599453 -4.386612 -1.547849 0
M  V30 29 C -1.772187 -3.283725 -0.736572 0
M  V30 30 C -0.700314 -2.710342 0.082108 0
M  V30 31 C -2.556279 -0.362387 0.233447 0
M  V30 32 C -2.979962 0.678000 1.021223 0
M  V30 33 C 0.787942 0.965576 0.346071 0
M  V30 34 F 0.384519 0.176493 1.383674 0
M  V30 35 H 5.758249 -1.627053 3.224638 0
M  V30 36 H 5.230701 -1.578259 4.957323 0
M  V30 37 H 4.072709 -2.183457 3.725564 0
M  V30 38 H 3.920367 0.244346 4.746242 0
M  V30 39 H 5.136367 0.641408 3.430979 0
M  V30 40 H 2.759010 0.925140 2.625469 0
M  V30 41 H 2.444446 -0.795533 3.072556 0
M  V30 42 H 2.290329 -1.541274 -0.412224 0
M  V30 43 H 2.015129 3.073164 -2.544302 0
M  V30 44 H 0.067726 3.738973 -1.305689 0
M  V30 45 H -5.007863 2.096316 2.969895 0
M  V30 46 H -5.178854 -2.427283 0.791227 0
M  V30 47 H -5.044417 -2.776660 -1.454733 0
M  V30 48 H -4.660644 -4.701623 -2.842557 0
M  V30 49 H -0.592226 -4.799578 -1.529402 0
M  V30 50 H -0.000030 -3.533011 0.412254 0
M  V30 51 H -1.022944 -2.223710 1.000116 0
M  V30 52 H -0.052185 -2.080740 -0.583041 0
M  V30 53 H -1.647983 -0.310182 -0.306325 0
M  V30 END ATOM
M  V30 BEGIN BOND
M  V30 1 1 1 2
M  V30 2 1 2 3
M  V30 3 1 3 4
M  V30 4 2 4 5
M  V30 5 2 4 6
M  V30 6 1 4 7
M  V30 7 1 7 8
M  V30 8 2 8 9
M  V30 9 1 9 10
M  V30 10 1 9 11
M  V30 11 2 11 12
M  V30 12 1 12 13
M  V30 13 1 13 14
M  V30 14 2 14 15
M  V30 15 1 14 16
M  V30 16 2 16 17
M  V30 17 1 17 18
M  V30 18 1 18 19
M  V30 19 2 19 20
M  V30 20 1 20 21
M  V30 21 2 21 22
M  V30 22 1 22 23
M  V30 23 2 23 24
M  V30 24 1 24 25
M  V30 25 2 25 26
M  V30 26 1 26 27
M  V30 27 1 26 28
M  V30 28 2 28 29
M  V30 29 1 29 30
M  V30 30 1 22 31
M  V30 31 2 31 32
M  V30 32 2 13 33
M  V30 33 1 33 34
M  V30 34 1 33 8
M  V30 35 1 32 16
M  V30 36 1 32 19
M  V30 37 1 29 23
M  V30 38 1 1 35
M  V30 39 1 1 36
M  V30 40 1 1 37
M  V30 41 1 2 38
M  V30 42 1 2 39
M  V30 43 1 3 40
M  V30 44 1 3 41
M  V30 45 1 7 42
M  V30 46 1 11 43
M  V30 47 1 12 44
M  V30 48 1 18 45
M  V30 49 1 21 46
M  V30 50 1 24 47
M  V30 51 1 25 48
M  V30 52 1 28 49
M  V30 53 1 30 50
M  V30 54 1 30 51
M  V30 55 1 30 52
M  V30 56 1 31 53
M  V30 END BOND
M  V30 END CTAB
M  END
>  <Dataset>  (759) 
ChEMBL_Kinases

>  <Ligand_Instance>  (759) 
nan

>  <PDB_ID>  (759) 
nan

>  <Standardized_SMILES>  (759) 
CCCS(=O)(=O)Nc1c(F)ccc(C(=O)c2n[nH]c3ncc(-c4ccc(Cl)cc4C)cc23)c1F

>  <Name>  (759) 
nan

>  <Pocket>  (759) 
nan

>  <ATP_Site>  (759) 
nan

>  <Peripheral>  (759) 
nan

>  <Num_H_Atoms_ProtBoundConf>  (759) 
nan

>  <Num_Resolved_Atoms>  (759) 
nan

>  <Num_Not_Resolved_Atoms>  (759) 
nan

$$$$
CHEMBL4786381
     RDKit          3D

  0  0  0  0  0  0  0  0  0  0999 V3000
M  V30 BEGIN CTAB
M  V30 COUNTS 75 79 0 0 0
M  V30 BEGIN ATOM
M  V30 1 C 0.600793 -5.784757 0.904192 0
M  V30 2 C 1.162008 -4.514583 1.485864 0
M  V30 3 C 0.117495 -3.775771 2.298157 0 CFG=1
M  V30 4 N 0.573511 -2.579596 2.842838 0
M  V30 5 C 1.032019 -1.395493 3.389137 0
M  V30 6 N 2.026859 -1.368127 4.327447 0
M  V30 7 C 2.468392 -0.193832 4.811773 0
M  V30 8 C 1.911193 0.971331 4.358899 0
M  V30 9 N 0.941773 1.130300 3.457721 0
M  V30 10 C 0.130743 2.044266 2.735811 0
M  V30 11 C 0.270486 1.962724 1.347473 0
M  V30 12 C -0.558064 2.723660 0.515952 0
M  V30 13 C -0.350789 2.538863 -0.910876 0
M  V30 14 O 0.713082 2.372420 -1.550344 0
M  V30 15 N -1.609357 2.561601 -1.590985 0
M  V30 16 C -1.812763 2.415134 -3.021106 0
M  V30 17 C -2.706017 1.178699 -3.384499 0
M  V30 18 C -3.168770 2.564780 -3.562407 0
M  V30 19 C -1.453981 3.505499 1.168049 0
M  V30 20 C -1.607372 3.603349 2.522191 0
M  V30 21 C -0.800783 2.858249 3.352008 0
M  V30 22 C -0.876738 2.876620 4.831529 0
M  V30 23 C 0.593773 -0.121851 3.053822 0
M  V30 24 O -0.355455 -0.218057 2.160896 0
M  V30 25 C -1.246887 -3.850721 1.685432 0
M  V30 26 C -2.352339 -4.486886 2.190091 0
M  V30 27 C -3.580623 -4.425048 1.573514 0
M  V30 28 C -3.777178 -3.719347 0.406224 0
M  V30 29 C -2.629638 -3.083725 -0.079984 0
M  V30 30 C -1.371437 -3.111227 0.495495 0
M  V30 31 O -0.335548 -2.473618 -0.064315 0
M  V30 32 C -0.153194 -1.677953 -1.173380 0
M  V30 33 C 1.348403 -1.387236 -1.286807 0
M  V30 34 N 1.689201 -0.552361 -2.405989 0
M  V30 35 C 1.456987 -1.258636 -3.626574 0
M  V30 36 C 2.766409 -1.463200 -4.335911 0
M  V30 37 C 3.820102 -0.962535 -3.401567 0
M  V30 38 C 3.090576 -0.166738 -2.369476 0
M  V30 39 H -0.394428 -6.004314 1.365312 0
M  V30 40 H 0.360200 -5.657067 -0.185894 0
M  V30 41 H 1.313753 -6.633033 0.959054 0
M  V30 42 H 1.997392 -4.813663 2.165373 0
M  V30 43 H 1.544735 -3.929716 0.653796 0
M  V30 44 H -0.007892 -4.486450 3.213300 0
M  V30 45 H -0.070386 -2.303442 2.113313 0
M  V30 46 H 3.231991 0.003915 5.542713 0
M  V30 47 H 2.160833 2.005698 4.654338 0
M  V30 48 H 1.022508 1.313961 0.905044 0
M  V30 49 H -2.522966 2.677729 -1.084305 0
M  V30 50 H -0.956615 2.490402 -3.706110 0
M  V30 51 H -2.384207 0.578838 -4.265399 0
M  V30 52 H -3.040792 0.567860 -2.527824 0
M  V30 53 H -3.346088 2.913047 -4.591005 0
M  V30 54 H -4.020822 2.881135 -2.893667 0
M  V30 55 H -2.089285 4.077086 0.486250 0
M  V30 56 H -2.363731 4.261502 2.955680 0
M  V30 57 H -0.591638 1.907371 5.251549 0
M  V30 58 H -1.901840 3.161324 5.161691 0
M  V30 59 H -0.203680 3.630248 5.290639 0
M  V30 60 H -2.180744 -5.044023 3.097118 0
M  V30 61 H -4.384071 -4.962927 2.057767 0
M  V30 62 H -4.702775 -3.660375 -0.088042 0
M  V30 63 H -2.807411 -2.532451 -1.015769 0
M  V30 64 H -0.465165 -2.193928 -2.089636 0
M  V30 65 H -0.683075 -0.685218 -1.106039 0
M  V30 66 H 1.872543 -2.393266 -1.368065 0
M  V30 67 H 1.676419 -1.002495 -0.303541 0
M  V30 68 H 0.766821 -0.646615 -4.247930 0
M  V30 69 H 0.970125 -2.252866 -3.418828 0
M  V30 70 H 2.777223 -0.893037 -5.263047 0
M  V30 71 H 2.928289 -2.567030 -4.479942 0
M  V30 72 H 4.563361 -0.323128 -3.921770 0
M  V30 73 H 4.411220 -1.807976 -2.924630 0
M  V30 74 H 3.148205 0.901422 -2.646843 0
M  V30 75 H 3.561239 -0.395830 -1.394100 0
M  V30 END ATOM
M  V30 BEGIN BOND
M  V30 1 1 1 2
M  V30 2 1 2 3
M  V30 3 1 3 4
M  V30 4 1 4 5
M  V30 5 2 5 6
M  V30 6 1 6 7
M  V30 7 2 7 8
M  V30 8 1 8 9
M  V30 9 1 9 10
M  V30 10 2 10 11
M  V30 11 1 11 12
M  V30 12 1 12 13
M  V30 13 2 13 14
M  V30 14 1 13 15
M  V30 15 1 15 16
M  V30 16 1 16 17
M  V30 17 1 17 18
M  V30 18 2 12 19
M  V30 19 1 19 20
M  V30 20 2 20 21
M  V30 21 1 21 22
M  V30 22 1 9 23
M  V30 23 2 23 24
M  V30 24 1 3 25
M  V30 25 2 25 26
M  V30 26 1 26 27
M  V30 27 2 27 28
M  V30 28 1 28 29
M  V30 29 2 29 30
M  V30 30 1 30 31
M  V30 31 1 31 32
M  V30 32 1 32 33
M  V30 33 1 33 34
M  V30 34 1 34 35
M  V30 35 1 35 36
M  V30 36 1 36 37
M  V30 37 1 37 38
M  V30 38 1 23 5
M  V30 39 1 30 25
M  V30 40 1 38 34
M  V30 41 1 21 10
M  V30 42 1 18 16
M  V30 43 1 1 39
M  V30 44 1 1 40
M  V30 45 1 1 41
M  V30 46 1 2 42
M  V30 47 1 2 43
M  V30 48 1 3 44 CFG=1
M  V30 49 1 4 45
M  V30 50 1 7 46
M  V30 51 1 8 47
M  V30 52 1 11 48
M  V30 53 1 15 49
M  V30 54 1 16 50
M  V30 55 1 17 51
M  V30 56 1 17 52
M  V30 57 1 18 53
M  V30 58 1 18 54
M  V30 59 1 19 55
M  V30 60 1 20 56
M  V30 61 1 22 57
M  V30 62 1 22 58
M  V30 63 1 22 59
M  V30 64 1 26 60
M  V30 65 1 27 61
M  V30 66 1 28 62
M  V30 67 1 29 63
M  V30 68 1 32 64
M  V30 69 1 32 65
M  V30 70 1 33 66
M  V30 71 1 33 67
M  V30 72 1 35 68
M  V30 73 1 35 69
M  V30 74 1 36 70
M  V30 75 1 36 71
M  V30 76 1 37 72
M  V30 77 1 37 73
M  V30 78 1 38 74
M  V30 79 1 38 75
M  V30 END BOND
M  V30 END CTAB
M  END
>  <Dataset>  (760) 
ChEMBL_Kinases

>  <Ligand_Instance>  (760) 
nan

>  <PDB_ID>  (760) 
nan

>  <Standardized_SMILES>  (760) 
CC[C@@H](Nc1nccn(-c2cc(C(=O)NC3CC3)ccc2C)c1=O)c1ccccc1OCCN1CCCC1

>  <Name>  (760) 
nan

>  <Pocket>  (760) 
nan

>  <ATP_Site>  (760) 
nan

>  <Peripheral>  (760) 
nan

>  <Num_H_Atoms_ProtBoundConf>  (760) 
nan

>  <Num_Resolved_Atoms>  (760) 
nan

>  <Num_Not_Resolved_Atoms>  (760) 
nan

$$$$
CHEMBL4169451
     RDKit          3D

  0  0  0  0  0  0  0  0  0  0999 V3000
M  V30 BEGIN CTAB
M  V30 COUNTS 203 208 0 0 0
M  V30 BEGIN ATOM
M  V30 1 C -5.341896 -6.107496 4.421102 0
M  V30 2 N -5.482530 -5.038035 3.454011 0
M  V30 3 C -6.427815 -3.988974 3.794393 0
M  V30 4 C -4.777235 -4.949294 2.214098 0
M  V30 5 C -5.034400 -3.838166 1.407953 0
M  V30 6 C -4.350168 -3.754462 0.226594 0
M  V30 7 C -3.435584 -4.656738 -0.244812 0
M  V30 8 C -2.767322 -4.509572 -1.477409 0
M  V30 9 C -3.135837 -3.244227 -2.112113 0
M  V30 10 C -4.270147 -2.974530 -2.839296 0
M  V30 11 C -4.464829 -1.646175 -3.220084 0
M  V30 12 C -3.515405 -0.723409 -2.839093 0
M  V30 13 C -3.789505 0.689076 -3.204304 0
M  V30 14 O -4.162395 1.601251 -3.924919 0
M  V30 15 N -3.450131 1.609820 -2.129626 0
M  V30 16 C -3.354235 2.982211 -1.559030 0
M  V30 17 C -2.767082 2.853972 -0.195384 0
M  V30 18 C -2.518471 4.084128 0.595967 0
M  V30 19 C -1.903508 3.675656 1.954186 0
M  V30 20 C -1.594503 4.854905 2.787350 0 CFG=1
M  V30 21 N -1.014214 4.411028 4.090728 0
M  V30 22 C -1.585539 4.916047 5.286723 0
M  V30 23 O -2.563425 5.744468 5.158877 0
M  V30 24 C -1.454212 4.825831 6.733369 0 CFG=1
M  V30 25 C -2.779300 4.291902 7.297434 0
M  V30 26 C -3.065096 2.944255 6.736883 0
M  V30 27 O -4.134256 2.401075 7.137685 0
M  V30 28 O -2.777196 1.848026 5.940465 0
M  V30 29 N -0.463653 3.884489 7.211898 0
M  V30 30 C 0.641736 3.810333 8.100071 0
M  V30 31 O 0.904784 4.886954 8.678271 0
M  V30 32 C 1.421008 2.575349 8.356808 0 CFG=1
M  V30 33 C 0.787318 2.083423 9.700448 0
M  V30 34 C 1.369691 0.862391 10.226501 0
M  V30 35 O 0.936564 -0.330998 10.087415 0
M  V30 36 O 2.545851 0.884566 10.991670 0
M  V30 37 N 1.291864 1.551835 7.373522 0
M  V30 38 C 2.146996 0.392762 7.259599 0
M  V30 39 O 3.074148 0.166738 8.044144 0
M  V30 40 C 1.980691 -0.617492 6.204363 0 CFG=1
M  V30 41 C 1.216752 -1.805027 6.768749 0
M  V30 42 C -0.141952 -1.486423 7.265817 0
M  V30 43 O -0.957377 -0.557030 7.392994 0
M  V30 44 O -0.727204 -2.633051 7.778164 0
M  V30 45 N 1.350168 -0.088780 5.016755 0
M  V30 46 C 1.496289 -0.948180 3.883275 0
M  V30 47 O 2.094139 -2.032067 4.095234 0
M  V30 48 C 0.971486 -0.589966 2.524446 0 CFG=1
M  V30 49 C -0.483734 -0.993700 2.472833 0
M  V30 50 C -0.611223 -2.447324 2.673717 0
M  V30 51 O 0.257733 -3.377750 2.822590 0
M  V30 52 O -1.572891 -3.423047 2.792571 0
M  V30 53 N 1.033769 0.857553 2.335979 0
M  V30 54 C 2.095087 1.207678 1.390193 0
M  V30 55 O 2.837398 0.384273 0.816121 0
M  V30 56 C 2.214038 2.665386 1.166538 0 CFG=1
M  V30 57 C 2.370378 3.412003 2.479517 0
M  V30 58 C 3.608362 2.930472 3.198520 0
M  V30 59 O 3.934416 3.528761 4.265815 0
M  V30 60 O 4.544431 1.935541 2.976598 0
M  V30 61 N 3.289790 2.965756 0.280255 0
M  V30 62 C 3.487307 3.424527 -1.008959 0
M  V30 63 O 2.457029 3.656607 -1.727001 0
M  V30 64 C 4.579862 3.765934 -1.910191 0 CFG=1
M  V30 65 C 5.907466 3.174534 -1.712877 0
M  V30 66 C 6.580388 3.522622 -0.437094 0
M  V30 67 O 6.182771 4.398587 0.410004 0
M  V30 68 O 7.347956 3.694668 0.685807 0
M  V30 69 N 4.186960 3.960230 -3.281170 0
M  V30 70 C 3.464120 4.912549 -4.050805 0
M  V30 71 O 3.006096 5.865504 -3.354425 0
M  V30 72 C 3.315174 4.720981 -5.498930 0
M  V30 73 C 2.018721 5.433942 -5.964836 0
M  V30 74 C 0.864457 4.800274 -5.264037 0
M  V30 75 C -0.506707 5.319710 -5.619452 0
M  V30 76 C -1.494598 4.472871 -4.747795 0
M  V30 77 N -1.218827 3.067490 -5.085306 0
M  V30 78 C -1.428219 2.468138 -6.386006 0
M  V30 79 O -1.926677 3.242103 -7.230583 0
M  V30 80 C -0.965724 1.054951 -6.328019 0
M  V30 81 C -1.388885 0.297654 -7.559045 0
M  V30 82 C -0.823099 -1.061595 -7.485595 0
M  V30 83 O -0.041781 -0.636623 -6.549967 0
M  V30 84 N -0.660304 -2.408837 -7.813487 0
M  V30 85 C 0.289179 -3.307567 -7.251432 0
M  V30 86 N 0.572016 -4.457063 -7.194370 0
M  V30 87 C 1.636087 -4.974270 -6.618666 0
M  V30 88 C 2.527318 -4.150443 -6.017394 0
M  V30 89 C 3.807605 -4.159859 -5.310466 0
M  V30 90 C 4.455164 -5.319677 -4.987113 0
M  V30 91 C 5.678464 -5.382271 -4.356824 0
M  V30 92 C 6.242224 -4.159201 -4.053851 0
M  V30 93 C 7.541112 -3.945171 -3.368626 0
M  V30 94 O 8.119898 -2.864961 -3.092304 0
M  V30 95 O 8.272997 -5.078937 -2.942894 0
M  V30 96 C 5.639045 -2.969802 -4.353803 0
M  V30 97 C 4.395010 -2.930409 -4.995802 0
M  V30 98 S 1.687328 -2.558108 -6.355748 0
M  V30 99 C -0.607641 5.766364 2.135023 0
M  V30 100 O 0.458895 6.036972 2.720358 0
M  V30 101 O 0.089077 6.618526 1.292311 0
M  V30 102 C -2.382562 -0.993019 -2.117786 0
M  V30 103 C -2.198082 -2.297906 -1.749237 0
M  V30 104 C -0.968382 -2.569645 -0.997725 0
M  V30 105 O -0.423819 -3.518291 -0.438090 0
M  V30 106 O -0.040733 -1.554352 -0.763895 0 CHG=-1 VAL=1
M  V30 107 C -1.874617 -5.493561 -1.828109 0
M  V30 108 C -1.254495 -5.290662 -3.023541 0
M  V30 109 C -0.354716 -6.276568 -3.349397 0
M  V30 110 C -0.052950 -7.385014 -2.603718 0
M  V30 111 N 0.792730 -8.316830 -2.805221 0 CHG=1 VAL=4
M  V30 112 C 1.593425 -8.214522 -4.039274 0
M  V30 113 C 1.006451 -9.436324 -1.916733 0
M  V30 114 C -0.735427 -7.520467 -1.387073 0
M  V30 115 C -1.665267 -6.614340 -0.924932 0
M  V30 116 O -2.324133 -6.699655 0.215470 0
M  V30 117 C -3.194368 -5.760551 0.573951 0
M  V30 118 C -3.864476 -5.901863 1.799308 0
M  V30 119 H -4.634890 -5.736945 5.196191 0
M  V30 120 H -5.056753 -7.045326 3.944877 0
M  V30 121 H -6.312077 -6.280052 4.968386 0
M  V30 122 H -6.955174 -4.178315 4.727200 0
M  V30 123 H -5.916745 -2.988758 3.913216 0
M  V30 124 H -7.216074 -3.919957 2.982246 0
M  V30 125 H -5.753766 -3.078207 1.716255 0
M  V30 126 H -4.592182 -2.872433 -0.352558 0
M  V30 127 H -4.910490 -3.810893 -3.063974 0
M  V30 128 H -5.346448 -1.399869 -3.789290 0
M  V30 129 H -3.089134 1.055353 -1.261356 0
M  V30 130 H -2.668237 3.523618 -2.236119 0
M  V30 131 H -4.360657 3.445729 -1.557613 0
M  V30 132 H -3.477857 2.219081 0.418708 0
M  V30 133 H -1.824307 2.238399 -0.230968 0
M  V30 134 H -1.807248 4.745221 0.111607 0
M  V30 135 H -3.456668 4.634706 0.855274 0
M  V30 136 H -2.638499 2.998412 2.431736 0
M  V30 137 H -1.003978 3.061877 1.716357 0
M  V30 138 H -2.484992 5.467113 2.980977 0
M  V30 139 H -0.275369 3.798907 4.476029 0
M  V30 140 H -1.237504 5.795864 7.223752 0
M  V30 141 H -2.773980 4.214564 8.396910 0
M  V30 142 H -3.594334 4.970355 7.002470 0
M  V30 143 H -2.903033 1.910439 4.945406 0
M  V30 144 H -0.735173 3.024955 6.670674 0
M  V30 145 H 2.435439 2.823602 8.661438 0
M  V30 146 H 0.922886 2.899034 10.462228 0
M  V30 147 H -0.332522 2.012187 9.574550 0
M  V30 148 H 2.678828 0.201950 11.743097 0
M  V30 149 H 0.576927 1.545358 6.640832 0
M  V30 150 H 2.949928 -1.038318 5.907722 0
M  V30 151 H 1.206559 -2.686192 6.111011 0
M  V30 152 H 1.815914 -2.107042 7.674479 0
M  V30 153 H -1.474146 -2.629367 8.485698 0
M  V30 154 H 0.802668 0.800364 4.779906 0
M  V30 155 H 1.563004 -1.124268 1.786876 0
M  V30 156 H -0.974625 -0.426669 3.313379 0
M  V30 157 H -0.994451 -0.661933 1.566888 0
M  V30 158 H -1.989535 -3.753554 3.646587 0
M  V30 159 H 0.408599 1.526159 2.821974 0
M  V30 160 H 1.222813 3.000826 0.735441 0
M  V30 161 H 2.548719 4.483881 2.305996 0
M  V30 162 H 1.527425 3.256868 3.130883 0
M  V30 163 H 5.505280 2.200302 2.718150 0
M  V30 164 H 4.188110 2.754717 0.751396 0
M  V30 165 H 4.747042 4.904252 -1.585391 0
M  V30 166 H 5.930417 2.059039 -1.751308 0
M  V30 167 H 6.590940 3.541254 -2.536079 0
M  V30 168 H 8.289372 3.272255 0.786226 0
M  V30 169 H 4.557705 3.126029 -3.837434 0
M  V30 170 H 3.323160 3.673389 -5.788622 0
M  V30 171 H 4.119610 5.314135 -6.007192 0
M  V30 172 H 2.080018 6.507883 -5.730791 0
M  V30 173 H 1.906249 5.302523 -7.049563 0
M  V30 174 H 0.834859 3.683400 -5.469087 0
M  V30 175 H 1.063687 4.857455 -4.179742 0
M  V30 176 H -0.786950 5.165292 -6.664083 0
M  V30 177 H -0.638365 6.388589 -5.371094 0
M  V30 178 H -2.528171 4.737782 -4.993109 0
M  V30 179 H -1.250420 4.685091 -3.713784 0
M  V30 180 H -0.836639 2.544296 -4.236686 0
M  V30 181 H -1.323467 0.561151 -5.397608 0
M  V30 182 H 0.164363 1.126601 -6.360508 0
M  V30 183 H -0.898276 0.813194 -8.414771 0
M  V30 184 H -2.480710 0.299975 -7.714617 0
M  V30 185 H -1.424373 -2.409080 -8.523964 0
M  V30 186 H 1.896921 -6.024950 -6.563873 0
M  V30 187 H 3.968970 -6.238321 -5.251236 0
M  V30 188 H 6.227766 -6.245813 -4.078052 0
M  V30 189 H 8.575154 -5.153905 -1.954914 0
M  V30 190 H 6.033803 -1.982405 -4.132075 0
M  V30 191 H 3.945340 -1.967220 -5.221661 0
M  V30 192 H -0.268980 7.467347 0.878143 0
M  V30 193 H -1.674584 -0.200566 -1.864921 0
M  V30 194 H -1.456009 -4.439630 -3.646796 0
M  V30 195 H 0.213545 -6.244021 -4.272304 0
M  V30 196 H 2.321584 -9.033487 -4.101535 0
M  V30 197 H 2.194946 -7.267168 -3.978521 0
M  V30 198 H 0.952063 -8.148641 -4.937115 0
M  V30 199 H 0.089196 -10.010675 -1.715542 0
M  V30 200 H 1.798633 -10.081507 -2.346045 0
M  V30 201 H 1.360872 -8.979790 -0.939922 0
M  V30 202 H -0.587958 -8.371552 -0.696504 0
M  V30 203 H -3.652088 -6.778642 2.409815 0
M  V30 END ATOM
M  V30 BEGIN BOND
M  V30 1 1 1 2
M  V30 2 1 2 3
M  V30 3 1 2 4
M  V30 4 2 4 5
M  V30 5 1 5 6
M  V30 6 2 6 7
M  V30 7 1 7 8
M  V30 8 1 8 9
M  V30 9 2 9 10
M  V30 10 1 10 11
M  V30 11 2 11 12
M  V30 12 1 12 13
M  V30 13 2 13 14
M  V30 14 1 13 15
M  V30 15 1 15 16
M  V30 16 1 16 17
M  V30 17 1 17 18
M  V30 18 1 18 19
M  V30 19 1 19 20
M  V30 20 1 20 21
M  V30 21 1 21 22
M  V30 22 2 22 23
M  V30 23 1 22 24
M  V30 24 1 24 25
M  V30 25 1 25 26
M  V30 26 2 26 27
M  V30 27 1 26 28
M  V30 28 1 24 29
M  V30 29 1 29 30
M  V30 30 2 30 31
M  V30 31 1 30 32
M  V30 32 1 32 33
M  V30 33 1 33 34
M  V30 34 2 34 35
M  V30 35 1 34 36
M  V30 36 1 32 37
M  V30 37 1 37 38
M  V30 38 2 38 39
M  V30 39 1 38 40
M  V30 40 1 40 41
M  V30 41 1 41 42
M  V30 42 2 42 43
M  V30 43 1 42 44
M  V30 44 1 40 45
M  V30 45 1 45 46
M  V30 46 2 46 47
M  V30 47 1 46 48
M  V30 48 1 48 49
M  V30 49 1 49 50
M  V30 50 2 50 51
M  V30 51 1 50 52
M  V30 52 1 48 53
M  V30 53 1 53 54
M  V30 54 2 54 55
M  V30 55 1 54 56
M  V30 56 1 56 57
M  V30 57 1 57 58
M  V30 58 2 58 59
M  V30 59 1 58 60
M  V30 60 1 56 61
M  V30 61 1 61 62
M  V30 62 2 62 63
M  V30 63 1 62 64
M  V30 64 1 64 65
M  V30 65 1 65 66
M  V30 66 2 66 67
M  V30 67 1 66 68
M  V30 68 1 64 69
M  V30 69 1 69 70
M  V30 70 2 70 71
M  V30 71 1 70 72
M  V30 72 1 72 73
M  V30 73 1 73 74
M  V30 74 1 74 75
M  V30 75 1 75 76
M  V30 76 1 76 77
M  V30 77 1 77 78
M  V30 78 2 78 79
M  V30 79 1 78 80
M  V30 80 1 80 81
M  V30 81 1 81 82
M  V30 82 2 82 83
M  V30 83 1 82 84
M  V30 84 1 84 85
M  V30 85 2 85 86
M  V30 86 1 86 87
M  V30 87 2 87 88
M  V30 88 1 88 89
M  V30 89 2 89 90
M  V30 90 1 90 91
M  V30 91 2 91 92
M  V30 92 1 92 93
M  V30 93 2 93 94
M  V30 94 1 93 95
M  V30 95 1 92 96
M  V30 96 2 96 97
M  V30 97 1 88 98
M  V30 98 1 20 99
M  V30 99 2 99 100
M  V30 100 1 99 101
M  V30 101 1 12 102
M  V30 102 2 102 103
M  V30 103 1 103 104
M  V30 104 2 104 105
M  V30 105 1 104 106
M  V30 106 2 8 107
M  V30 107 1 107 108
M  V30 108 2 108 109
M  V30 109 1 109 110
M  V30 110 2 110 111 CFG=2
M  V30 111 1 111 112
M  V30 112 1 111 113
M  V30 113 1 110 114
M  V30 114 2 114 115
M  V30 115 1 115 116
M  V30 116 1 116 117
M  V30 117 2 117 118
M  V30 118 1 118 4
M  V30 119 1 117 7
M  V30 120 1 103 9
M  V30 121 1 115 107
M  V30 122 1 98 85
M  V30 123 1 97 89
M  V30 124 1 1 119
M  V30 125 1 1 120
M  V30 126 1 1 121
M  V30 127 1 3 122
M  V30 128 1 3 123
M  V30 129 1 3 124
M  V30 130 1 5 125
M  V30 131 1 6 126
M  V30 132 1 10 127
M  V30 133 1 11 128
M  V30 134 1 15 129
M  V30 135 1 16 130
M  V30 136 1 16 131
M  V30 137 1 17 132
M  V30 138 1 17 133
M  V30 139 1 18 134
M  V30 140 1 18 135
M  V30 141 1 19 136
M  V30 142 1 19 137
M  V30 143 1 20 138 CFG=1
M  V30 144 1 21 139
M  V30 145 1 24 140 CFG=1
M  V30 146 1 25 141
M  V30 147 1 25 142
M  V30 148 1 28 143
M  V30 149 1 29 144
M  V30 150 1 32 145 CFG=1
M  V30 151 1 33 146
M  V30 152 1 33 147
M  V30 153 1 36 148
M  V30 154 1 37 149
M  V30 155 1 40 150 CFG=3
M  V30 156 1 41 151
M  V30 157 1 41 152
M  V30 158 1 44 153
M  V30 159 1 45 154
M  V30 160 1 48 155 CFG=3
M  V30 161 1 49 156
M  V30 162 1 49 157
M  V30 163 1 52 158
M  V30 164 1 53 159
M  V30 165 1 56 160 CFG=3
M  V30 166 1 57 161
M  V30 167 1 57 162
M  V30 168 1 60 163
M  V30 169 1 61 164
M  V30 170 1 64 165 CFG=1
M  V30 171 1 65 166
M  V30 172 1 65 167
M  V30 173 1 68 168
M  V30 174 1 69 169
M  V30 175 1 72 170
M  V30 176 1 72 171
M  V30 177 1 73 172
M  V30 178 1 73 173
M  V30 179 1 74 174
M  V30 180 1 74 175
M  V30 181 1 75 176
M  V30 182 1 75 177
M  V30 183 1 76 178
M  V30 184 1 76 179
M  V30 185 1 77 180
M  V30 186 1 80 181
M  V30 187 1 80 182
M  V30 188 1 81 183
M  V30 189 1 81 184
M  V30 190 1 84 185
M  V30 191 1 87 186
M  V30 192 1 90 187
M  V30 193 1 91 188
M  V30 194 1 95 189
M  V30 195 1 96 190
M  V30 196 1 97 191
M  V30 197 1 101 192
M  V30 198 1 102 193
M  V30 199 1 108 194
M  V30 200 1 109 195
M  V30 201 1 112 196
M  V30 202 1 112 197
M  V30 203 1 112 198
M  V30 204 1 113 199
M  V30 205 1 113 200
M  V30 206 1 113 201
M  V30 207 1 114 202
M  V30 208 1 118 203
M  V30 END BOND
M  V30 END CTAB
M  END
>  <Dataset>  (761) 
ChEMBL_Kinases

>  <Ligand_Instance>  (761) 
nan

>  <PDB_ID>  (761) 
nan

>  <Standardized_SMILES>  (761) 
CN(C)c1ccc2c(-c3ccc(C(=O)NCCCC[C@@H](NC(=O)[C@@H](CC(=O)O)NC(=O)[C@@H](CC(=O)O)NC(=O)[C@@H](CC(=O)O)NC(=O)[C@@H](CC(=O)O)NC(=O)[C@@H](CC(=O)O)NC(=O)[C@@H](CC(=O)O)NC(=O)CCCCCNC(=O)CCC(=O)Nc4ncc(-c5ccc(C(=O)O)cc5)s4)C(=O)O)cc3C(=O)[O-])c3ccc(=[N+](C)C)cc-3oc2c1

>  <Name>  (761) 
nan

>  <Pocket>  (761) 
nan

>  <ATP_Site>  (761) 
nan

>  <Peripheral>  (761) 
nan

>  <Num_H_Atoms_ProtBoundConf>  (761) 
nan

>  <Num_Resolved_Atoms>  (761) 
nan

>  <Num_Not_Resolved_Atoms>  (761) 
nan

$$$$
CHEMBL4169439
     RDKit          3D

  0  0  0  0  0  0  0  0  0  0999 V3000
M  V30 BEGIN CTAB
M  V30 COUNTS 58 62 0 0 0
M  V30 BEGIN ATOM
M  V30 1 C 5.081183 -4.021378 5.890853 0
M  V30 2 C 4.123612 -3.105329 5.213085 0
M  V30 3 O 2.925464 -3.229074 5.570846 0
M  V30 4 N 4.624950 -2.192060 4.245391 0
M  V30 5 N 3.853654 -1.258768 3.513705 0
M  V30 6 C 4.147918 0.003642 3.510577 0
M  V30 7 C 3.360491 0.993447 2.757175 0
M  V30 8 C 3.605243 2.370222 2.697807 0
M  V30 9 C 4.712612 3.073267 3.391415 0
M  V30 10 N 2.632388 2.889020 1.889983 0
M  V30 11 N 1.849554 1.909833 1.483297 0
M  V30 12 C 0.738489 2.126908 0.627411 0
M  V30 13 C 0.696417 2.099971 -0.759184 0
M  V30 14 C -0.459628 2.335426 -1.443704 0
M  V30 15 C -1.655055 2.613765 -0.816323 0
M  V30 16 C -1.672522 2.653570 0.564673 0
M  V30 17 C -0.490798 2.412052 1.233865 0
M  V30 18 C 2.231201 0.732938 1.969732 0
M  V30 19 O 1.747272 -0.553062 1.836883 0
M  V30 20 C 0.644637 -0.903639 1.081459 0
M  V30 21 C -0.675914 -0.960941 1.478134 0
M  V30 22 C -1.673847 -1.333089 0.600171 0
M  V30 23 C -1.327581 -1.651237 -0.697036 0
M  V30 24 C -2.383088 -2.051550 -1.650432 0
M  V30 25 N -3.706521 -2.140540 -1.368570 0
M  V30 26 C -4.397361 -2.529922 -2.448220 0
M  V30 27 C -5.756271 -2.756038 -2.640810 0
M  V30 28 C -6.129530 -3.157133 -3.906458 0
M  V30 29 N -7.517009 -3.393482 -4.122411 0 CHG=1 VAL=4
M  V30 30 O -7.968682 -3.759975 -5.229477 0
M  V30 31 O -8.611697 -3.301292 -3.295871 0 CHG=-1 VAL=1
M  V30 32 C -5.264301 -3.344611 -4.969686 0
M  V30 33 C -3.932810 -3.098853 -4.694395 0
M  V30 34 C -3.461065 -2.695117 -3.463934 0
M  V30 35 N -2.251367 -2.400916 -2.960047 0
M  V30 36 C -0.034269 -1.620768 -1.177510 0
M  V30 37 C 0.935502 -1.237406 -0.246527 0
M  V30 38 H 5.076826 -3.714371 6.958693 0
M  V30 39 H 4.714078 -5.071208 5.869788 0
M  V30 40 H 6.107804 -3.904597 5.514885 0
M  V30 41 H 5.629890 -2.175317 4.028208 0
M  V30 42 H 4.997508 0.359516 4.075264 0
M  V30 43 H 5.706703 2.711625 3.024652 0
M  V30 44 H 4.704933 2.916711 4.477561 0
M  V30 45 H 4.652995 4.150303 3.115871 0
M  V30 46 H 1.661139 1.876646 -1.218688 0
M  V30 47 H -0.358769 2.285072 -2.526975 0
M  V30 48 H -2.526246 2.789230 -1.403278 0
M  V30 49 H -2.575891 2.865460 1.105401 0
M  V30 50 H -0.552160 2.453995 2.328762 0
M  V30 51 H -0.845526 -0.695115 2.507631 0
M  V30 52 H -2.673145 -1.359168 0.961928 0
M  V30 53 H -6.478261 -2.626937 -1.851383 0
M  V30 54 H -5.633536 -3.660809 -5.933182 0
M  V30 55 H -3.235307 -3.238527 -5.510121 0
M  V30 56 H -1.340280 -2.431773 -3.483684 0
M  V30 57 H 0.214566 -1.869691 -2.182437 0
M  V30 58 H 1.956015 -1.216775 -0.637498 0
M  V30 END ATOM
M  V30 BEGIN BOND
M  V30 1 1 1 2
M  V30 2 2 2 3
M  V30 3 1 2 4
M  V30 4 1 4 5
M  V30 5 2 5 6
M  V30 6 1 6 7
M  V30 7 1 7 8
M  V30 8 1 8 9
M  V30 9 2 8 10
M  V30 10 1 10 11
M  V30 11 1 11 12
M  V30 12 2 12 13
M  V30 13 1 13 14
M  V30 14 2 14 15
M  V30 15 1 15 16
M  V30 16 2 16 17
M  V30 17 1 11 18
M  V30 18 1 18 19
M  V30 19 1 19 20
M  V30 20 2 20 21
M  V30 21 1 21 22
M  V30 22 2 22 23
M  V30 23 1 23 24
M  V30 24 2 24 25
M  V30 25 1 25 26
M  V30 26 2 26 27
M  V30 27 1 27 28
M  V30 28 1 28 29
M  V30 29 2 29 30
M  V30 30 1 29 31
M  V30 31 2 28 32
M  V30 32 1 32 33
M  V30 33 2 33 34
M  V30 34 1 34 35
M  V30 35 1 23 36
M  V30 36 2 36 37
M  V30 37 2 18 7
M  V30 38 1 37 20
M  V30 39 1 17 12
M  V30 40 1 35 24
M  V30 41 1 34 26
M  V30 42 1 1 38
M  V30 43 1 1 39
M  V30 44 1 1 40
M  V30 45 1 4 41
M  V30 46 1 6 42
M  V30 47 1 9 43
M  V30 48 1 9 44
M  V30 49 1 9 45
M  V30 50 1 13 46
M  V30 51 1 14 47
M  V30 52 1 15 48
M  V30 53 1 16 49
M  V30 54 1 17 50
M  V30 55 1 21 51
M  V30 56 1 22 52
M  V30 57 1 27 53
M  V30 58 1 32 54
M  V30 59 1 33 55
M  V30 60 1 35 56
M  V30 61 1 36 57
M  V30 62 1 37 58
M  V30 END BOND
M  V30 END CTAB
M  END
>  <Dataset>  (762) 
ChEMBL_Kinases

>  <Ligand_Instance>  (762) 
nan

>  <PDB_ID>  (762) 
nan

>  <Standardized_SMILES>  (762) 
CC(=O)N/N=C/c1c(C)nn(-c2ccccc2)c1Oc1ccc(-c2nc3cc([N+](=O)[O-])ccc3[nH]2)cc1

>  <Name>  (762) 
nan

>  <Pocket>  (762) 
nan

>  <ATP_Site>  (762) 
nan

>  <Peripheral>  (762) 
nan

>  <Num_H_Atoms_ProtBoundConf>  (762) 
nan

>  <Num_Resolved_Atoms>  (762) 
nan

>  <Num_Not_Resolved_Atoms>  (762) 
nan

$$$$
CHEMBL4169344
     RDKit          3D

  0  0  0  0  0  0  0  0  0  0999 V3000
M  V30 BEGIN CTAB
M  V30 COUNTS 67 72 0 0 0
M  V30 BEGIN ATOM
M  V30 1 C 2.590916 1.268699 1.911971 0
M  V30 2 C 1.995020 1.711227 0.603855 0 CFG=2
M  V30 3 C 3.027773 1.735130 -0.486735 0
M  V30 4 C 4.176892 2.650205 -0.170840 0
M  V30 5 C 3.842792 3.955629 0.449778 0 CFG=2
M  V30 6 O 4.763727 4.210586 1.473314 0
M  V30 7 C 2.487152 4.152626 0.987620 0
M  V30 8 C 1.466923 3.120309 0.703330 0 CFG=2
M  V30 9 C 0.324255 3.211162 1.709998 0
M  V30 10 C -0.720860 2.166160 1.492297 0
M  V30 11 C -0.091815 0.770544 1.356915 0 CFG=2
M  V30 12 C 0.820673 0.869125 0.167852 0 CFG=2
M  V30 13 C 1.198496 -0.436922 -0.454455 0
M  V30 14 C -0.103363 -1.174384 -0.758951 0
M  V30 15 C -0.719697 -1.536329 0.536731 0 CFG=2
M  V30 16 C 0.199039 -2.177728 1.520957 0
M  V30 17 C -2.054173 -2.187768 0.476090 0 CFG=1
M  V30 18 C -2.197214 -3.578510 0.177079 0
M  V30 19 C -1.649846 -4.742527 0.636802 0
M  V30 20 C -1.871788 -6.045618 0.277077 0
M  V30 21 C -2.816402 -6.234630 -0.732225 0
M  V30 22 C -3.066747 -7.529887 -1.119784 0
M  V30 23 C -4.019067 -7.713232 -2.134939 0
M  V30 24 N -4.652086 -6.634895 -2.692504 0
M  V30 25 C -4.377635 -5.391379 -2.283590 0
M  V30 26 C -3.456081 -5.151713 -1.294958 0
M  V30 27 C -3.135019 -3.896018 -0.836293 0
M  V30 28 C -2.611792 -1.903052 1.887749 0
M  V30 29 C -1.908563 -0.646408 2.341623 0
M  V30 30 C -1.208452 -0.169114 1.111738 0 CFG=1
M  V30 31 H 2.723866 0.171979 1.990979 0
M  V30 32 H 2.047310 1.655819 2.807191 0
M  V30 33 H 3.629183 1.683775 1.980114 0
M  V30 34 H 3.458389 0.709624 -0.630500 0
M  V30 35 H 2.511742 2.032292 -1.418841 0
M  V30 36 H 4.715874 2.773251 -1.147269 0
M  V30 37 H 4.898572 2.070165 0.444373 0
M  V30 38 H 4.051041 4.756430 -0.318201 0
M  V30 39 H 5.504246 3.564780 1.507878 0
M  V30 40 H 2.053298 5.140144 0.648098 0
M  V30 41 H 2.493465 4.278463 2.112167 0
M  V30 42 H 0.998629 3.344285 -0.301860 0
M  V30 43 H 0.680952 3.256090 2.745682 0
M  V30 44 H -0.170775 4.203832 1.517542 0
M  V30 45 H -1.447311 2.228143 2.303870 0
M  V30 46 H -1.163111 2.379612 0.478008 0
M  V30 47 H 0.428458 0.532281 2.309548 0
M  V30 48 H 0.272379 1.487797 -0.601526 0
M  V30 49 H 1.683602 -0.201646 -1.425189 0
M  V30 50 H 1.800274 -1.038003 0.225101 0
M  V30 51 H 0.198476 -2.006569 -1.409521 0
M  V30 52 H -0.776403 -0.446013 -1.282788 0
M  V30 53 H -0.349207 -2.592472 2.383423 0
M  V30 54 H 0.907715 -1.422529 1.972759 0
M  V30 55 H 0.774218 -2.992890 1.039706 0
M  V30 56 H -2.691490 -1.547762 -0.226967 0
M  V30 57 H -0.920537 -4.599290 1.420903 0
M  V30 58 H -1.337564 -6.846111 0.761197 0
M  V30 59 H -2.574665 -8.390058 -0.685660 0
M  V30 60 H -4.281517 -8.699544 -2.505112 0
M  V30 61 H -4.883707 -4.554295 -2.728654 0
M  V30 62 H -3.707768 -3.110324 -1.361452 0
M  V30 63 H -2.346912 -2.693276 2.607271 0
M  V30 64 H -3.702748 -1.718896 1.799318 0
M  V30 65 H -2.630480 0.104937 2.743532 0
M  V30 66 H -1.112753 -0.875644 3.087125 0
M  V30 67 H -1.957039 0.190122 0.405023 0
M  V30 END ATOM
M  V30 BEGIN BOND
M  V30 1 1 2 1 CFG=1
M  V30 2 1 2 3
M  V30 3 1 3 4
M  V30 4 1 4 5
M  V30 5 1 5 6
M  V30 6 1 5 7
M  V30 7 1 7 8
M  V30 8 1 8 9
M  V30 9 1 9 10
M  V30 10 1 10 11
M  V30 11 1 11 12
M  V30 12 1 12 13
M  V30 13 1 13 14
M  V30 14 1 14 15
M  V30 15 1 15 16 CFG=1
M  V30 16 1 15 17
M  V30 17 1 17 18
M  V30 18 2 18 19
M  V30 19 1 19 20
M  V30 20 2 20 21
M  V30 21 1 21 22
M  V30 22 2 22 23
M  V30 23 1 23 24
M  V30 24 2 24 25
M  V30 25 1 25 26
M  V30 26 2 26 27
M  V30 27 1 17 28
M  V30 28 1 28 29
M  V30 29 1 29 30
M  V30 30 1 8 2
M  V30 31 1 30 11
M  V30 32 1 12 2
M  V30 33 1 30 15
M  V30 34 1 27 18
M  V30 35 1 26 21
M  V30 36 1 1 31
M  V30 37 1 1 32
M  V30 38 1 1 33
M  V30 39 1 3 34
M  V30 40 1 3 35
M  V30 41 1 4 36
M  V30 42 1 4 37
M  V30 43 1 5 38 CFG=3
M  V30 44 1 6 39
M  V30 45 1 7 40
M  V30 46 1 7 41
M  V30 47 1 8 42 CFG=3
M  V30 48 1 9 43
M  V30 49 1 9 44
M  V30 50 1 10 45
M  V30 51 1 10 46
M  V30 52 1 11 47 CFG=1
M  V30 53 1 12 48 CFG=3
M  V30 54 1 13 49
M  V30 55 1 13 50
M  V30 56 1 14 51
M  V30 57 1 14 52
M  V30 58 1 16 53
M  V30 59 1 16 54
M  V30 60 1 16 55
M  V30 61 1 17 56 CFG=3
M  V30 62 1 19 57
M  V30 63 1 20 58
M  V30 64 1 22 59
M  V30 65 1 23 60
M  V30 66 1 25 61
M  V30 67 1 27 62
M  V30 68 1 28 63
M  V30 69 1 28 64
M  V30 70 1 29 65
M  V30 71 1 29 66
M  V30 72 1 30 67 CFG=3
M  V30 END BOND
M  V30 END CTAB
M  END
>  <Dataset>  (763) 
ChEMBL_Kinases

>  <Ligand_Instance>  (763) 
nan

>  <PDB_ID>  (763) 
nan

>  <Standardized_SMILES>  (763) 
C[C@]12CC[C@H](O)C[C@@H]1CC[C@@H]1[C@@H]2CC[C@]2(C)[C@@H](c3ccc4ccncc4c3)CC[C@@H]12

>  <Name>  (763) 
nan

>  <Pocket>  (763) 
nan

>  <ATP_Site>  (763) 
nan

>  <Peripheral>  (763) 
nan

>  <Num_H_Atoms_ProtBoundConf>  (763) 
nan

>  <Num_Resolved_Atoms>  (763) 
nan

>  <Num_Not_Resolved_Atoms>  (763) 
nan

$$$$
CHEMBL4169321
     RDKit          3D

  0  0  0  0  0  0  0  0  0  0999 V3000
M  V30 BEGIN CTAB
M  V30 COUNTS 57 61 0 0 0
M  V30 BEGIN ATOM
M  V30 1 C 2.845710 -3.561684 4.621546 0
M  V30 2 O 2.518141 -2.412003 3.897017 0
M  V30 3 C 2.618126 -2.206763 2.541932 0
M  V30 4 O 3.063234 -3.360800 2.371454 0
M  V30 5 C 2.224975 -0.931683 1.967064 0
M  V30 6 C 1.740865 0.069555 2.768625 0
M  V30 7 C 1.607394 -0.038705 4.218461 0
M  V30 8 N 1.391780 1.176156 2.119582 0
M  V30 9 C 1.492796 1.332127 0.789255 0
M  V30 10 N 1.074655 2.576359 0.265622 0
M  V30 11 N -0.296661 2.423163 -0.022964 0
M  V30 12 C -1.442277 2.667317 0.808889 0
M  V30 13 O -1.069602 3.076577 1.946957 0
M  V30 14 C -2.705827 2.377839 0.115691 0
M  V30 15 C -3.554736 3.453592 -0.033754 0
M  V30 16 C -4.763332 3.245370 -0.678571 0
M  V30 17 C -5.106901 2.012747 -1.153442 0
M  V30 18 C -4.223038 0.968930 -0.979020 0
M  V30 19 C -4.559848 -0.287161 -1.455663 0
M  V30 20 O -5.650313 -0.490694 -2.041578 0
M  V30 21 C -3.657875 -1.338668 -1.273628 0
M  V30 22 C -4.032068 -2.580486 -1.764338 0
M  V30 23 C -3.149920 -3.652711 -1.596458 0
M  V30 24 C -1.931900 -3.438118 -0.945597 0
M  V30 25 C -1.606010 -2.181058 -0.474801 0
M  V30 26 C -2.461816 -1.091257 -0.625396 0
M  V30 27 N -2.122966 0.118480 -0.159250 0
M  V30 28 C -2.999282 1.109097 -0.343648 0
M  V30 29 N 1.972066 0.333655 0.026221 0
M  V30 30 C 2.351268 -0.826358 0.602991 0
M  V30 31 C 2.840349 -1.790351 -0.358469 0
M  V30 32 C 2.038101 -2.027882 -1.476851 0
M  V30 33 C 2.377099 -2.902188 -2.488579 0
M  V30 34 C 3.568083 -3.589305 -2.411770 0
M  V30 35 F 4.023795 -4.476458 -3.332665 0
M  V30 36 C 4.402728 -3.395025 -1.328442 0
M  V30 37 C 4.015686 -2.509973 -0.346550 0
M  V30 38 H 3.667954 -4.163419 4.240101 0
M  V30 39 H 2.986301 -3.344836 5.703642 0
M  V30 40 H 1.919231 -4.206607 4.594723 0
M  V30 41 H 0.952626 -0.842356 4.584236 0
M  V30 42 H 2.620066 -0.206744 4.638167 0
M  V30 43 H 1.291295 0.949166 4.652448 0
M  V30 44 H 1.786498 3.358839 0.177982 0
M  V30 45 H -0.331619 2.077207 -1.017618 0
M  V30 46 H -3.378628 4.455929 0.301414 0
M  V30 47 H -5.517860 4.018846 -0.857067 0
M  V30 48 H -6.023227 1.814366 -1.652187 0
M  V30 49 H -4.984339 -2.706832 -2.262506 0
M  V30 50 H -3.487982 -4.597207 -1.995857 0
M  V30 51 H -1.286190 -4.299797 -0.841269 0
M  V30 52 H -0.646517 -2.051575 0.028030 0
M  V30 53 H -1.203293 0.251770 0.325331 0
M  V30 54 H 1.085604 -1.545495 -1.640640 0
M  V30 55 H 1.760991 -3.085559 -3.348861 0
M  V30 56 H 5.349917 -3.901291 -1.205475 0
M  V30 57 H 4.668709 -2.339793 0.496621 0
M  V30 END ATOM
M  V30 BEGIN BOND
M  V30 1 1 1 2
M  V30 2 1 2 3
M  V30 3 2 3 4
M  V30 4 1 3 5
M  V30 5 2 5 6
M  V30 6 1 6 7
M  V30 7 1 6 8
M  V30 8 2 8 9
M  V30 9 1 9 10
M  V30 10 1 10 11
M  V30 11 1 11 12
M  V30 12 2 12 13
M  V30 13 1 12 14
M  V30 14 2 14 15
M  V30 15 1 15 16
M  V30 16 2 16 17
M  V30 17 1 17 18
M  V30 18 1 18 19
M  V30 19 2 19 20
M  V30 20 1 19 21
M  V30 21 2 21 22
M  V30 22 1 22 23
M  V30 23 2 23 24
M  V30 24 1 24 25
M  V30 25 2 25 26
M  V30 26 1 26 27
M  V30 27 1 27 28
M  V30 28 1 9 29
M  V30 29 2 29 30
M  V30 30 1 30 31
M  V30 31 2 31 32
M  V30 32 1 32 33
M  V30 33 2 33 34
M  V30 34 1 34 35
M  V30 35 1 34 36
M  V30 36 2 36 37
M  V30 37 1 30 5
M  V30 38 1 37 31
M  V30 39 1 28 14
M  V30 40 2 28 18
M  V30 41 1 26 21
M  V30 42 1 1 38
M  V30 43 1 1 39
M  V30 44 1 1 40
M  V30 45 1 7 41
M  V30 46 1 7 42
M  V30 47 1 7 43
M  V30 48 1 10 44
M  V30 49 1 11 45
M  V30 50 1 15 46
M  V30 51 1 16 47
M  V30 52 1 17 48
M  V30 53 1 22 49
M  V30 54 1 23 50
M  V30 55 1 24 51
M  V30 56 1 25 52
M  V30 57 1 27 53
M  V30 58 1 32 54
M  V30 59 1 33 55
M  V30 60 1 36 56
M  V30 61 1 37 57
M  V30 END BOND
M  V30 END CTAB
M  END
>  <Dataset>  (764) 
ChEMBL_Kinases

>  <Ligand_Instance>  (764) 
nan

>  <PDB_ID>  (764) 
nan

>  <Standardized_SMILES>  (764) 
COC(=O)c1c(C)nc(NNC(=O)c2cccc3c(=O)c4ccccc4[nH]c23)nc1-c1ccc(F)cc1

>  <Name>  (764) 
nan

>  <Pocket>  (764) 
nan

>  <ATP_Site>  (764) 
nan

>  <Peripheral>  (764) 
nan

>  <Num_H_Atoms_ProtBoundConf>  (764) 
nan

>  <Num_Resolved_Atoms>  (764) 
nan

>  <Num_Not_Resolved_Atoms>  (764) 
nan

$$$$
CHEMBL4169204
     RDKit          3D

  0  0  0  0  0  0  0  0  0  0999 V3000
M  V30 BEGIN CTAB
M  V30 COUNTS 56 61 0 0 0
M  V30 BEGIN ATOM
M  V30 1 C 1.258805 -2.776632 4.544081 0
M  V30 2 N 0.101347 -1.962971 4.384555 0
M  V30 3 C 0.309988 -0.713671 5.089279 0
M  V30 4 C -0.315926 -1.748696 3.010215 0
M  V30 5 C 0.767466 -1.160178 2.187743 0
M  V30 6 N 0.670171 -1.359586 0.766117 0
M  V30 7 C 1.106631 -0.402701 -0.109897 0
M  V30 8 C 0.913152 -0.825205 -1.413703 0
M  V30 9 C 1.306894 0.047501 -2.519243 0
M  V30 10 C 1.071513 1.365308 -2.570644 0
M  V30 11 C 0.419176 2.327380 -1.679627 0
M  V30 12 C 0.942684 3.565342 -1.313149 0
M  V30 13 N 0.062151 4.191557 -0.489887 0
M  V30 14 C -0.998155 3.366387 -0.339216 0
M  V30 15 C -2.176965 3.467737 0.360844 0
M  V30 16 C -3.164072 2.504700 0.386370 0
M  V30 17 C -2.917057 1.355541 -0.363334 0
M  V30 18 C -1.724889 1.297544 -1.046748 0
M  V30 19 N -0.767592 2.237834 -1.067516 0
M  V30 20 C 1.629567 1.885837 -3.833708 0
M  V30 21 O 1.643216 3.071055 -4.308866 0
M  V30 22 N 2.230250 0.797490 -4.566079 0
M  V30 23 C 2.018096 -0.332593 -3.730197 0
M  V30 24 O 2.433214 -1.456367 -4.091999 0
M  V30 25 C 0.340800 -2.074786 -1.351243 0
M  V30 26 C -0.045138 -2.904547 -2.376680 0
M  V30 27 C -0.603279 -4.116452 -2.050486 0
M  V30 28 C -0.745177 -4.432079 -0.719253 0
M  V30 29 C -0.347610 -3.575988 0.296916 0
M  V30 30 C 0.213846 -2.357118 -0.011254 0
M  V30 31 C -0.572401 -4.087740 1.694059 0
M  V30 32 N -0.946846 -2.940042 2.498270 0
M  V30 33 C -2.339625 -3.002383 2.900812 0
M  V30 34 O -2.963964 -4.010452 2.496949 0
M  V30 35 H 2.108217 -2.172214 4.986152 0
M  V30 36 H 1.589570 -3.343380 3.667651 0
M  V30 37 H 1.041179 -3.532338 5.351544 0
M  V30 38 H -0.590198 -0.097823 5.083987 0
M  V30 39 H 0.497283 -0.983132 6.156684 0
M  V30 40 H 1.205313 -0.186328 4.646400 0
M  V30 41 H -1.109196 -0.940697 3.099419 0
M  V30 42 H 0.821625 -0.047961 2.394209 0
M  V30 43 H 1.794455 -1.519246 2.496138 0
M  V30 44 H 1.541992 0.554658 0.231079 0
M  V30 45 H 1.918176 3.920086 -1.667965 0
M  V30 46 H -2.412785 4.354717 0.964443 0
M  V30 47 H -4.086602 2.596749 0.943991 0
M  V30 48 H -3.662985 0.575365 -0.369851 0
M  V30 49 H -1.619705 0.381905 -1.608986 0
M  V30 50 H 2.708809 0.861463 -5.505414 0
M  V30 51 H 0.082133 -2.616688 -3.406703 0
M  V30 52 H -0.937892 -4.839031 -2.784482 0
M  V30 53 H -1.183229 -5.384724 -0.441780 0
M  V30 54 H 0.340492 -4.595112 2.073221 0
M  V30 55 H -1.411285 -4.803186 1.636574 0
M  V30 56 H -2.822134 -2.229972 3.513054 0
M  V30 END ATOM
M  V30 BEGIN BOND
M  V30 1 1 1 2
M  V30 2 1 2 3
M  V30 3 1 2 4
M  V30 4 1 4 5
M  V30 5 1 5 6
M  V30 6 1 6 7
M  V30 7 2 7 8
M  V30 8 1 8 9
M  V30 9 2 9 10
M  V30 10 1 10 11
M  V30 11 2 11 12
M  V30 12 1 12 13
M  V30 13 2 13 14
M  V30 14 1 14 15
M  V30 15 2 15 16
M  V30 16 1 16 17
M  V30 17 2 17 18
M  V30 18 1 18 19
M  V30 19 1 10 20
M  V30 20 2 20 21
M  V30 21 1 20 22
M  V30 22 1 22 23
M  V30 23 2 23 24
M  V30 24 1 8 25
M  V30 25 2 25 26
M  V30 26 1 26 27
M  V30 27 2 27 28
M  V30 28 1 28 29
M  V30 29 2 29 30
M  V30 30 1 29 31
M  V30 31 1 31 32
M  V30 32 1 32 33
M  V30 33 2 33 34
M  V30 34 1 32 4
M  V30 35 1 30 6
M  V30 36 1 23 9
M  V30 37 1 30 25
M  V30 38 1 19 11
M  V30 39 1 19 14
M  V30 40 1 1 35
M  V30 41 1 1 36
M  V30 42 1 1 37
M  V30 43 1 3 38
M  V30 44 1 3 39
M  V30 45 1 3 40
M  V30 46 1 4 41
M  V30 47 1 5 42
M  V30 48 1 5 43
M  V30 49 1 7 44
M  V30 50 1 12 45
M  V30 51 1 15 46
M  V30 52 1 16 47
M  V30 53 1 17 48
M  V30 54 1 18 49
M  V30 55 1 22 50
M  V30 56 1 26 51
M  V30 57 1 27 52
M  V30 58 1 28 53
M  V30 59 1 31 54
M  V30 60 1 31 55
M  V30 61 1 33 56
M  V30 END BOND
M  V30 END CTAB
M  END
>  <Dataset>  (765) 
ChEMBL_Kinases

>  <Ligand_Instance>  (765) 
nan

>  <PDB_ID>  (765) 
nan

>  <Standardized_SMILES>  (765) 
CN(C)C1Cn2cc(C3=C(c4cnc5ccccn45)C(=O)NC3=O)c3cccc(c32)CN1C=O

>  <Name>  (765) 
nan

>  <Pocket>  (765) 
nan

>  <ATP_Site>  (765) 
nan

>  <Peripheral>  (765) 
nan

>  <Num_H_Atoms_ProtBoundConf>  (765) 
nan

>  <Num_Resolved_Atoms>  (765) 
nan

>  <Num_Not_Resolved_Atoms>  (765) 
nan

$$$$
CHEMBL4169171
     RDKit          3D

  0  0  0  0  0  0  0  0  0  0999 V3000
M  V30 BEGIN CTAB
M  V30 COUNTS 59 63 0 0 0
M  V30 BEGIN ATOM
M  V30 1 C 3.635192 -0.694950 8.005861 0
M  V30 2 C 3.415677 -0.165858 6.635748 0
M  V30 3 O 2.349052 0.499656 6.636647 0
M  V30 4 N 4.350857 -0.457658 5.615955 0
M  V30 5 N 4.023511 0.102356 4.373638 0
M  V30 6 C 4.577585 -0.234885 3.256912 0
M  V30 7 C 3.940693 0.592887 2.220338 0
M  V30 8 C 4.502363 1.820176 1.909983 0
M  V30 9 C 5.702041 2.485678 2.470331 0
M  V30 10 N 3.721623 2.367040 0.932154 0
M  V30 11 N 2.735331 1.540376 0.646181 0
M  V30 12 C 1.658766 1.622164 -0.280229 0
M  V30 13 C 1.568011 1.205332 -1.581227 0
M  V30 14 C 0.402297 1.398980 -2.287899 0
M  V30 15 C -0.709372 2.005753 -1.744140 0
M  V30 16 C -0.614367 2.423623 -0.435594 0
M  V30 17 C 0.545628 2.242273 0.300333 0
M  V30 18 C 2.814826 0.433052 1.403558 0
M  V30 19 O 2.145570 -0.762398 1.606376 0
M  V30 20 C 1.006247 -1.161505 0.926085 0
M  V30 21 C -0.285648 -0.885647 1.327454 0
M  V30 22 C -1.339388 -1.341064 0.560136 0
M  V30 23 C -1.184559 -2.067282 -0.603215 0
M  V30 24 C -2.318800 -2.536126 -1.395201 0
M  V30 25 N -3.600067 -2.299070 -1.057152 0
M  V30 26 C -4.432659 -2.840072 -1.955570 0
M  V30 27 C -5.791894 -2.940224 -2.162770 0
M  V30 28 C -6.291848 -3.611013 -3.258951 0
M  V30 29 C -7.734920 -3.722058 -3.487398 0
M  V30 30 O -8.285078 -4.309989 -4.451304 0
M  V30 31 O -8.674154 -3.162614 -2.620895 0
M  V30 32 C -5.474511 -4.210247 -4.195313 0
M  V30 33 C -4.114091 -4.109345 -3.986835 0
M  V30 34 C -3.603798 -3.436581 -2.887192 0
M  V30 35 N -2.303037 -3.244679 -2.534507 0
M  V30 36 C 0.118255 -2.327695 -0.979305 0
M  V30 37 C 1.229853 -1.894649 -0.246052 0
M  V30 38 H 3.783585 0.209722 8.653084 0
M  V30 39 H 2.760548 -1.213463 8.420115 0
M  V30 40 H 4.544347 -1.287087 8.098327 0
M  V30 41 H 5.177857 -1.041286 5.850803 0
M  V30 42 H 5.344805 -0.997322 3.268178 0
M  V30 43 H 5.438528 3.069382 3.357693 0
M  V30 44 H 6.465780 1.728554 2.774700 0
M  V30 45 H 6.206685 3.139736 1.749474 0
M  V30 46 H 2.474856 0.743403 -1.929546 0
M  V30 47 H 0.386905 1.051165 -3.307649 0
M  V30 48 H -1.613612 2.144557 -2.325245 0
M  V30 49 H -1.516089 2.897429 -0.047349 0
M  V30 50 H 0.439230 2.636533 1.322152 0
M  V30 51 H -0.400062 -0.326032 2.224043 0
M  V30 52 H -2.345761 -1.114170 0.892277 0
M  V30 53 H -6.445138 -2.488117 -1.457389 0
M  V30 54 H -9.465378 -2.596364 -2.953093 0
M  V30 55 H -5.888803 -4.729633 -5.045006 0
M  V30 56 H -3.480088 -4.578554 -4.720293 0
M  V30 57 H -1.450823 -3.577863 -3.041610 0
M  V30 58 H 0.325383 -2.890747 -1.878185 0
M  V30 59 H 2.240929 -2.118515 -0.572877 0
M  V30 END ATOM
M  V30 BEGIN BOND
M  V30 1 1 1 2
M  V30 2 2 2 3
M  V30 3 1 2 4
M  V30 4 1 4 5
M  V30 5 2 5 6
M  V30 6 1 6 7
M  V30 7 1 7 8
M  V30 8 1 8 9
M  V30 9 2 8 10
M  V30 10 1 10 11
M  V30 11 1 11 12
M  V30 12 2 12 13
M  V30 13 1 13 14
M  V30 14 2 14 15
M  V30 15 1 15 16
M  V30 16 2 16 17
M  V30 17 1 11 18
M  V30 18 1 18 19
M  V30 19 1 19 20
M  V30 20 2 20 21
M  V30 21 1 21 22
M  V30 22 2 22 23
M  V30 23 1 23 24
M  V30 24 2 24 25
M  V30 25 1 25 26
M  V30 26 2 26 27
M  V30 27 1 27 28
M  V30 28 1 28 29
M  V30 29 2 29 30
M  V30 30 1 29 31
M  V30 31 2 28 32
M  V30 32 1 32 33
M  V30 33 2 33 34
M  V30 34 1 34 35
M  V30 35 1 23 36
M  V30 36 2 36 37
M  V30 37 2 18 7
M  V30 38 1 37 20
M  V30 39 1 17 12
M  V30 40 1 35 24
M  V30 41 1 34 26
M  V30 42 1 1 38
M  V30 43 1 1 39
M  V30 44 1 1 40
M  V30 45 1 4 41
M  V30 46 1 6 42
M  V30 47 1 9 43
M  V30 48 1 9 44
M  V30 49 1 9 45
M  V30 50 1 13 46
M  V30 51 1 14 47
M  V30 52 1 15 48
M  V30 53 1 16 49
M  V30 54 1 17 50
M  V30 55 1 21 51
M  V30 56 1 22 52
M  V30 57 1 27 53
M  V30 58 1 31 54
M  V30 59 1 32 55
M  V30 60 1 33 56
M  V30 61 1 35 57
M  V30 62 1 36 58
M  V30 63 1 37 59
M  V30 END BOND
M  V30 END CTAB
M  END
>  <Dataset>  (766) 
ChEMBL_Kinases

>  <Ligand_Instance>  (766) 
nan

>  <PDB_ID>  (766) 
nan

>  <Standardized_SMILES>  (766) 
CC(=O)N/N=C/c1c(C)nn(-c2ccccc2)c1Oc1ccc(-c2nc3cc(C(=O)O)ccc3[nH]2)cc1

>  <Name>  (766) 
nan

>  <Pocket>  (766) 
nan

>  <ATP_Site>  (766) 
nan

>  <Peripheral>  (766) 
nan

>  <Num_H_Atoms_ProtBoundConf>  (766) 
nan

>  <Num_Resolved_Atoms>  (766) 
nan

>  <Num_Not_Resolved_Atoms>  (766) 
nan

$$$$
CHEMBL478626
     RDKit          3D

  0  0  0  0  0  0  0  0  0  0999 V3000
M  V30 BEGIN CTAB
M  V30 COUNTS 47 50 0 0 0
M  V30 BEGIN ATOM
M  V30 1 O 0.623277 -4.761330 3.651328 0
M  V30 2 C 1.084099 -3.740443 3.078036 0
M  V30 3 N 2.479285 -3.714567 2.950014 0
M  V30 4 C 3.332074 -4.781173 3.439527 0
M  V30 5 C 4.793825 -4.451170 3.146565 0
M  V30 6 C 5.817315 -5.503061 3.614332 0
M  V30 7 C 5.548431 -5.278448 2.175554 0
M  V30 8 C 0.215361 -2.699141 2.603099 0
M  V30 9 C 0.627269 -1.544749 1.963687 0
M  V30 10 C -0.217826 -0.551567 1.512064 0
M  V30 11 C -1.576872 -0.712710 1.708197 0
M  V30 12 C -2.410569 0.383926 1.201368 0
M  V30 13 C -2.103037 0.862629 -0.078811 0
M  V30 14 C -2.880605 1.895906 -0.568890 0
M  V30 15 N -2.649120 2.461988 -1.874209 0
M  V30 16 C -1.721548 3.550954 -1.790140 0
M  V30 17 O -1.363072 3.712920 -0.591085 0
M  V30 18 C -1.334488 4.282908 -3.005710 0
M  V30 19 C -1.610538 4.255036 -4.366113 0
M  V30 20 C -0.860144 5.277103 -4.933165 0
M  V30 21 O -0.192531 5.864524 -3.986856 0
M  V30 22 C -0.430629 5.320195 -2.815233 0
M  V30 23 C -3.918026 2.442844 0.158690 0
M  V30 24 C -4.226258 1.973624 1.424213 0
M  V30 25 C -3.447840 0.928789 1.932160 0
M  V30 26 Cl -3.799428 0.301414 3.528805 0
M  V30 27 C -2.050309 -1.852074 2.344777 0
M  V30 28 C -1.151280 -2.809626 2.773279 0
M  V30 29 H 2.924497 -2.880695 2.476096 0
M  V30 30 H 3.224547 -4.917934 4.533861 0
M  V30 31 H 3.106324 -5.767517 2.983101 0
M  V30 32 H 5.062099 -3.393102 3.271239 0
M  V30 33 H 5.455681 -6.388888 4.158244 0
M  V30 34 H 6.763199 -5.093804 4.049012 0
M  V30 35 H 6.365378 -4.743522 1.619465 0
M  V30 36 H 5.066273 -6.070089 1.577588 0
M  V30 37 H 1.687927 -1.404444 1.802989 0
M  V30 38 H 0.214993 0.325749 1.016283 0
M  V30 39 H -1.304814 0.478209 -0.699114 0
M  V30 40 H -3.075825 2.157595 -2.798661 0
M  V30 41 H -2.313547 3.484294 -4.676746 0
M  V30 42 H -0.945305 5.412398 -6.001377 0
M  V30 43 H 0.075095 5.736209 -1.967839 0
M  V30 44 H -4.547151 3.262184 -0.210145 0
M  V30 45 H -5.017496 2.344152 2.056572 0
M  V30 46 H -3.122062 -1.924672 2.470861 0
M  V30 47 H -1.606544 -3.675094 3.264684 0
M  V30 END ATOM
M  V30 BEGIN BOND
M  V30 1 2 1 2
M  V30 2 1 2 3
M  V30 3 1 3 4
M  V30 4 1 4 5
M  V30 5 1 5 6
M  V30 6 1 6 7
M  V30 7 1 2 8
M  V30 8 2 8 9
M  V30 9 1 9 10
M  V30 10 2 10 11
M  V30 11 1 11 12
M  V30 12 2 12 13
M  V30 13 1 13 14
M  V30 14 1 14 15
M  V30 15 1 15 16
M  V30 16 2 16 17
M  V30 17 1 16 18
M  V30 18 1 18 19
M  V30 19 2 19 20
M  V30 20 1 20 21
M  V30 21 1 21 22
M  V30 22 2 14 23
M  V30 23 1 23 24
M  V30 24 2 24 25
M  V30 25 1 25 26
M  V30 26 1 11 27
M  V30 27 2 27 28
M  V30 28 1 7 5
M  V30 29 1 28 8
M  V30 30 1 25 12
M  V30 31 2 22 18
M  V30 32 1 3 29
M  V30 33 1 4 30
M  V30 34 1 4 31
M  V30 35 1 5 32
M  V30 36 1 6 33
M  V30 37 1 6 34
M  V30 38 1 7 35
M  V30 39 1 7 36
M  V30 40 1 9 37
M  V30 41 1 10 38
M  V30 42 1 13 39
M  V30 43 1 15 40
M  V30 44 1 19 41
M  V30 45 1 20 42
M  V30 46 1 22 43
M  V30 47 1 23 44
M  V30 48 1 24 45
M  V30 49 1 27 46
M  V30 50 1 28 47
M  V30 END BOND
M  V30 END CTAB
M  END
>  <Dataset>  (767) 
ChEMBL_Kinases

>  <Ligand_Instance>  (767) 
nan

>  <PDB_ID>  (767) 
nan

>  <Standardized_SMILES>  (767) 
O=C(NCC1CC1)c1ccc(-c2cc(NC(=O)c3ccoc3)ccc2Cl)cc1

>  <Name>  (767) 
nan

>  <Pocket>  (767) 
nan

>  <ATP_Site>  (767) 
nan

>  <Peripheral>  (767) 
nan

>  <Num_H_Atoms_ProtBoundConf>  (767) 
nan

>  <Num_Resolved_Atoms>  (767) 
nan

>  <Num_Not_Resolved_Atoms>  (767) 
nan

$$$$
CHEMBL4166399
     RDKit          3D

  0  0  0  0  0  0  0  0  0  0999 V3000
M  V30 BEGIN CTAB
M  V30 COUNTS 24 26 0 0 0
M  V30 BEGIN ATOM
M  V30 1 O 0.215057 -3.268053 4.406988 0
M  V30 2 C 0.290637 -3.601142 3.213785 0
M  V30 3 N 0.528832 -4.618993 2.256246 0
M  V30 4 C 0.811461 -4.187740 0.958280 0
M  V30 5 O 1.033359 -5.043905 0.043906 0
M  V30 6 C 0.825890 -2.725479 0.760481 0
M  V30 7 C 1.393877 -2.097775 -0.275641 0
M  V30 8 C 1.206440 -0.660748 -0.137697 0
M  V30 9 C 0.102731 0.038693 0.176489 0
M  V30 10 C 0.148351 1.405525 0.273538 0
M  V30 11 C -0.882488 2.264018 0.581197 0
M  V30 12 C -0.596033 3.607778 0.619252 0
M  V30 13 C 0.613307 4.218021 0.383990 0
M  V30 14 C 1.642306 3.354210 0.075231 0
M  V30 15 C 1.375245 1.982342 0.031466 0
M  V30 16 S 2.487999 0.574800 -0.341767 0
M  V30 17 S -0.056487 -2.119629 2.220999 0
M  V30 18 H 0.451830 -5.559421 2.703052 0
M  V30 19 H 1.904596 -2.590380 -1.075593 0
M  V30 20 H -0.816602 -0.554000 0.340669 0
M  V30 21 H -1.893068 1.940808 0.789014 0
M  V30 22 H -1.407635 4.314727 0.862322 0
M  V30 23 H 0.819026 5.269505 0.423343 0
M  V30 24 H 2.653506 3.648583 -0.135539 0
M  V30 END ATOM
M  V30 BEGIN BOND
M  V30 1 2 1 2
M  V30 2 1 2 3
M  V30 3 1 3 4
M  V30 4 2 4 5
M  V30 5 1 4 6
M  V30 6 2 6 7
M  V30 7 1 7 8
M  V30 8 2 8 9
M  V30 9 1 9 10
M  V30 10 2 10 11
M  V30 11 1 11 12
M  V30 12 2 12 13
M  V30 13 1 13 14
M  V30 14 2 14 15
M  V30 15 1 15 16
M  V30 16 1 6 17
M  V30 17 1 17 2
M  V30 18 1 16 8
M  V30 19 1 15 10
M  V30 20 1 3 18
M  V30 21 1 7 19
M  V30 22 1 9 20
M  V30 23 1 11 21
M  V30 24 1 12 22
M  V30 25 1 13 23
M  V30 26 1 14 24
M  V30 END BOND
M  V30 END CTAB
M  END
>  <Dataset>  (768) 
ChEMBL_Kinases

>  <Ligand_Instance>  (768) 
nan

>  <PDB_ID>  (768) 
nan

>  <Standardized_SMILES>  (768) 
O=C1NC(=O)/C(=C/c2cc3ccccc3s2)S1

>  <Name>  (768) 
nan

>  <Pocket>  (768) 
nan

>  <ATP_Site>  (768) 
nan

>  <Peripheral>  (768) 
nan

>  <Num_H_Atoms_ProtBoundConf>  (768) 
nan

>  <Num_Resolved_Atoms>  (768) 
nan

>  <Num_Not_Resolved_Atoms>  (768) 
nan

$$$$
CHEMBL4166347
     RDKit          3D

  0  0  0  0  0  0  0  0  0  0999 V3000
M  V30 BEGIN CTAB
M  V30 COUNTS 41 44 0 0 0
M  V30 BEGIN ATOM
M  V30 1 N 1.217864 -6.925292 4.125984 0
M  V30 2 C 0.606620 -5.643079 4.126241 0
M  V30 3 O -0.067215 -5.195848 5.118403 0
M  V30 4 C 0.792514 -4.852747 2.914463 0
M  V30 5 C 0.206275 -3.607807 2.851129 0
M  V30 6 C 0.320987 -2.772707 1.733127 0
M  V30 7 C 1.059611 -3.206483 0.624694 0
M  V30 8 N 1.213397 -2.406682 -0.538971 0
M  V30 9 C 0.527665 -1.169111 -0.624512 0
M  V30 10 N 0.837278 0.069213 -0.168276 0
M  V30 11 C 0.045130 1.123668 -0.367884 0
M  V30 12 N 0.488751 2.365901 0.163898 0
M  V30 13 C 0.841263 3.560953 -0.576477 0
M  V30 14 C 1.293099 4.589169 0.442231 0
M  V30 15 O 2.284217 4.066239 1.236718 0
M  V30 16 C 1.877213 3.021682 2.029112 0
M  V30 17 C 0.578432 2.410508 1.609971 0
M  V30 18 C -1.151175 0.987544 -1.066087 0
M  V30 19 N -2.107976 1.862081 -1.398641 0
M  V30 20 C -3.062364 1.177362 -2.087144 0
M  V30 21 N -2.653312 -0.115462 -2.155359 0
M  V30 22 C -1.473125 -0.270001 -1.533497 0
M  V30 23 N -0.632361 -1.303361 -1.301309 0
M  V30 24 C 1.639014 -4.478895 0.731314 0
M  V30 25 N 1.495995 -5.239326 1.830602 0
M  V30 26 H 2.055267 -7.478637 4.465019 0
M  V30 27 H 0.602337 -7.593049 3.571810 0
M  V30 28 H -0.374577 -3.263862 3.721538 0
M  V30 29 H -0.154171 -1.782674 1.703597 0
M  V30 30 H 1.840535 -2.783023 -1.289157 0
M  V30 31 H 1.660142 3.397229 -1.298511 0
M  V30 32 H -0.044631 4.008485 -1.080116 0
M  V30 33 H 1.700149 5.498766 -0.042846 0
M  V30 34 H 0.434493 4.949279 1.055804 0
M  V30 35 H 1.746658 3.357189 3.097864 0
M  V30 36 H 2.659116 2.236549 2.045501 0
M  V30 37 H -0.282408 3.013916 2.017395 0
M  V30 38 H 0.501034 1.422725 2.095301 0
M  V30 39 H -3.984612 1.608604 -2.501962 0
M  V30 40 H -3.205752 -0.863154 -2.636008 0
M  V30 41 H 2.221459 -4.871914 -0.089879 0
M  V30 END ATOM
M  V30 BEGIN BOND
M  V30 1 1 1 2
M  V30 2 2 2 3
M  V30 3 1 2 4
M  V30 4 2 4 5
M  V30 5 1 5 6
M  V30 6 2 6 7
M  V30 7 1 7 8
M  V30 8 1 8 9
M  V30 9 2 9 10
M  V30 10 1 10 11
M  V30 11 1 11 12
M  V30 12 1 12 13
M  V30 13 1 13 14
M  V30 14 1 14 15
M  V30 15 1 15 16
M  V30 16 1 16 17
M  V30 17 2 11 18
M  V30 18 1 18 19
M  V30 19 2 19 20
M  V30 20 1 20 21
M  V30 21 1 21 22
M  V30 22 2 22 23
M  V30 23 1 7 24
M  V30 24 2 24 25
M  V30 25 1 25 4
M  V30 26 1 23 9
M  V30 27 1 17 12
M  V30 28 1 22 18
M  V30 29 1 1 26
M  V30 30 1 1 27
M  V30 31 1 5 28
M  V30 32 1 6 29
M  V30 33 1 8 30
M  V30 34 1 13 31
M  V30 35 1 13 32
M  V30 36 1 14 33
M  V30 37 1 14 34
M  V30 38 1 16 35
M  V30 39 1 16 36
M  V30 40 1 17 37
M  V30 41 1 17 38
M  V30 42 1 20 39
M  V30 43 1 21 40
M  V30 44 1 24 41
M  V30 END BOND
M  V30 END CTAB
M  END
>  <Dataset>  (769) 
ChEMBL_Kinases

>  <Ligand_Instance>  (769) 
nan

>  <PDB_ID>  (769) 
nan

>  <Standardized_SMILES>  (769) 
NC(=O)c1ccc(Nc2nc(N3CCOCC3)c3nc[nH]c3n2)cn1

>  <Name>  (769) 
nan

>  <Pocket>  (769) 
nan

>  <ATP_Site>  (769) 
nan

>  <Peripheral>  (769) 
nan

>  <Num_H_Atoms_ProtBoundConf>  (769) 
nan

>  <Num_Resolved_Atoms>  (769) 
nan

>  <Num_Not_Resolved_Atoms>  (769) 
nan

$$$$
CHEMBL4787051
     RDKit          3D

  0  0  0  0  0  0  0  0  0  0999 V3000
M  V30 BEGIN CTAB
M  V30 COUNTS 151 157 0 0 0
M  V30 BEGIN ATOM
M  V30 1 C 6.532309 3.924746 1.725999 0
M  V30 2 C 6.791010 2.639114 1.020411 0
M  V30 3 N 7.587436 1.746753 1.540464 0
M  V30 4 C 7.865377 0.665271 1.056401 0
M  V30 5 S 6.827232 0.785966 -0.522772 0
M  V30 6 C 6.191479 2.396208 -0.162655 0
M  V30 7 C 5.280916 3.024938 -1.091838 0
M  V30 8 C 4.876381 2.302621 -2.219858 0
M  V30 9 C 4.001713 2.860167 -3.160816 0
M  V30 10 C 3.513243 4.147899 -2.996647 0
M  V30 11 C 2.617051 4.591344 -4.089309 0
M  V30 12 N 1.247254 4.175573 -3.881398 0
M  V30 13 C 0.240572 4.737196 -3.035503 0
M  V30 14 O 0.755654 5.743520 -2.440152 0
M  V30 15 C -0.992326 3.942872 -3.181624 0 CFG=2
M  V30 16 C -1.330847 3.884018 -4.660650 0
M  V30 17 C -2.514915 4.778292 -4.841782 0 CFG=1
M  V30 18 O -3.695568 4.153649 -5.148427 0
M  V30 19 C -2.564631 5.447565 -3.484272 0
M  V30 20 N -2.155638 4.449445 -2.514969 0
M  V30 21 C -2.982826 4.306171 -1.381871 0
M  V30 22 O -3.907188 5.115477 -1.633987 0
M  V30 23 C -3.225808 3.657328 -0.102020 0 CFG=1
M  V30 24 N -2.120300 2.891950 0.409575 0
M  V30 25 C -1.724366 1.525776 0.473885 0
M  V30 26 O -2.484524 0.677512 -0.046380 0
M  V30 27 C -0.404540 1.442959 1.197145 0
M  V30 28 O 0.048267 0.161810 1.290082 0
M  V30 29 C 1.228645 0.013863 2.025368 0
M  V30 30 C 2.370711 0.850431 1.556309 0
M  V30 31 O 3.536378 0.808678 2.100488 0
M  V30 32 C 4.228736 0.907639 3.169304 0
M  V30 33 C 4.050377 -0.177227 4.197425 0
M  V30 34 O 2.826993 -0.358068 4.745102 0
M  V30 35 C 2.782105 -1.457485 5.606054 0
M  V30 36 C 1.441555 -1.642080 6.208793 0
M  V30 37 N 0.391854 -1.830177 5.227905 0
M  V30 38 C -0.972456 -2.110680 5.480174 0
M  V30 39 O -1.369238 -2.239524 6.665744 0
M  V30 40 C -1.959493 -2.261880 4.379311 0
M  V30 41 C -3.179116 -3.028054 4.818610 0
M  V30 42 C -4.128374 -3.113825 3.696271 0
M  V30 43 O -4.551540 -2.192067 2.958638 0
M  V30 44 N -4.743227 -4.321805 3.264212 0
M  V30 45 C -5.742228 -4.400282 2.214474 0
M  V30 46 C -5.569444 -5.687286 1.418567 0
M  V30 47 N -4.143569 -6.019589 1.312336 0
M  V30 48 C -3.467795 -5.048754 0.526495 0 CFG=1
M  V30 49 C -1.981271 -5.128768 0.487223 0
M  V30 50 C -1.464412 -3.961524 -0.383508 0
M  V30 51 C -1.736314 -4.296854 -1.815782 0 CFG=1
M  V30 52 N -0.504294 -4.633015 -2.508249 0
M  V30 53 C -0.494983 -4.992484 -3.893204 0
M  V30 54 N -1.665999 -5.073886 -4.533066 0
M  V30 55 C -1.720853 -5.411223 -5.827350 0
M  V30 56 N -0.593753 -5.677836 -6.521382 0
M  V30 57 N 0.570964 -5.590084 -5.864799 0
M  V30 58 C 1.774939 -5.814873 -6.415806 0
M  V30 59 C 2.658397 -5.599350 -5.385836 0
M  V30 60 C 1.999444 -5.243893 -4.207809 0
M  V30 61 C 2.616078 -4.907810 -2.901739 0
M  V30 62 C 2.664893 -6.073100 -1.950888 0
M  V30 63 C 4.104274 -4.623880 -3.234373 0
M  V30 64 C 0.673663 -5.255420 -4.567711 0
M  V30 65 C -2.785368 -5.364177 -1.886693 0
M  V30 66 C -3.926919 -5.092925 -0.924683 0
M  V30 67 C -3.609102 -6.345775 2.592532 0
M  V30 68 C -4.465923 -5.701662 3.704869 0
M  V30 69 C -3.869107 4.493434 0.935762 0
M  V30 70 C -4.066734 3.699168 2.221651 0
M  V30 71 C -2.999952 5.683766 1.353074 0
M  V30 72 C -5.207883 5.042362 0.552334 0
M  V30 73 C 3.893275 4.886739 -1.895795 0
M  V30 74 C 4.754381 4.268229 -1.019293 0
M  V30 75 H 6.895607 3.914509 2.793627 0
M  V30 76 H 5.425104 4.079300 1.860511 0
M  V30 77 H 6.930678 4.785776 1.207115 0
M  V30 78 H 8.496823 -0.154601 1.370699 0
M  V30 79 H 5.198374 1.272589 -2.449924 0
M  V30 80 H 3.727552 2.234240 -4.019156 0
M  V30 81 H 2.656624 5.710488 -4.162609 0
M  V30 82 H 3.013863 4.227972 -5.043488 0
M  V30 83 H 1.075044 3.318322 -4.489417 0
M  V30 84 H -0.791436 2.866743 -2.904728 0
M  V30 85 H -1.521548 2.862405 -5.030320 0
M  V30 86 H -0.516238 4.302946 -5.282925 0
M  V30 87 H -2.362123 5.594425 -5.588770 0
M  V30 88 H -3.761041 3.227819 -4.756750 0
M  V30 89 H -1.865924 6.335747 -3.470322 0
M  V30 90 H -3.562970 5.856782 -3.363192 0
M  V30 91 H -4.005288 2.846285 -0.349522 0
M  V30 92 H -1.554258 3.714425 0.790523 0
M  V30 93 H 0.284078 2.032716 0.530143 0
M  V30 94 H -0.544383 1.869758 2.188637 0
M  V30 95 H 1.030796 0.321877 3.088521 0
M  V30 96 H 1.494632 -1.044507 2.035006 0
M  V30 97 H 2.045460 1.949388 1.483026 0
M  V30 98 H 2.506344 0.646779 0.414998 0
M  V30 99 H 5.353061 0.977533 2.978041 0
M  V30 100 H 4.098847 1.922163 3.738739 0
M  V30 101 H 4.515600 -1.143245 3.832736 0
M  V30 102 H 4.745290 0.112072 5.053511 0
M  V30 103 H 3.482612 -1.184397 6.443738 0
M  V30 104 H 3.147732 -2.381836 5.131566 0
M  V30 105 H 1.171902 -0.789552 6.864972 0
M  V30 106 H 1.456535 -2.552617 6.849321 0
M  V30 107 H 0.640114 -1.758123 4.219566 0
M  V30 108 H -2.311624 -1.216544 4.165920 0
M  V30 109 H -1.561954 -2.666023 3.452016 0
M  V30 110 H -2.958132 -4.024126 5.191926 0
M  V30 111 H -3.670571 -2.482153 5.675930 0
M  V30 112 H -6.760263 -4.490425 2.701692 0
M  V30 113 H -5.784904 -3.502306 1.593193 0
M  V30 114 H -6.060329 -6.509193 1.943640 0
M  V30 115 H -5.972008 -5.540147 0.418153 0
M  V30 116 H -3.777170 -4.043875 0.929331 0
M  V30 117 H -1.493303 -4.954483 1.467909 0
M  V30 118 H -1.571009 -6.039488 0.067549 0
M  V30 119 H -0.387985 -3.862239 -0.133050 0
M  V30 120 H -1.966695 -3.022204 -0.053522 0
M  V30 121 H -2.165482 -3.333844 -2.267155 0
M  V30 122 H 0.269049 -4.565867 -1.831824 0
M  V30 123 H -2.690492 -5.457005 -6.267981 0
M  V30 124 H 2.067498 -6.102444 -7.429349 0
M  V30 125 H 3.733486 -5.689331 -5.455062 0
M  V30 126 H 2.271509 -3.956520 -2.478452 0
M  V30 127 H 1.801870 -6.765021 -2.148254 0
M  V30 128 H 2.487574 -5.673168 -0.913987 0
M  V30 129 H 3.611672 -6.650378 -1.994701 0
M  V30 130 H 4.503800 -3.978035 -2.437632 0
M  V30 131 H 4.625128 -5.599043 -3.230430 0
M  V30 132 H 4.171844 -4.107395 -4.209869 0
M  V30 133 H -3.268452 -5.308796 -2.900841 0
M  V30 134 H -2.408482 -6.382415 -1.729783 0
M  V30 135 H -4.410729 -4.139582 -1.168938 0
M  V30 136 H -4.661523 -5.902045 -1.090872 0
M  V30 137 H -3.653893 -7.438282 2.744671 0
M  V30 138 H -2.584479 -5.995459 2.795575 0
M  V30 139 H -5.389098 -6.278788 3.844987 0
M  V30 140 H -3.861846 -5.696909 4.621957 0
M  V30 141 H -4.367805 4.403185 3.045361 0
M  V30 142 H -4.806173 2.881016 2.111795 0
M  V30 143 H -3.104090 3.252993 2.514882 0
M  V30 144 H -2.630576 6.239128 0.487426 0
M  V30 145 H -3.683435 6.383396 1.914213 0
M  V30 146 H -2.235983 5.387839 2.093918 0
M  V30 147 H -5.872420 5.077665 1.442738 0
M  V30 148 H -5.090604 6.068937 0.212238 0
M  V30 149 H -5.733810 4.379571 -0.164030 0
M  V30 150 H 3.494497 5.868084 -1.808329 0
M  V30 151 H 5.011327 4.906718 -0.207038 0
M  V30 END ATOM
M  V30 BEGIN BOND
M  V30 1 1 1 2
M  V30 2 1 2 3
M  V30 3 2 3 4
M  V30 4 1 4 5
M  V30 5 1 5 6
M  V30 6 1 6 7
M  V30 7 2 7 8
M  V30 8 1 8 9
M  V30 9 2 9 10
M  V30 10 1 10 11
M  V30 11 1 11 12
M  V30 12 1 12 13
M  V30 13 2 13 14
M  V30 14 1 13 15
M  V30 15 1 15 16
M  V30 16 1 16 17
M  V30 17 1 17 18
M  V30 18 1 17 19
M  V30 19 1 19 20
M  V30 20 1 20 21
M  V30 21 2 21 22
M  V30 22 1 21 23
M  V30 23 1 23 24
M  V30 24 1 24 25
M  V30 25 2 25 26
M  V30 26 1 25 27
M  V30 27 1 27 28
M  V30 28 1 28 29
M  V30 29 1 29 30
M  V30 30 1 30 31
M  V30 31 1 31 32
M  V30 32 1 32 33
M  V30 33 1 33 34
M  V30 34 1 34 35
M  V30 35 1 35 36
M  V30 36 1 36 37
M  V30 37 1 37 38
M  V30 38 2 38 39
M  V30 39 1 38 40
M  V30 40 1 40 41
M  V30 41 1 41 42
M  V30 42 2 42 43
M  V30 43 1 42 44
M  V30 44 1 44 45
M  V30 45 1 45 46
M  V30 46 1 46 47
M  V30 47 1 47 48
M  V30 48 1 48 49
M  V30 49 1 49 50
M  V30 50 1 50 51
M  V30 51 1 51 52
M  V30 52 1 52 53
M  V30 53 2 53 54
M  V30 54 1 54 55
M  V30 55 2 55 56
M  V30 56 1 56 57
M  V30 57 1 57 58
M  V30 58 2 58 59
M  V30 59 1 59 60
M  V30 60 1 60 61
M  V30 61 1 61 62
M  V30 62 1 61 63
M  V30 63 2 60 64
M  V30 64 1 51 65
M  V30 65 1 65 66
M  V30 66 1 47 67
M  V30 67 1 67 68
M  V30 68 1 23 69
M  V30 69 1 69 70
M  V30 70 1 69 71
M  V30 71 1 69 72
M  V30 72 1 10 73
M  V30 73 2 73 74
M  V30 74 2 6 2
M  V30 75 1 74 7
M  V30 76 1 20 15
M  V30 77 1 68 44
M  V30 78 1 66 48
M  V30 79 1 64 53
M  V30 80 1 64 57
M  V30 81 1 1 75
M  V30 82 1 1 76
M  V30 83 1 1 77
M  V30 84 1 4 78
M  V30 85 1 8 79
M  V30 86 1 9 80
M  V30 87 1 11 81
M  V30 88 1 11 82
M  V30 89 1 12 83
M  V30 90 1 15 84 CFG=1
M  V30 91 1 16 85
M  V30 92 1 16 86
M  V30 93 1 17 87 CFG=3
M  V30 94 1 18 88
M  V30 95 1 19 89
M  V30 96 1 19 90
M  V30 97 1 23 91 CFG=3
M  V30 98 1 24 92
M  V30 99 1 27 93
M  V30 100 1 27 94
M  V30 101 1 29 95
M  V30 102 1 29 96
M  V30 103 1 30 97
M  V30 104 1 30 98
M  V30 105 1 32 99
M  V30 106 1 32 100
M  V30 107 1 33 101
M  V30 108 1 33 102
M  V30 109 1 35 103
M  V30 110 1 35 104
M  V30 111 1 36 105
M  V30 112 1 36 106
M  V30 113 1 37 107
M  V30 114 1 40 108
M  V30 115 1 40 109
M  V30 116 1 41 110
M  V30 117 1 41 111
M  V30 118 1 45 112
M  V30 119 1 45 113
M  V30 120 1 46 114
M  V30 121 1 46 115
M  V30 122 1 48 116 CFG=1
M  V30 123 1 49 117
M  V30 124 1 49 118
M  V30 125 1 50 119
M  V30 126 1 50 120
M  V30 127 1 51 121 CFG=3
M  V30 128 1 52 122
M  V30 129 1 55 123
M  V30 130 1 58 124
M  V30 131 1 59 125
M  V30 132 1 61 126
M  V30 133 1 62 127
M  V30 134 1 62 128
M  V30 135 1 62 129
M  V30 136 1 63 130
M  V30 137 1 63 131
M  V30 138 1 63 132
M  V30 139 1 65 133
M  V30 140 1 65 134
M  V30 141 1 66 135
M  V30 142 1 66 136
M  V30 143 1 67 137
M  V30 144 1 67 138
M  V30 145 1 68 139
M  V30 146 1 68 140
M  V30 147 1 70 141
M  V30 148 1 70 142
M  V30 149 1 70 143
M  V30 150 1 71 144
M  V30 151 1 71 145
M  V30 152 1 71 146
M  V30 153 1 72 147
M  V30 154 1 72 148
M  V30 155 1 72 149
M  V30 156 1 73 150
M  V30 157 1 74 151
M  V30 END BOND
M  V30 END CTAB
M  END
>  <Dataset>  (770) 
ChEMBL_Kinases

>  <Ligand_Instance>  (770) 
nan

>  <PDB_ID>  (770) 
nan

>  <Standardized_SMILES>  (770) 
Cc1ncsc1-c1ccc(CNC(=O)[C@@H]2C[C@@H](O)CN2C(=O)[C@@H](NC(=O)COCCOCCOCCNC(=O)CCC(=O)N2CCN([C@H]3CC[C@@H](Nc4ncnn5ccc(C(C)C)c45)CC3)CC2)C(C)(C)C)cc1

>  <Name>  (770) 
nan

>  <Pocket>  (770) 
nan

>  <ATP_Site>  (770) 
nan

>  <Peripheral>  (770) 
nan

>  <Num_H_Atoms_ProtBoundConf>  (770) 
nan

>  <Num_Resolved_Atoms>  (770) 
nan

>  <Num_Not_Resolved_Atoms>  (770) 
nan

$$$$
CHEMBL4787086
     RDKit          3D

  0  0  0  0  0  0  0  0  0  0999 V3000
M  V30 BEGIN CTAB
M  V30 COUNTS 41 44 0 0 0
M  V30 BEGIN ATOM
M  V30 1 C -0.151871 -5.666096 2.910789 0
M  V30 2 N 0.128549 -4.564747 2.027572 0
M  V30 3 C 0.712464 -4.863174 0.783100 0
M  V30 4 O 0.989119 -6.043626 0.431864 0
M  V30 5 C 1.040207 -3.836112 -0.189447 0
M  V30 6 C 1.612001 -4.186848 -1.395088 0
M  V30 7 N 1.946409 -3.276352 -2.355874 0
M  V30 8 C 1.724695 -1.964556 -2.157859 0
M  V30 9 N 1.931472 -0.847166 -2.879005 0
M  V30 10 C 1.518614 0.250688 -2.202040 0
M  V30 11 C 1.014487 -0.162935 -0.973416 0
M  V30 12 C 0.468872 0.724297 0.050388 0
M  V30 13 C 1.128328 1.889700 0.383602 0
M  V30 14 C 0.611354 2.727756 1.351830 0
M  V30 15 O 1.168521 3.924819 1.782468 0
M  V30 16 C 2.387043 4.393615 1.215797 0
M  V30 17 C -0.581988 2.400095 1.999052 0
M  V30 18 N -1.132854 3.194762 2.961728 0
M  V30 19 C -2.280010 2.867907 3.575556 0
M  V30 20 C -2.975702 1.708629 3.273279 0
M  V30 21 C -2.425703 0.900928 2.302090 0
M  V30 22 C -1.245887 1.235792 1.669874 0
M  V30 23 C -0.710086 0.408752 0.695540 0
M  V30 24 C 1.156656 -1.556140 -0.973879 0
M  V30 25 C 0.819254 -2.478953 -0.003534 0
M  V30 26 H -1.227831 -5.920816 2.838639 0
M  V30 27 H 0.424121 -6.568889 2.686212 0
M  V30 28 H 0.016216 -5.372725 3.976599 0
M  V30 29 H -0.096411 -3.593348 2.310509 0
M  V30 30 H 1.834405 -5.215336 -1.659602 0
M  V30 31 H 2.356521 -0.833914 -3.838048 0
M  V30 32 H 1.596788 1.250892 -2.607082 0
M  V30 33 H 2.043477 2.192654 -0.076459 0
M  V30 34 H 2.880806 5.130992 1.878710 0
M  V30 35 H 2.199200 4.862695 0.228048 0
M  V30 36 H 3.103354 3.548581 1.018878 0
M  V30 37 H -2.699434 3.514205 4.337479 0
M  V30 38 H -3.895935 1.409550 3.739803 0
M  V30 39 H -2.940210 -0.019790 2.034054 0
M  V30 40 H -1.272410 -0.487419 0.479890 0
M  V30 41 H 0.376234 -2.174418 0.923063 0
M  V30 END ATOM
M  V30 BEGIN BOND
M  V30 1 1 1 2
M  V30 2 1 2 3
M  V30 3 2 3 4
M  V30 4 1 3 5
M  V30 5 2 5 6
M  V30 6 1 6 7
M  V30 7 2 7 8
M  V30 8 1 8 9
M  V30 9 1 9 10
M  V30 10 2 10 11
M  V30 11 1 11 12
M  V30 12 2 12 13
M  V30 13 1 13 14
M  V30 14 1 14 15
M  V30 15 1 15 16
M  V30 16 2 14 17
M  V30 17 1 17 18
M  V30 18 2 18 19
M  V30 19 1 19 20
M  V30 20 2 20 21
M  V30 21 1 21 22
M  V30 22 2 22 23
M  V30 23 1 11 24
M  V30 24 2 24 25
M  V30 25 1 25 5
M  V30 26 1 24 8
M  V30 27 1 23 12
M  V30 28 1 22 17
M  V30 29 1 1 26
M  V30 30 1 1 27
M  V30 31 1 1 28
M  V30 32 1 2 29
M  V30 33 1 6 30
M  V30 34 1 9 31
M  V30 35 1 10 32
M  V30 36 1 13 33
M  V30 37 1 16 34
M  V30 38 1 16 35
M  V30 39 1 16 36
M  V30 40 1 19 37
M  V30 41 1 20 38
M  V30 42 1 21 39
M  V30 43 1 23 40
M  V30 44 1 25 41
M  V30 END BOND
M  V30 END CTAB
M  END
>  <Dataset>  (771) 
ChEMBL_Kinases

>  <Ligand_Instance>  (771) 
nan

>  <PDB_ID>  (771) 
nan

>  <Standardized_SMILES>  (771) 
CNC(=O)c1cnc2[nH]cc(-c3cc(OC)c4ncccc4c3)c2c1

>  <Name>  (771) 
nan

>  <Pocket>  (771) 
nan

>  <ATP_Site>  (771) 
nan

>  <Peripheral>  (771) 
nan

>  <Num_H_Atoms_ProtBoundConf>  (771) 
nan

>  <Num_Resolved_Atoms>  (771) 
nan

>  <Num_Not_Resolved_Atoms>  (771) 
nan

$$$$
CHEMBL4166209
     RDKit          3D

  0  0  0  0  0  0  0  0  0  0999 V3000
M  V30 BEGIN CTAB
M  V30 COUNTS 44 47 0 0 0
M  V30 BEGIN ATOM
M  V30 1 C -2.367873 -4.124200 4.105966 0
M  V30 2 O -1.105773 -4.725758 4.302737 0
M  V30 3 C 0.000463 -4.314221 3.584826 0
M  V30 4 C -0.076693 -3.296295 2.642547 0
M  V30 5 C 1.080569 -2.948136 1.969548 0
M  V30 6 C 1.068833 -1.880919 0.961815 0
M  V30 7 C 0.165417 -0.859543 1.192365 0
M  V30 8 N 0.145281 0.122998 0.274753 0
M  V30 9 C 0.921580 0.174274 -0.816396 0
M  V30 10 C 0.914026 1.155269 -1.750258 0
M  V30 11 N 0.113482 2.354144 -1.830617 0
M  V30 12 C 0.227623 3.298748 -2.892519 0
M  V30 13 C 0.362314 4.727142 -2.488882 0
M  V30 14 C -0.236006 5.090517 -1.173085 0
M  V30 15 C -0.286600 3.983149 -0.166428 0
M  V30 16 C -0.899004 2.783621 -0.889054 0
M  V30 17 S 2.072389 0.775030 -2.940195 0
M  V30 18 N 2.627472 -0.819825 -2.150674 0
M  V30 19 C 1.828525 -0.823534 -1.074129 0
M  V30 20 C 1.881248 -1.853884 -0.154442 0
M  V30 21 C 2.296573 -3.563687 2.192823 0
M  V30 22 C 2.386484 -4.581249 3.131071 0
M  V30 23 C 1.229844 -4.928202 3.802803 0
M  V30 24 N 1.331903 -5.973351 4.765047 0
M  V30 25 H -3.143098 -4.817404 4.513734 0
M  V30 26 H -2.428153 -3.122872 4.596807 0
M  V30 27 H -2.522700 -4.039760 3.008757 0
M  V30 28 H -1.012430 -2.791271 2.441401 0
M  V30 29 H -0.488801 -0.853048 2.064064 0
M  V30 30 H 1.145602 3.008966 -3.480546 0
M  V30 31 H -0.602489 3.147581 -3.642717 0
M  V30 32 H -0.174501 5.329039 -3.281189 0
M  V30 33 H 1.428938 5.078305 -2.562049 0
M  V30 34 H -1.296345 5.421424 -1.331880 0
M  V30 35 H 0.371919 5.943541 -0.766759 0
M  V30 36 H 0.690294 3.692796 0.219339 0
M  V30 37 H -0.995348 4.313578 0.630358 0
M  V30 38 H -1.838325 3.090076 -1.404516 0
M  V30 39 H -1.188771 2.039158 -0.150114 0
M  V30 40 H 2.522168 -2.710267 -0.190156 0
M  V30 41 H 3.206383 -3.289581 1.663191 0
M  V30 42 H 3.311592 -5.096557 3.345864 0
M  V30 43 H 1.484008 -7.025257 4.815509 0
M  V30 44 H 1.245865 -5.761354 5.788869 0
M  V30 END ATOM
M  V30 BEGIN BOND
M  V30 1 1 1 2
M  V30 2 1 2 3
M  V30 3 2 3 4
M  V30 4 1 4 5
M  V30 5 1 5 6
M  V30 6 1 6 7
M  V30 7 2 7 8
M  V30 8 1 8 9
M  V30 9 2 9 10
M  V30 10 1 10 11
M  V30 11 1 11 12
M  V30 12 1 12 13
M  V30 13 1 13 14
M  V30 14 1 14 15
M  V30 15 1 15 16
M  V30 16 1 10 17
M  V30 17 1 17 18
M  V30 18 2 18 19
M  V30 19 1 19 20
M  V30 20 2 5 21
M  V30 21 1 21 22
M  V30 22 2 22 23
M  V30 23 1 23 24
M  V30 24 1 23 3
M  V30 25 2 20 6
M  V30 26 1 19 9
M  V30 27 1 16 11
M  V30 28 1 1 25
M  V30 29 1 1 26
M  V30 30 1 1 27
M  V30 31 1 4 28
M  V30 32 1 7 29
M  V30 33 1 12 30
M  V30 34 1 12 31
M  V30 35 1 13 32
M  V30 36 1 13 33
M  V30 37 1 14 34
M  V30 38 1 14 35
M  V30 39 1 15 36
M  V30 40 1 15 37
M  V30 41 1 16 38
M  V30 42 1 16 39
M  V30 43 1 20 40
M  V30 44 1 21 41
M  V30 45 1 22 42
M  V30 46 1 24 43
M  V30 47 1 24 44
M  V30 END BOND
M  V30 END CTAB
M  END
>  <Dataset>  (772) 
ChEMBL_Kinases

>  <Ligand_Instance>  (772) 
nan

>  <PDB_ID>  (772) 
nan

>  <Standardized_SMILES>  (772) 
COc1cc(-c2cnc3c(N4CCCCC4)snc3c2)ccc1N

>  <Name>  (772) 
nan

>  <Pocket>  (772) 
nan

>  <ATP_Site>  (772) 
nan

>  <Peripheral>  (772) 
nan

>  <Num_H_Atoms_ProtBoundConf>  (772) 
nan

>  <Num_Resolved_Atoms>  (772) 
nan

>  <Num_Not_Resolved_Atoms>  (772) 
nan

$$$$
CHEMBL4166095
     RDKit          3D

  0  0  0  0  0  0  0  0  0  0999 V3000
M  V30 BEGIN CTAB
M  V30 COUNTS 29 30 0 0 0
M  V30 BEGIN ATOM
M  V30 1 O -1.707935 -1.812821 3.178173 0
M  V30 2 C -0.690590 -1.083449 2.867146 0
M  V30 3 C -0.525867 -1.157594 1.441533 0
M  V30 4 C 0.284501 -0.669952 0.525929 0
M  V30 5 C 0.321859 -0.843546 -0.918878 0
M  V30 6 C 1.300832 -0.201047 -1.643386 0
M  V30 7 C 1.344524 -0.358161 -3.004214 0
M  V30 8 C 0.439489 -1.141349 -3.687404 0
M  V30 9 O 0.501955 -1.286990 -5.068166 0
M  V30 10 C -0.551926 -1.796942 -2.988926 0
M  V30 11 O -1.490771 -2.602253 -3.646623 0
M  V30 12 C -0.574241 -1.622603 -1.621067 0
M  V30 13 C -0.046773 -0.437530 3.989122 0
M  V30 14 C 1.043920 0.388679 3.972028 0
M  V30 15 C 1.634128 0.987860 5.051323 0
M  V30 16 C 1.048893 0.713188 6.267549 0
M  V30 17 N -0.024478 -0.089934 6.355677 0
M  V30 18 C -0.548448 -0.641317 5.258298 0
M  V30 19 H -1.220380 -1.768968 0.842322 0
M  V30 20 H 1.039477 -0.034952 0.965508 0
M  V30 21 H 2.042911 0.429665 -1.165176 0
M  V30 22 H 2.124456 0.158078 -3.550102 0
M  V30 23 H 1.064552 -0.705302 -5.664453 0
M  V30 24 H -1.753221 -2.427897 -4.608288 0
M  V30 25 H -1.361668 -2.150869 -1.120442 0
M  V30 26 H 1.516466 0.618514 3.047574 0
M  V30 27 H 2.498069 1.633594 4.975548 0
M  V30 28 H 1.422505 1.124756 7.181794 0
M  V30 29 H -1.409342 -1.273256 5.416292 0
M  V30 END ATOM
M  V30 BEGIN BOND
M  V30 1 2 1 2
M  V30 2 1 2 3
M  V30 3 2 3 4
M  V30 4 1 4 5
M  V30 5 2 5 6
M  V30 6 1 6 7
M  V30 7 2 7 8
M  V30 8 1 8 9
M  V30 9 1 8 10
M  V30 10 1 10 11
M  V30 11 2 10 12
M  V30 12 1 2 13
M  V30 13 2 13 14
M  V30 14 1 14 15
M  V30 15 2 15 16
M  V30 16 1 16 17
M  V30 17 2 17 18
M  V30 18 1 12 5
M  V30 19 1 18 13
M  V30 20 1 3 19
M  V30 21 1 4 20
M  V30 22 1 6 21
M  V30 23 1 7 22
M  V30 24 1 9 23
M  V30 25 1 11 24
M  V30 26 1 12 25
M  V30 27 1 14 26
M  V30 28 1 15 27
M  V30 29 1 16 28
M  V30 30 1 18 29
M  V30 END BOND
M  V30 END CTAB
M  END
>  <Dataset>  (773) 
ChEMBL_Kinases

>  <Ligand_Instance>  (773) 
nan

>  <PDB_ID>  (773) 
nan

>  <Standardized_SMILES>  (773) 
O=C(/C=C/c1ccc(O)c(O)c1)c1cccnc1

>  <Name>  (773) 
nan

>  <Pocket>  (773) 
nan

>  <ATP_Site>  (773) 
nan

>  <Peripheral>  (773) 
nan

>  <Num_H_Atoms_ProtBoundConf>  (773) 
nan

>  <Num_Resolved_Atoms>  (773) 
nan

>  <Num_Not_Resolved_Atoms>  (773) 
nan

$$$$
CHEMBL4166094
     RDKit          3D

  0  0  0  0  0  0  0  0  0  0999 V3000
M  V30 BEGIN CTAB
M  V30 COUNTS 55 58 0 0 0
M  V30 BEGIN ATOM
M  V30 1 C 3.261934 -3.452186 4.944914 0
M  V30 2 C 4.479265 -2.805220 4.303162 0
M  V30 3 C 4.930725 -3.718799 3.186841 0
M  V30 4 C 4.058294 -1.515938 3.694818 0
M  V30 5 N 4.580250 -0.320413 4.009820 0
M  V30 6 C 3.968615 0.601253 3.275944 0
M  V30 7 C 3.014877 0.030014 2.445852 0
M  V30 8 C 2.057888 0.419344 1.428451 0
M  V30 9 C 2.229067 1.202964 0.381939 0
M  V30 10 C 3.459731 1.850802 0.029361 0
M  V30 11 O 4.521154 1.751368 0.648360 0
M  V30 12 N 3.209984 2.606314 -1.145411 0
M  V30 13 C 1.846638 2.425228 -1.509915 0
M  V30 14 C 1.088582 2.935446 -2.570197 0
M  V30 15 C -0.262781 2.615474 -2.733019 0
M  V30 16 C -0.865132 1.774221 -1.824203 0
M  V30 17 C -2.275937 1.468714 -2.032555 0
M  V30 18 O -2.844303 1.991891 -3.027340 0
M  V30 19 N -2.974867 0.625468 -1.159812 0
M  V30 20 C -4.281979 0.094084 -1.000984 0 CFG=2
M  V30 21 C -4.969867 0.439224 0.294347 0
M  V30 22 O -6.226002 -0.170675 0.257769 0
M  V30 23 C -4.335792 -1.393617 -1.177593 0
M  V30 24 C -3.386037 -2.216587 -0.598743 0
M  V30 25 C -3.395597 -3.589779 -0.730355 0
M  V30 26 C -4.387039 -4.197985 -1.467922 0
M  V30 27 C -5.343084 -3.394075 -2.052906 0
M  V30 28 C -5.338910 -2.019387 -1.924946 0
M  V30 29 C -0.104345 1.282121 -0.788145 0
M  V30 30 C 1.228864 1.583660 -0.607317 0
M  V30 31 N 3.125511 -1.292823 2.760504 0
M  V30 32 H 2.354465 -3.148256 4.368850 0
M  V30 33 H 3.324365 -4.559223 4.885568 0
M  V30 34 H 3.107815 -3.137380 5.986167 0
M  V30 35 H 5.265841 -2.671398 5.046421 0
M  V30 36 H 4.086925 -3.858893 2.490831 0
M  V30 37 H 5.340448 -4.673346 3.566221 0
M  V30 38 H 5.714394 -3.147335 2.610008 0
M  V30 39 H 4.107985 1.671608 3.261178 0
M  V30 40 H 1.033916 0.017154 1.524712 0
M  V30 41 H 3.946992 3.178057 -1.613419 0
M  V30 42 H 1.554629 3.593049 -3.280751 0
M  V30 43 H -0.776165 3.049958 -3.576147 0
M  V30 44 H -2.527181 0.182314 -0.329335 0
M  V30 45 H -4.931771 0.492583 -1.825257 0
M  V30 46 H -4.453527 0.056759 1.181837 0
M  V30 47 H -5.180887 1.545024 0.337355 0
M  V30 48 H -6.268311 -1.024916 0.759196 0
M  V30 49 H -2.574461 -1.823881 -0.004577 0
M  V30 50 H -2.653980 -4.256879 -0.281653 0
M  V30 51 H -4.415030 -5.279587 -1.587420 0
M  V30 52 H -6.117891 -3.844652 -2.627906 0
M  V30 53 H -6.098087 -1.422698 -2.392204 0
M  V30 54 H -0.556470 0.631741 -0.079796 0
M  V30 55 H 2.591362 -2.120846 2.376648 0
M  V30 END ATOM
M  V30 BEGIN BOND
M  V30 1 1 1 2
M  V30 2 1 2 3
M  V30 3 1 2 4
M  V30 4 2 4 5
M  V30 5 1 5 6
M  V30 6 2 6 7
M  V30 7 1 7 8
M  V30 8 2 8 9
M  V30 9 1 9 10
M  V30 10 2 10 11
M  V30 11 1 10 12
M  V30 12 1 12 13
M  V30 13 2 13 14
M  V30 14 1 14 15
M  V30 15 2 15 16
M  V30 16 1 16 17
M  V30 17 2 17 18
M  V30 18 1 17 19
M  V30 19 1 19 20
M  V30 20 1 20 21
M  V30 21 1 21 22
M  V30 22 1 20 23
M  V30 23 2 23 24
M  V30 24 1 24 25
M  V30 25 2 25 26
M  V30 26 1 26 27
M  V30 27 2 27 28
M  V30 28 1 16 29
M  V30 29 2 29 30
M  V30 30 1 7 31
M  V30 31 1 31 4
M  V30 32 1 30 9
M  V30 33 1 30 13
M  V30 34 1 28 23
M  V30 35 1 1 32
M  V30 36 1 1 33
M  V30 37 1 1 34
M  V30 38 1 2 35
M  V30 39 1 3 36
M  V30 40 1 3 37
M  V30 41 1 3 38
M  V30 42 1 6 39
M  V30 43 1 8 40
M  V30 44 1 12 41
M  V30 45 1 14 42
M  V30 46 1 15 43
M  V30 47 1 19 44
M  V30 48 1 20 45 CFG=3
M  V30 49 1 21 46
M  V30 50 1 21 47
M  V30 51 1 22 48
M  V30 52 1 24 49
M  V30 53 1 25 50
M  V30 54 1 26 51
M  V30 55 1 27 52
M  V30 56 1 28 53
M  V30 57 1 29 54
M  V30 58 1 31 55
M  V30 END BOND
M  V30 END CTAB
M  END
>  <Dataset>  (774) 
ChEMBL_Kinases

>  <Ligand_Instance>  (774) 
nan

>  <PDB_ID>  (774) 
nan

>  <Standardized_SMILES>  (774) 
CC(C)c1ncc(/C=C2\C(=O)Nc3ccc(C(=O)N[C@H](CO)c4ccccc4)cc32)[nH]1

>  <Name>  (774) 
nan

>  <Pocket>  (774) 
nan

>  <ATP_Site>  (774) 
nan

>  <Peripheral>  (774) 
nan

>  <Num_H_Atoms_ProtBoundConf>  (774) 
nan

>  <Num_Resolved_Atoms>  (774) 
nan

>  <Num_Not_Resolved_Atoms>  (774) 
nan

$$$$
CHEMBL4787142
     RDKit          3D

  0  0  0  0  0  0  0  0  0  0999 V3000
M  V30 BEGIN CTAB
M  V30 COUNTS 50 53 0 0 0
M  V30 BEGIN ATOM
M  V30 1 N -4.582238 -3.615427 2.199542 0
M  V30 2 C -3.524773 -2.751291 1.799489 0
M  V30 3 N -3.653260 -1.437165 2.120433 0
M  V30 4 C -2.693268 -0.532342 1.780256 0
M  V30 5 C -1.586172 -0.979458 1.101881 0
M  V30 6 C -0.542655 -0.028487 0.725740 0
M  V30 7 C -0.334801 1.046678 1.566288 0
M  V30 8 C 0.639011 1.975351 1.257809 0
M  V30 9 C 1.440723 1.900167 0.135944 0
M  V30 10 C 2.493214 2.837386 -0.260392 0
M  V30 11 C 2.342298 3.140312 -1.728360 0
M  V30 12 O 2.136315 4.331961 -2.124349 0
M  V30 13 O 2.368315 2.401534 -2.896973 0
M  V30 14 C 2.465851 4.147790 0.492095 0
M  V30 15 C 3.522612 4.150685 1.586024 0
M  V30 16 O 3.514614 2.937014 2.226113 0
M  V30 17 C 3.984267 1.891417 1.434888 0
M  V30 18 C 3.891105 2.265325 -0.050013 0
M  V30 19 C 1.215795 0.814759 -0.692988 0
M  V30 20 C 0.245753 -0.128925 -0.404964 0
M  V30 21 C -1.456224 -2.319413 0.775207 0
M  V30 22 C -2.427136 -3.245655 1.117130 0
M  V30 23 C -2.344065 -4.670706 0.799383 0
M  V30 24 C -3.400174 -5.413646 0.284569 0
M  V30 25 C -3.232962 -6.769461 0.010245 0
M  V30 26 C -2.018106 -7.383630 0.247721 0
M  V30 27 Cl -1.790637 -9.087742 -0.091654 0
M  V30 28 C -0.983492 -6.599645 0.765602 0
M  V30 29 C -1.113003 -5.252470 1.049831 0
M  V30 30 H -4.351184 -4.272735 2.987078 0
M  V30 31 H -5.526233 -3.605914 1.749061 0
M  V30 32 H -2.780557 0.506423 2.026220 0
M  V30 33 H -0.914904 1.197866 2.478241 0
M  V30 34 H 0.794332 2.804873 1.911105 0
M  V30 35 H 1.540132 2.358179 -3.493283 0
M  V30 36 H 1.455561 4.423485 0.868487 0
M  V30 37 H 2.793974 4.943930 -0.237445 0
M  V30 38 H 3.262228 4.922749 2.349672 0
M  V30 39 H 4.511388 4.449344 1.200936 0
M  V30 40 H 5.035314 1.647097 1.717853 0
M  V30 41 H 3.326406 1.025736 1.612721 0
M  V30 42 H 4.098335 1.412349 -0.693182 0
M  V30 43 H 4.620662 3.064293 -0.292397 0
M  V30 44 H 1.724528 0.567977 -1.609354 0
M  V30 45 H 0.014118 -1.003093 -1.006687 0
M  V30 46 H -0.596018 -2.710371 0.239894 0
M  V30 47 H -4.322051 -4.896774 0.116612 0
M  V30 48 H -4.082302 -7.319792 -0.392346 0
M  V30 49 H -0.010067 -7.070312 0.961043 0
M  V30 50 H -0.269049 -4.711663 1.448540 0
M  V30 END ATOM
M  V30 BEGIN BOND
M  V30 1 1 1 2
M  V30 2 2 2 3
M  V30 3 1 3 4
M  V30 4 2 4 5
M  V30 5 1 5 6
M  V30 6 2 6 7
M  V30 7 1 7 8
M  V30 8 2 8 9
M  V30 9 1 9 10
M  V30 10 1 10 11
M  V30 11 2 11 12
M  V30 12 1 11 13
M  V30 13 1 10 14
M  V30 14 1 14 15
M  V30 15 1 15 16
M  V30 16 1 16 17
M  V30 17 1 17 18
M  V30 18 1 9 19
M  V30 19 2 19 20
M  V30 20 1 5 21
M  V30 21 2 21 22
M  V30 22 1 22 23
M  V30 23 2 23 24
M  V30 24 1 24 25
M  V30 25 2 25 26
M  V30 26 1 26 27
M  V30 27 1 26 28
M  V30 28 2 28 29
M  V30 29 1 22 2
M  V30 30 1 29 23
M  V30 31 1 20 6
M  V30 32 1 18 10
M  V30 33 1 1 30
M  V30 34 1 1 31
M  V30 35 1 4 32
M  V30 36 1 7 33
M  V30 37 1 8 34
M  V30 38 1 13 35
M  V30 39 1 14 36
M  V30 40 1 14 37
M  V30 41 1 15 38
M  V30 42 1 15 39
M  V30 43 1 17 40
M  V30 44 1 17 41
M  V30 45 1 18 42
M  V30 46 1 18 43
M  V30 47 1 19 44
M  V30 48 1 20 45
M  V30 49 1 21 46
M  V30 50 1 24 47
M  V30 51 1 25 48
M  V30 52 1 28 49
M  V30 53 1 29 50
M  V30 END BOND
M  V30 END CTAB
M  END
>  <Dataset>  (775) 
ChEMBL_Kinases

>  <Ligand_Instance>  (775) 
nan

>  <PDB_ID>  (775) 
nan

>  <Standardized_SMILES>  (775) 
Nc1ncc(-c2ccc(C3(C(=O)O)CCOCC3)cc2)cc1-c1ccc(Cl)cc1

>  <Name>  (775) 
nan

>  <Pocket>  (775) 
nan

>  <ATP_Site>  (775) 
nan

>  <Peripheral>  (775) 
nan

>  <Num_H_Atoms_ProtBoundConf>  (775) 
nan

>  <Num_Resolved_Atoms>  (775) 
nan

>  <Num_Not_Resolved_Atoms>  (775) 
nan

$$$$
CHEMBL4787152
     RDKit          3D

  0  0  0  0  0  0  0  0  0  0999 V3000
M  V30 BEGIN CTAB
M  V30 COUNTS 50 53 0 0 0
M  V30 BEGIN ATOM
M  V30 1 N -5.171419 -3.716830 2.092804 0
M  V30 2 C -4.291735 -2.713452 1.596918 0
M  V30 3 N -4.669916 -1.464315 1.270308 0
M  V30 4 C -3.817487 -0.531612 0.802397 0
M  V30 5 C -2.490632 -0.837114 0.638568 0
M  V30 6 C -1.462166 0.072838 0.145333 0
M  V30 7 C -1.544201 1.419846 0.401505 0
M  V30 8 C -0.601637 2.322093 -0.040462 0
M  V30 9 C 0.484814 1.896628 -0.773502 0
M  V30 10 O 1.569340 2.539266 -1.339862 0
M  V30 11 C 2.802891 2.748837 -0.727974 0
M  V30 12 C 2.691182 3.547721 0.507565 0
M  V30 13 O 1.804261 4.115878 1.196603 0
M  V30 14 O 3.140733 4.197722 1.639687 0
M  V30 15 C 3.526960 1.428285 -0.475427 0
M  V30 16 C 4.897302 1.903314 -0.069451 0
M  V30 17 C 5.141124 3.115103 -0.944999 0
M  V30 18 C 3.801329 3.438581 -1.608430 0
M  V30 19 C 0.593740 0.525928 -1.050262 0
M  V30 20 C -0.380859 -0.369891 -0.587690 0
M  V30 21 C -2.091910 -2.135594 0.977063 0
M  V30 22 C -2.975364 -3.103934 1.462553 0
M  V30 23 C -2.423192 -4.426716 1.778640 0
M  V30 24 C -3.011452 -5.621807 1.421019 0
M  V30 25 C -2.381637 -6.795882 1.782220 0
M  V30 26 C -1.184203 -6.834442 2.488243 0
M  V30 27 Cl -0.452740 -8.391260 2.905069 0
M  V30 28 C -0.608293 -5.628378 2.838624 0
M  V30 29 C -1.226480 -4.424447 2.484586 0
M  V30 30 H -4.925424 -4.002824 3.077062 0
M  V30 31 H -5.809071 -3.846787 1.268221 0
M  V30 32 H -4.134913 0.458714 0.546785 0
M  V30 33 H -2.345861 1.860753 0.962124 0
M  V30 34 H -0.570210 3.390315 0.097908 0
M  V30 35 H 4.115861 4.191748 1.956139 0
M  V30 36 H 3.620732 0.946465 -1.460345 0
M  V30 37 H 3.025322 0.825262 0.287775 0
M  V30 38 H 4.938331 2.146955 1.017443 0
M  V30 39 H 5.680663 1.109359 -0.217728 0
M  V30 40 H 5.915528 2.824878 -1.698715 0
M  V30 41 H 5.470933 3.994450 -0.374238 0
M  V30 42 H 3.769507 3.042121 -2.623083 0
M  V30 43 H 3.593324 4.524866 -1.541629 0
M  V30 44 H 1.379344 0.002894 -1.613348 0
M  V30 45 H -0.335552 -1.442993 -0.780345 0
M  V30 46 H -1.041245 -2.418212 0.861174 0
M  V30 47 H -3.930814 -5.583948 0.878859 0
M  V30 48 H -2.809022 -7.744044 1.521541 0
M  V30 49 H 0.316400 -5.670959 3.383498 0
M  V30 50 H -0.690663 -3.526820 2.808516 0
M  V30 END ATOM
M  V30 BEGIN BOND
M  V30 1 1 1 2
M  V30 2 2 2 3
M  V30 3 1 3 4
M  V30 4 2 4 5
M  V30 5 1 5 6
M  V30 6 2 6 7
M  V30 7 1 7 8
M  V30 8 2 8 9
M  V30 9 1 9 10
M  V30 10 1 10 11
M  V30 11 1 11 12
M  V30 12 2 12 13
M  V30 13 1 12 14
M  V30 14 1 11 15
M  V30 15 1 15 16
M  V30 16 1 16 17
M  V30 17 1 17 18
M  V30 18 1 9 19
M  V30 19 2 19 20
M  V30 20 1 5 21
M  V30 21 2 21 22
M  V30 22 1 22 23
M  V30 23 2 23 24
M  V30 24 1 24 25
M  V30 25 2 25 26
M  V30 26 1 26 27
M  V30 27 1 26 28
M  V30 28 2 28 29
M  V30 29 1 22 2
M  V30 30 1 29 23
M  V30 31 1 20 6
M  V30 32 1 18 11
M  V30 33 1 1 30
M  V30 34 1 1 31
M  V30 35 1 4 32
M  V30 36 1 7 33
M  V30 37 1 8 34
M  V30 38 1 14 35
M  V30 39 1 15 36
M  V30 40 1 15 37
M  V30 41 1 16 38
M  V30 42 1 16 39
M  V30 43 1 17 40
M  V30 44 1 17 41
M  V30 45 1 18 42
M  V30 46 1 18 43
M  V30 47 1 19 44
M  V30 48 1 20 45
M  V30 49 1 21 46
M  V30 50 1 24 47
M  V30 51 1 25 48
M  V30 52 1 28 49
M  V30 53 1 29 50
M  V30 END BOND
M  V30 END CTAB
M  END
>  <Dataset>  (776) 
ChEMBL_Kinases

>  <Ligand_Instance>  (776) 
nan

>  <PDB_ID>  (776) 
nan

>  <Standardized_SMILES>  (776) 
Nc1ncc(-c2ccc(OC3(C(=O)O)CCCC3)cc2)cc1-c1ccc(Cl)cc1

>  <Name>  (776) 
nan

>  <Pocket>  (776) 
nan

>  <ATP_Site>  (776) 
nan

>  <Peripheral>  (776) 
nan

>  <Num_H_Atoms_ProtBoundConf>  (776) 
nan

>  <Num_Resolved_Atoms>  (776) 
nan

>  <Num_Not_Resolved_Atoms>  (776) 
nan

$$$$
CHEMBL4166041
     RDKit          3D

  0  0  0  0  0  0  0  0  0  0999 V3000
M  V30 BEGIN CTAB
M  V30 COUNTS 64 69 0 0 0
M  V30 BEGIN ATOM
M  V30 1 C 1.805888 2.758524 -0.275996 0
M  V30 2 C 1.938031 2.064798 1.043743 0 CFG=2
M  V30 3 C 1.349366 2.983819 2.111364 0
M  V30 4 C 2.251962 4.151999 2.369515 0
M  V30 5 C 3.511647 3.641197 3.031040 0 CFG=2
M  V30 6 O 4.299181 4.668494 3.521870 0
M  V30 7 C 4.282694 2.858910 1.987663 0
M  V30 8 C 3.370228 1.847854 1.388818 0
M  V30 9 C 3.819515 0.632711 1.119160 0
M  V30 10 C 3.153067 -0.558646 0.532870 0
M  V30 11 C 1.720876 -0.265286 0.149142 0 CFG=2
M  V30 12 C 1.178424 0.781816 1.129773 0 CFG=2
M  V30 13 C -0.272548 1.028170 0.950012 0
M  V30 14 C -1.125921 -0.231089 0.842312 0
M  V30 15 C -0.526347 -1.120405 -0.183158 0 CFG=2
M  V30 16 C -0.387220 -0.434982 -1.523979 0
M  V30 17 C -1.092988 -2.433508 -0.399778 0
M  V30 18 C -2.429139 -3.008959 -0.544539 0
M  V30 19 C -3.553329 -2.216686 -0.583335 0
M  V30 20 C -4.848682 -2.653697 -0.696273 0
M  V30 21 C -5.063104 -4.010419 -0.780548 0
M  V30 22 N -6.290555 -4.569560 -0.894987 0
M  V30 23 C -6.393324 -5.929001 -0.971612 0
M  V30 24 N -7.678561 -6.482447 -1.089358 0
M  V30 25 N -5.345125 -6.804804 -0.943056 0
M  V30 26 C -4.084530 -6.288483 -0.828503 0
M  V30 27 C -4.006845 -4.892033 -0.751680 0
M  V30 28 C -2.754595 -4.337217 -0.635440 0
M  V30 29 C -0.100311 -3.345018 -0.488961 0
M  V30 30 C 1.210290 -2.682349 -0.337037 0
M  V30 31 C 0.860272 -1.460423 0.392193 0 CFG=1
M  V30 32 H 0.811852 3.281380 -0.362013 0
M  V30 33 H 2.013781 2.127915 -1.147266 0
M  V30 34 H 2.557830 3.573845 -0.301788 0
M  V30 35 H 0.391945 3.381576 1.702304 0
M  V30 36 H 1.182028 2.388767 3.041851 0
M  V30 37 H 1.753910 4.816918 3.103164 0
M  V30 38 H 2.508025 4.647381 1.431462 0
M  V30 39 H 3.317259 2.952677 3.865442 0
M  V30 40 H 5.242163 4.440656 3.325724 0
M  V30 41 H 5.110129 2.345654 2.494110 0
M  V30 42 H 4.710139 3.546988 1.229695 0
M  V30 43 H 4.874938 0.415831 1.354728 0
M  V30 44 H 3.224516 -1.412501 1.241258 0
M  V30 45 H 3.708233 -0.819956 -0.390865 0
M  V30 46 H 1.698363 0.069188 -0.888453 0
M  V30 47 H 1.344950 0.357688 2.143737 0
M  V30 48 H -0.627605 1.506172 1.912030 0
M  V30 49 H -0.537874 1.790585 0.179414 0
M  V30 50 H -0.987132 -0.746659 1.838445 0
M  V30 51 H -2.141904 0.114424 0.702005 0
M  V30 52 H 0.372293 -0.948298 -2.131446 0
M  V30 53 H -1.399063 -0.518699 -2.012358 0
M  V30 54 H -0.171647 0.644018 -1.460648 0
M  V30 55 H -3.538764 -1.141570 -0.543200 0
M  V30 56 H -5.731248 -2.050252 -0.727286 0
M  V30 57 H -8.629464 -6.834849 -1.159177 0
M  V30 58 H -7.847533 -7.478428 -1.384593 0
M  V30 59 H -3.221984 -6.931637 -0.801053 0
M  V30 60 H -1.912623 -5.049838 -0.611370 0
M  V30 61 H -0.018551 -4.431424 -0.645702 0
M  V30 62 H 1.912110 -3.280771 0.313536 0
M  V30 63 H 1.688031 -2.450842 -1.308906 0
M  V30 64 H 0.755046 -1.584598 1.489696 0
M  V30 END ATOM
M  V30 BEGIN BOND
M  V30 1 1 2 1 CFG=3
M  V30 2 1 2 3
M  V30 3 1 3 4
M  V30 4 1 4 5
M  V30 5 1 5 6
M  V30 6 1 5 7
M  V30 7 1 7 8
M  V30 8 2 8 9
M  V30 9 1 9 10
M  V30 10 1 10 11
M  V30 11 1 11 12
M  V30 12 1 12 13
M  V30 13 1 13 14
M  V30 14 1 14 15
M  V30 15 1 15 16 CFG=3
M  V30 16 1 15 17
M  V30 17 1 17 18
M  V30 18 2 18 19
M  V30 19 1 19 20
M  V30 20 2 20 21
M  V30 21 1 21 22
M  V30 22 2 22 23
M  V30 23 1 23 24
M  V30 24 1 23 25
M  V30 25 2 25 26
M  V30 26 1 26 27
M  V30 27 2 27 28
M  V30 28 2 17 29
M  V30 29 1 29 30
M  V30 30 1 30 31
M  V30 31 1 8 2
M  V30 32 1 31 11
M  V30 33 1 12 2
M  V30 34 1 31 15
M  V30 35 1 28 18
M  V30 36 1 27 21
M  V30 37 1 1 32
M  V30 38 1 1 33
M  V30 39 1 1 34
M  V30 40 1 3 35
M  V30 41 1 3 36
M  V30 42 1 4 37
M  V30 43 1 4 38
M  V30 44 1 5 39 CFG=1
M  V30 45 1 6 40
M  V30 46 1 7 41
M  V30 47 1 7 42
M  V30 48 1 9 43
M  V30 49 1 10 44
M  V30 50 1 10 45
M  V30 51 1 11 46 CFG=3
M  V30 52 1 12 47 CFG=1
M  V30 53 1 13 48
M  V30 54 1 13 49
M  V30 55 1 14 50
M  V30 56 1 14 51
M  V30 57 1 16 52
M  V30 58 1 16 53
M  V30 59 1 16 54
M  V30 60 1 19 55
M  V30 61 1 20 56
M  V30 62 1 24 57
M  V30 63 1 24 58
M  V30 64 1 26 59
M  V30 65 1 28 60
M  V30 66 1 29 61
M  V30 67 1 30 62
M  V30 68 1 30 63
M  V30 69 1 31 64 CFG=1
M  V30 END BOND
M  V30 END CTAB
M  END
>  <Dataset>  (777) 
ChEMBL_Kinases

>  <Ligand_Instance>  (777) 
nan

>  <PDB_ID>  (777) 
nan

>  <Standardized_SMILES>  (777) 
C[C@]12CC[C@H](O)CC1=CC[C@@H]1[C@@H]2CC[C@]2(C)C(c3ccc4nc(N)ncc4c3)=CC[C@@H]12

>  <Name>  (777) 
nan

>  <Pocket>  (777) 
nan

>  <ATP_Site>  (777) 
nan

>  <Peripheral>  (777) 
nan

>  <Num_H_Atoms_ProtBoundConf>  (777) 
nan

>  <Num_Resolved_Atoms>  (777) 
nan

>  <Num_Not_Resolved_Atoms>  (777) 
nan

$$$$
CHEMBL4166028
     RDKit          3D

  0  0  0  0  0  0  0  0  0  0999 V3000
M  V30 BEGIN CTAB
M  V30 COUNTS 23 24 0 0 0
M  V30 BEGIN ATOM
M  V30 1 N 0.445733 -3.113201 5.343575 0
M  V30 2 C 0.549180 -2.288680 4.101083 0
M  V30 3 N 1.490032 -2.054678 3.536374 0
M  V30 4 C 1.735264 -1.359785 2.452432 0
M  V30 5 C 0.648835 -0.818824 1.905805 0
M  V30 6 C 0.332451 0.026085 0.730850 0
M  V30 7 C -0.965021 0.402490 0.476502 0
M  V30 8 C -1.143664 1.197235 -0.656523 0
M  V30 9 C -0.055687 1.562957 -1.450250 0
M  V30 10 C -0.333752 2.396776 -2.617929 0
M  V30 11 O -1.517677 2.728869 -2.833168 0
M  V30 12 O 0.698940 2.801563 -3.456613 0
M  V30 13 C 1.223059 1.146578 -1.132450 0
M  V30 14 C 1.447038 0.349248 -0.006154 0
M  V30 15 S -0.733607 -1.352317 3.015838 0
M  V30 16 H 0.026087 -4.078422 5.379652 0
M  V30 17 H 0.852506 -2.577776 6.150154 0
M  V30 18 H 2.710722 -1.189827 1.974307 0
M  V30 19 H -1.794383 0.107614 1.105335 0
M  V30 20 H -2.177094 1.491808 -0.851380 0
M  V30 21 H 0.566695 3.623602 -4.021809 0
M  V30 22 H 2.057616 1.445292 -1.768148 0
M  V30 23 H 2.451369 0.030235 0.231630 0
M  V30 END ATOM
M  V30 BEGIN BOND
M  V30 1 1 1 2
M  V30 2 2 2 3
M  V30 3 1 3 4
M  V30 4 2 4 5
M  V30 5 1 5 6
M  V30 6 2 6 7
M  V30 7 1 7 8
M  V30 8 2 8 9
M  V30 9 1 9 10
M  V30 10 2 10 11
M  V30 11 1 10 12
M  V30 12 1 9 13
M  V30 13 2 13 14
M  V30 14 1 5 15
M  V30 15 1 15 2
M  V30 16 1 14 6
M  V30 17 1 1 16
M  V30 18 1 1 17
M  V30 19 1 4 18
M  V30 20 1 7 19
M  V30 21 1 8 20
M  V30 22 1 12 21
M  V30 23 1 13 22
M  V30 24 1 14 23
M  V30 END BOND
M  V30 END CTAB
M  END
>  <Dataset>  (778) 
ChEMBL_Kinases

>  <Ligand_Instance>  (778) 
nan

>  <PDB_ID>  (778) 
nan

>  <Standardized_SMILES>  (778) 
Nc1ncc(-c2ccc(C(=O)O)cc2)s1

>  <Name>  (778) 
nan

>  <Pocket>  (778) 
nan

>  <ATP_Site>  (778) 
nan

>  <Peripheral>  (778) 
nan

>  <Num_H_Atoms_ProtBoundConf>  (778) 
nan

>  <Num_Resolved_Atoms>  (778) 
nan

>  <Num_Not_Resolved_Atoms>  (778) 
nan

$$$$
CHEMBL4167852
     RDKit          3D

  0  0  0  0  0  0  0  0  0  0999 V3000
M  V30 BEGIN CTAB
M  V30 COUNTS 63 67 0 0 0
M  V30 BEGIN ATOM
M  V30 1 C 6.370231 3.752835 3.391970 0
M  V30 2 C 5.861152 4.164687 2.008253 0
M  V30 3 O 4.743075 3.382627 1.701522 0
M  V30 4 C 3.989593 3.442987 0.543115 0
M  V30 5 O 4.390515 4.312784 -0.301408 0
M  V30 6 C 2.853810 2.516040 0.445911 0
M  V30 7 C 1.584247 2.872430 0.902914 0
M  V30 8 N 1.103827 3.975643 1.471112 0
M  V30 9 C -0.201146 3.752800 1.702179 0
M  V30 10 C -1.087967 4.634193 2.280847 0
M  V30 11 C -2.392669 4.191785 2.423209 0
M  V30 12 C -2.771557 2.933323 2.003754 0
M  V30 13 C -1.822251 2.112014 1.433899 0
M  V30 14 C -0.506110 2.473126 1.255647 0
M  V30 15 C 0.639447 1.884017 0.732795 0
M  V30 16 C 0.820090 0.637204 0.180791 0
M  V30 17 C -0.283299 -0.324267 0.060229 0
M  V30 18 C -1.040132 -0.294703 -1.101708 0
M  V30 19 C -2.069640 -1.240886 -1.160019 0
M  V30 20 C -2.348100 -2.156206 -0.158104 0
M  V30 21 N -3.448159 -3.072631 -0.367051 0
M  V30 22 C -3.312336 -4.370610 -1.010864 0
M  V30 23 O -2.075276 -4.264901 -1.215069 0
M  V30 24 C -4.666719 -4.947575 -1.006487 0
M  V30 25 C -4.694727 -6.283044 -1.645770 0
M  V30 26 N -3.944397 -7.333110 -1.110772 0
M  V30 27 C -2.537697 -7.324811 -1.174738 0
M  V30 28 C -4.420360 -8.003477 0.045809 0
M  V30 29 C -1.565607 -2.144614 0.978584 0
M  V30 30 C -0.528093 -1.231808 1.100527 0
M  V30 31 C 2.092352 0.295734 -0.270678 0
M  V30 32 C 2.478985 -0.853628 -0.832619 0
M  V30 33 O 1.790813 -1.882385 -1.082029 0
M  V30 34 N 3.761298 -0.987593 -1.201511 0
M  V30 35 S 4.593002 0.601170 -0.759922 0 CHG=1 VAL=3
M  V30 36 O 6.007200 1.157251 -0.932002 0 CHG=-1 VAL=1
M  V30 37 C 3.070066 1.259628 -0.118625 0
M  V30 38 H 6.310806 2.641865 3.537278 0
M  V30 39 H 7.413222 4.045210 3.530153 0
M  V30 40 H 5.767603 4.251931 4.179366 0
M  V30 41 H 5.648601 5.249009 2.066244 0
M  V30 42 H 6.706227 3.965760 1.307994 0
M  V30 43 H 1.689797 4.819223 1.670527 0
M  V30 44 H -0.793533 5.619928 2.610097 0
M  V30 45 H -3.107593 4.863729 2.874393 0
M  V30 46 H -3.802846 2.633785 2.136370 0
M  V30 47 H -2.150512 1.152661 1.124944 0
M  V30 48 H -0.887336 0.375498 -1.909485 0
M  V30 49 H -2.669120 -1.232384 -2.058111 0
M  V30 50 H -4.194643 -2.444528 0.083926 0
M  V30 51 H -5.103893 -4.963132 0.029886 0
M  V30 52 H -5.363015 -4.254092 -1.565448 0
M  V30 53 H -4.390252 -6.183549 -2.739325 0
M  V30 54 H -5.780734 -6.607347 -1.744984 0
M  V30 55 H -2.201218 -8.399344 -1.200785 0
M  V30 56 H -2.155274 -6.812157 -2.097767 0
M  V30 57 H -2.105118 -6.810448 -0.310916 0
M  V30 58 H -5.128667 -7.401682 0.667008 0
M  V30 59 H -3.562286 -8.215614 0.715392 0
M  V30 60 H -4.853791 -9.016692 -0.176317 0
M  V30 61 H -1.805317 -2.867431 1.741106 0
M  V30 62 H 0.087451 -1.220570 1.991964 0
M  V30 63 H 4.342514 -1.758225 -1.656908 0
M  V30 END ATOM
M  V30 BEGIN BOND
M  V30 1 1 1 2
M  V30 2 1 2 3
M  V30 3 1 3 4
M  V30 4 2 4 5
M  V30 5 1 4 6
M  V30 6 2 6 7
M  V30 7 1 7 8
M  V30 8 1 8 9
M  V30 9 2 9 10
M  V30 10 1 10 11
M  V30 11 2 11 12
M  V30 12 1 12 13
M  V30 13 2 13 14
M  V30 14 1 14 15
M  V30 15 2 15 16
M  V30 16 1 16 17
M  V30 17 2 17 18
M  V30 18 1 18 19
M  V30 19 2 19 20
M  V30 20 1 20 21
M  V30 21 1 21 22
M  V30 22 2 22 23
M  V30 23 1 22 24
M  V30 24 1 24 25
M  V30 25 1 25 26
M  V30 26 1 26 27
M  V30 27 1 26 28
M  V30 28 1 20 29
M  V30 29 2 29 30
M  V30 30 1 16 31
M  V30 31 1 31 32
M  V30 32 2 32 33
M  V30 33 1 32 34
M  V30 34 1 34 35
M  V30 35 1 35 36
M  V30 36 1 35 37
M  V30 37 1 37 6
M  V30 38 1 15 7
M  V30 39 1 30 17
M  V30 40 2 37 31
M  V30 41 1 14 9
M  V30 42 1 1 38
M  V30 43 1 1 39
M  V30 44 1 1 40
M  V30 45 1 2 41
M  V30 46 1 2 42
M  V30 47 1 8 43
M  V30 48 1 10 44
M  V30 49 1 11 45
M  V30 50 1 12 46
M  V30 51 1 13 47
M  V30 52 1 18 48
M  V30 53 1 19 49
M  V30 54 1 21 50
M  V30 55 1 24 51
M  V30 56 1 24 52
M  V30 57 1 25 53
M  V30 58 1 25 54
M  V30 59 1 27 55
M  V30 60 1 27 56
M  V30 61 1 27 57
M  V30 62 1 28 58
M  V30 63 1 28 59
M  V30 64 1 28 60
M  V30 65 1 29 61
M  V30 66 1 30 62
M  V30 67 1 34 63
M  V30 END BOND
M  V30 END CTAB
M  END
>  <Dataset>  (779) 
ChEMBL_Kinases

>  <Ligand_Instance>  (779) 
nan

>  <PDB_ID>  (779) 
nan

>  <Standardized_SMILES>  (779) 
CCOC(=O)c1c2[nH]c3ccccc3c2c(-c2ccc(NC(=O)CCN(C)C)cc2)c2c(=O)[nH][s+]([O-])c12

>  <Name>  (779) 
nan

>  <Pocket>  (779) 
nan

>  <ATP_Site>  (779) 
nan

>  <Peripheral>  (779) 
nan

>  <Num_H_Atoms_ProtBoundConf>  (779) 
nan

>  <Num_Resolved_Atoms>  (779) 
nan

>  <Num_Not_Resolved_Atoms>  (779) 
nan

$$$$
CHEMBL4165913
     RDKit          3D

  0  0  0  0  0  0  0  0  0  0999 V3000
M  V30 BEGIN CTAB
M  V30 COUNTS 63 68 0 0 0
M  V30 BEGIN ATOM
M  V30 1 C 2.063859 2.784938 0.080849 0
M  V30 2 C 1.326945 2.169876 1.226932 0 CFG=2
M  V30 3 C 0.337826 3.184424 1.722122 0
M  V30 4 C 1.140420 4.346305 2.272066 0
M  V30 5 C 1.737375 3.903450 3.582449 0 CFG=2
M  V30 6 O 2.413509 4.976953 4.198178 0
M  V30 7 C 2.632224 2.717934 3.478589 0
M  V30 8 C 2.330995 1.858095 2.298040 0
M  V30 9 C 3.002969 0.718798 2.176182 0
M  V30 10 C 2.824293 -0.230977 1.079586 0
M  V30 11 C 1.523619 -0.176629 0.363474 0 CFG=2
M  V30 12 C 0.610223 0.917374 0.940326 0 CFG=2
M  V30 13 C -0.552543 1.016283 0.024887 0
M  V30 14 C -1.313083 -0.308532 -0.008806 0
M  V30 15 C -0.435773 -1.362717 -0.556090 0 CFG=2
M  V30 16 C 0.105538 -1.074806 -1.934863 0
M  V30 17 C -0.895944 -2.739069 -0.559080 0
M  V30 18 C -2.120971 -3.446838 -0.914080 0
M  V30 19 C -3.201206 -2.808373 -1.459098 0
M  V30 20 C -4.384999 -3.426047 -1.796561 0
M  V30 21 C -4.544269 -4.779824 -1.591937 0
M  V30 22 C -5.691871 -5.469161 -1.901251 0
M  V30 23 N -5.815890 -6.791701 -1.689089 0
M  V30 24 C -4.777239 -7.466134 -1.153654 0
M  V30 25 C -3.596472 -6.825255 -0.821963 0
M  V30 26 C -3.484893 -5.470153 -1.045348 0
M  V30 27 C -2.327547 -4.795419 -0.729104 0
M  V30 28 C 0.121346 -3.505212 -0.108303 0
M  V30 29 C 1.309175 -2.691009 0.215999 0
M  V30 30 C 0.694180 -1.397887 0.479070 0 CFG=1
M  V30 31 H 2.368355 2.118560 -0.720691 0
M  V30 32 H 1.477421 3.628715 -0.372313 0
M  V30 33 H 3.007120 3.280797 0.456102 0
M  V30 34 H -0.235350 3.565974 0.837564 0
M  V30 35 H -0.331778 2.782060 2.509651 0
M  V30 36 H 0.458796 5.203742 2.517678 0
M  V30 37 H 1.909213 4.648223 1.537633 0
M  V30 38 H 0.887323 3.674703 4.270293 0
M  V30 39 H 3.386015 4.806770 4.085371 0
M  V30 40 H 2.645217 2.120457 4.419090 0
M  V30 41 H 3.685151 3.076123 3.332552 0
M  V30 42 H 3.748762 0.452492 2.940622 0
M  V30 43 H 2.961413 -1.276446 1.464927 0
M  V30 44 H 3.707817 -0.095163 0.391047 0
M  V30 45 H 1.733350 0.181158 -0.661033 0
M  V30 46 H 0.245202 0.505568 1.904533 0
M  V30 47 H -0.245699 1.374053 -0.955716 0
M  V30 48 H -1.265057 1.763565 0.485596 0
M  V30 49 H -1.472180 -0.553063 1.084508 0
M  V30 50 H -2.287329 -0.131175 -0.414786 0
M  V30 51 H 1.209205 -1.238311 -2.022259 0
M  V30 52 H -0.214236 -0.100591 -2.350357 0
M  V30 53 H -0.282343 -1.824903 -2.689188 0
M  V30 54 H -3.226132 -1.780425 -1.684133 0
M  V30 55 H -5.232834 -2.935253 -2.221853 0
M  V30 56 H -6.487493 -4.872819 -2.327072 0
M  V30 57 H -4.842478 -8.545815 -0.966470 0
M  V30 58 H -2.767205 -7.380136 -0.391200 0
M  V30 59 H -1.547305 -5.408126 -0.305194 0
M  V30 60 H 0.235685 -4.588781 0.057437 0
M  V30 61 H 1.865292 -3.094079 1.107151 0
M  V30 62 H 2.006091 -2.713677 -0.645589 0
M  V30 63 H 0.212735 -1.405451 1.476870 0
M  V30 END ATOM
M  V30 BEGIN BOND
M  V30 1 1 2 1 CFG=3
M  V30 2 1 2 3
M  V30 3 1 3 4
M  V30 4 1 4 5
M  V30 5 1 5 6
M  V30 6 1 5 7
M  V30 7 1 7 8
M  V30 8 2 8 9
M  V30 9 1 9 10
M  V30 10 1 10 11
M  V30 11 1 11 12
M  V30 12 1 12 13
M  V30 13 1 13 14
M  V30 14 1 14 15
M  V30 15 1 15 16 CFG=3
M  V30 16 1 15 17
M  V30 17 1 17 18
M  V30 18 2 18 19
M  V30 19 1 19 20
M  V30 20 2 20 21
M  V30 21 1 21 22
M  V30 22 2 22 23
M  V30 23 1 23 24
M  V30 24 2 24 25
M  V30 25 1 25 26
M  V30 26 2 26 27
M  V30 27 2 17 28
M  V30 28 1 28 29
M  V30 29 1 29 30
M  V30 30 1 8 2
M  V30 31 1 30 11
M  V30 32 1 12 2
M  V30 33 1 30 15
M  V30 34 1 27 18
M  V30 35 1 26 21
M  V30 36 1 1 31
M  V30 37 1 1 32
M  V30 38 1 1 33
M  V30 39 1 3 34
M  V30 40 1 3 35
M  V30 41 1 4 36
M  V30 42 1 4 37
M  V30 43 1 5 38 CFG=1
M  V30 44 1 6 39
M  V30 45 1 7 40
M  V30 46 1 7 41
M  V30 47 1 9 42
M  V30 48 1 10 43
M  V30 49 1 10 44
M  V30 50 1 11 45 CFG=3
M  V30 51 1 12 46 CFG=1
M  V30 52 1 13 47
M  V30 53 1 13 48
M  V30 54 1 14 49
M  V30 55 1 14 50
M  V30 56 1 16 51
M  V30 57 1 16 52
M  V30 58 1 16 53
M  V30 59 1 19 54
M  V30 60 1 20 55
M  V30 61 1 22 56
M  V30 62 1 24 57
M  V30 63 1 25 58
M  V30 64 1 27 59
M  V30 65 1 28 60
M  V30 66 1 29 61
M  V30 67 1 29 62
M  V30 68 1 30 63 CFG=1
M  V30 END BOND
M  V30 END CTAB
M  END
>  <Dataset>  (780) 
ChEMBL_Kinases

>  <Ligand_Instance>  (780) 
nan

>  <PDB_ID>  (780) 
nan

>  <Standardized_SMILES>  (780) 
C[C@]12CC[C@H](O)CC1=CC[C@@H]1[C@@H]2CC[C@]2(C)C(c3ccc4cnccc4c3)=CC[C@@H]12

>  <Name>  (780) 
nan

>  <Pocket>  (780) 
nan

>  <ATP_Site>  (780) 
nan

>  <Peripheral>  (780) 
nan

>  <Num_H_Atoms_ProtBoundConf>  (780) 
nan

>  <Num_Resolved_Atoms>  (780) 
nan

>  <Num_Not_Resolved_Atoms>  (780) 
nan

$$$$
CHEMBL4787169
     RDKit          3D

  0  0  0  0  0  0  0  0  0  0999 V3000
M  V30 BEGIN CTAB
M  V30 COUNTS 76 80 0 0 0
M  V30 BEGIN ATOM
M  V30 1 C 7.300865 2.500051 7.272808 0
M  V30 2 N 6.844957 2.131969 5.938603 0
M  V30 3 C 5.466906 1.935499 5.680305 0
M  V30 4 O 4.531167 2.031596 6.478317 0
M  V30 5 C 5.211397 1.587412 4.298685 0
M  V30 6 S 6.193863 1.325647 2.785370 0
M  V30 7 C 4.827549 0.962031 1.753982 0
M  V30 8 C 4.976329 0.671300 0.319601 0
M  V30 9 C 6.207417 0.621614 -0.281226 0
M  V30 10 C 6.169901 0.391488 -1.640424 0
M  V30 11 N 5.050046 0.223152 -2.366357 0
M  V30 12 C 3.841669 0.275156 -1.762173 0
M  V30 13 N 2.689287 0.128619 -2.579964 0
M  V30 14 C 1.324208 0.015679 -2.247200 0
M  V30 15 O 1.043694 0.030176 -1.025540 0
M  V30 16 C 0.191537 -0.115272 -3.182607 0
M  V30 17 N -1.029699 -0.250103 -2.422240 0
M  V30 18 C -1.180956 -1.494308 -1.735884 0
M  V30 19 C -1.419683 -2.607244 -2.698924 0
M  V30 20 N -2.661409 -2.485917 -3.465026 0
M  V30 21 C -3.888170 -2.697313 -2.826923 0
M  V30 22 C -4.798989 -1.918126 -2.192866 0
M  V30 23 C -5.947131 -2.303956 -1.580238 0
M  V30 24 N -6.254884 -3.629244 -1.587301 0
M  V30 25 C -5.419032 -4.509274 -2.197086 0
M  V30 26 C -5.823088 -5.821060 -2.155978 0
M  V30 27 C -5.020829 -6.767500 -2.763718 0
M  V30 28 C -3.842658 -6.385342 -3.392007 0
M  V30 29 C -3.521086 -5.044897 -3.380246 0
M  V30 30 C -4.273400 -4.040783 -2.794099 0
M  V30 31 C -6.834813 -1.332416 -0.906450 0
M  V30 32 C -6.110276 -0.240603 -0.173290 0
M  V30 33 C -4.733618 0.068392 -0.737627 0
M  V30 34 C -4.627069 -0.451414 -2.160950 0
M  V30 35 C 3.797812 0.498000 -0.416976 0
M  V30 36 N 3.768312 1.030473 2.475817 0
M  V30 37 C 3.892802 1.338059 3.753349 0
M  V30 38 O 2.734666 1.414245 4.556883 0
M  V30 39 C 1.453441 1.111315 4.039587 0
M  V30 40 C 0.584132 2.366042 3.927601 0
M  V30 41 C 0.779029 0.178837 5.024378 0
M  V30 42 H 8.375979 2.378588 7.387434 0
M  V30 43 H 7.009269 3.586212 7.388770 0
M  V30 44 H 6.675403 1.981542 8.030824 0
M  V30 45 H 7.613245 2.029797 5.213347 0
M  V30 46 H 7.126119 0.760585 0.270873 0
M  V30 47 H 7.122599 0.339583 -2.184096 0
M  V30 48 H 2.791025 0.094087 -3.637332 0
M  V30 49 H 0.296156 -0.966489 -3.872916 0
M  V30 50 H 0.114519 0.801118 -3.851947 0
M  V30 51 H -1.105706 0.511240 -1.697848 0
M  V30 52 H -0.315763 -1.770430 -1.122192 0
M  V30 53 H -2.040433 -1.401928 -0.998070 0
M  V30 54 H -1.542163 -3.594944 -2.141924 0
M  V30 55 H -0.560047 -2.696059 -3.384995 0
M  V30 56 H -2.585386 -2.237438 -4.491490 0
M  V30 57 H -6.751457 -6.122039 -1.662075 0
M  V30 58 H -5.298971 -7.802771 -2.757564 0
M  V30 59 H -3.236099 -7.144644 -3.855445 0
M  V30 60 H -2.595730 -4.817730 -3.882855 0
M  V30 61 H -7.514742 -1.853644 -0.181884 0
M  V30 62 H -7.525166 -0.848310 -1.637094 0
M  V30 63 H -5.954305 -0.583790 0.885724 0
M  V30 64 H -6.718020 0.688223 -0.121170 0
M  V30 65 H -3.948031 -0.324240 -0.089208 0
M  V30 66 H -4.661129 1.178163 -0.833441 0
M  V30 67 H -5.513348 0.046323 -2.681590 0
M  V30 68 H -3.703347 -0.108015 -2.606959 0
M  V30 69 H 2.889840 0.548309 0.112936 0
M  V30 70 H 1.543278 0.628926 3.021746 0
M  V30 71 H 0.751173 3.094476 4.729881 0
M  V30 72 H -0.500269 2.073117 3.949003 0
M  V30 73 H 0.777265 2.887187 2.961213 0
M  V30 74 H 0.525968 0.732634 5.949313 0
M  V30 75 H -0.200340 -0.102345 4.580534 0
M  V30 76 H 1.397019 -0.707103 5.265986 0
M  V30 END ATOM
M  V30 BEGIN BOND
M  V30 1 1 1 2
M  V30 2 1 2 3
M  V30 3 2 3 4
M  V30 4 1 3 5
M  V30 5 1 5 6
M  V30 6 1 6 7
M  V30 7 1 7 8
M  V30 8 2 8 9
M  V30 9 1 9 10
M  V30 10 2 10 11
M  V30 11 1 11 12
M  V30 12 1 12 13
M  V30 13 1 13 14
M  V30 14 2 14 15
M  V30 15 1 14 16
M  V30 16 1 16 17
M  V30 17 1 17 18
M  V30 18 1 18 19
M  V30 19 1 19 20
M  V30 20 1 20 21
M  V30 21 2 21 22
M  V30 22 1 22 23
M  V30 23 2 23 24
M  V30 24 1 24 25
M  V30 25 2 25 26
M  V30 26 1 26 27
M  V30 27 2 27 28
M  V30 28 1 28 29
M  V30 29 2 29 30
M  V30 30 1 23 31
M  V30 31 1 31 32
M  V30 32 1 32 33
M  V30 33 1 33 34
M  V30 34 2 12 35
M  V30 35 2 7 36
M  V30 36 1 36 37
M  V30 37 1 37 38
M  V30 38 1 38 39
M  V30 39 1 39 40
M  V30 40 1 39 41
M  V30 41 2 37 5
M  V30 42 1 35 8
M  V30 43 1 30 21
M  V30 44 1 34 22
M  V30 45 1 30 25
M  V30 46 1 1 42
M  V30 47 1 1 43
M  V30 48 1 1 44
M  V30 49 1 2 45
M  V30 50 1 9 46
M  V30 51 1 10 47
M  V30 52 1 13 48
M  V30 53 1 16 49
M  V30 54 1 16 50
M  V30 55 1 17 51
M  V30 56 1 18 52
M  V30 57 1 18 53
M  V30 58 1 19 54
M  V30 59 1 19 55
M  V30 60 1 20 56
M  V30 61 1 26 57
M  V30 62 1 27 58
M  V30 63 1 28 59
M  V30 64 1 29 60
M  V30 65 1 31 61
M  V30 66 1 31 62
M  V30 67 1 32 63
M  V30 68 1 32 64
M  V30 69 1 33 65
M  V30 70 1 33 66
M  V30 71 1 34 67
M  V30 72 1 34 68
M  V30 73 1 35 69
M  V30 74 1 39 70
M  V30 75 1 40 71
M  V30 76 1 40 72
M  V30 77 1 40 73
M  V30 78 1 41 74
M  V30 79 1 41 75
M  V30 80 1 41 76
M  V30 END BOND
M  V30 END CTAB
M  END
>  <Dataset>  (781) 
ChEMBL_Kinases

>  <Ligand_Instance>  (781) 
nan

>  <PDB_ID>  (781) 
nan

>  <Standardized_SMILES>  (781) 
CNC(=O)c1sc(-c2ccnc(NC(=O)CNCCNc3c4c(nc5ccccc35)CCCC4)c2)nc1OC(C)C

>  <Name>  (781) 
nan

>  <Pocket>  (781) 
nan

>  <ATP_Site>  (781) 
nan

>  <Peripheral>  (781) 
nan

>  <Num_H_Atoms_ProtBoundConf>  (781) 
nan

>  <Num_Resolved_Atoms>  (781) 
nan

>  <Num_Not_Resolved_Atoms>  (781) 
nan

$$$$
CHEMBL4165737
     RDKit          3D

  0  0  0  0  0  0  0  0  0  0999 V3000
M  V30 BEGIN CTAB
M  V30 COUNTS 58 62 0 0 0
M  V30 BEGIN ATOM
M  V30 1 C 5.116275 -2.020696 1.735472 0
M  V30 2 C 4.389867 -0.706302 1.811802 0
M  V30 3 N 4.809609 0.494885 2.225022 0
M  V30 4 N 3.826326 1.395835 2.119474 0
M  V30 5 C 4.096984 2.731815 2.521693 0
M  V30 6 C 3.675565 3.154712 3.787219 0
M  V30 7 C 3.914328 4.436676 4.239169 0
M  V30 8 C 4.580503 5.278970 3.398220 0
M  V30 9 C 5.031118 4.953136 2.140889 0
M  V30 10 C 4.770267 3.654552 1.726549 0
M  V30 11 C 2.724144 0.808369 1.630341 0
M  V30 12 O 1.518400 1.465516 1.396702 0
M  V30 13 C 0.394769 0.797189 0.916975 0
M  V30 14 C -0.471206 0.370077 1.934228 0
M  V30 15 C -1.668852 -0.324979 1.705657 0
M  V30 16 C -2.011667 -0.603211 0.403360 0
M  V30 17 C -3.229690 -1.317695 0.039181 0
M  V30 18 N -3.597812 -1.633704 -1.213317 0
M  V30 19 C -4.765472 -2.297236 -1.228451 0
M  V30 20 C -5.554617 -2.832224 -2.248016 0
M  V30 21 C -6.714387 -3.456904 -1.860521 0
M  V30 22 C -7.487059 -3.990815 -2.945540 0
M  V30 23 O -7.146834 -3.897180 -4.152245 0
M  V30 24 O -8.681287 -4.684710 -3.063561 0
M  V30 25 C -7.115237 -3.572212 -0.554101 0
M  V30 26 C -6.317715 -3.033016 0.461137 0
M  V30 27 C -5.151957 -2.404524 0.081401 0
M  V30 28 N -4.201752 -1.800760 0.837588 0
M  V30 29 C -1.155984 -0.180648 -0.588272 0
M  V30 30 C 0.020360 0.501038 -0.378660 0
M  V30 31 C 3.057180 -0.509785 1.431066 0
M  V30 32 C 2.219109 -1.579454 0.910752 0
M  V30 33 N 2.432807 -1.722273 -0.374759 0
M  V30 34 N 1.724444 -2.711886 -1.104688 0
M  V30 35 C 2.324023 -2.976890 -2.378813 0
M  V30 36 N 1.725673 -3.960951 -3.246103 0
M  V30 37 O 3.361909 -2.334180 -2.697932 0
M  V30 38 H 4.375271 -2.864519 1.800386 0
M  V30 39 H 5.906520 -2.104269 2.491409 0
M  V30 40 H 5.550755 -2.086748 0.715718 0
M  V30 41 H 3.139003 2.458626 4.451919 0
M  V30 42 H 3.572585 4.736656 5.238560 0
M  V30 43 H 4.749127 6.284054 3.796254 0
M  V30 44 H 5.555496 5.656597 1.510485 0
M  V30 45 H 5.105503 3.351725 0.744440 0
M  V30 46 H -0.291271 0.542463 3.001771 0
M  V30 47 H -2.311369 -0.637334 2.511388 0
M  V30 48 H -5.154581 -2.690563 -3.235295 0
M  V30 49 H -8.702167 -5.689895 -3.310048 0
M  V30 50 H -8.061558 -4.092606 -0.377258 0
M  V30 51 H -6.663189 -3.139050 1.490825 0
M  V30 52 H -4.176278 -1.696478 1.884320 0
M  V30 53 H -1.421877 -0.400556 -1.619057 0
M  V30 54 H 0.716366 0.850415 -1.113337 0
M  V30 55 H 1.493281 -2.227105 1.401418 0
M  V30 56 H 0.854639 -3.267113 -0.868859 0
M  V30 57 H 1.141009 -3.533163 -4.026914 0
M  V30 58 H 1.925210 -4.979524 -3.019778 0
M  V30 END ATOM
M  V30 BEGIN BOND
M  V30 1 1 1 2
M  V30 2 2 2 3
M  V30 3 1 3 4
M  V30 4 1 4 5
M  V30 5 2 5 6
M  V30 6 1 6 7
M  V30 7 2 7 8
M  V30 8 1 8 9
M  V30 9 2 9 10
M  V30 10 1 4 11
M  V30 11 1 11 12
M  V30 12 1 12 13
M  V30 13 2 13 14
M  V30 14 1 14 15
M  V30 15 2 15 16
M  V30 16 1 16 17
M  V30 17 2 17 18
M  V30 18 1 18 19
M  V30 19 2 19 20
M  V30 20 1 20 21
M  V30 21 1 21 22
M  V30 22 2 22 23
M  V30 23 1 22 24
M  V30 24 2 21 25
M  V30 25 1 25 26
M  V30 26 2 26 27
M  V30 27 1 27 28
M  V30 28 1 16 29
M  V30 29 2 29 30
M  V30 30 2 11 31
M  V30 31 1 31 32
M  V30 32 2 32 33
M  V30 33 1 33 34
M  V30 34 1 34 35
M  V30 35 1 35 36
M  V30 36 2 35 37
M  V30 37 1 31 2
M  V30 38 1 10 5
M  V30 39 1 30 13
M  V30 40 1 28 17
M  V30 41 1 27 19
M  V30 42 1 1 38
M  V30 43 1 1 39
M  V30 44 1 1 40
M  V30 45 1 6 41
M  V30 46 1 7 42
M  V30 47 1 8 43
M  V30 48 1 9 44
M  V30 49 1 10 45
M  V30 50 1 14 46
M  V30 51 1 15 47
M  V30 52 1 20 48
M  V30 53 1 24 49
M  V30 54 1 25 50
M  V30 55 1 26 51
M  V30 56 1 28 52
M  V30 57 1 29 53
M  V30 58 1 30 54
M  V30 59 1 32 55
M  V30 60 1 34 56
M  V30 61 1 36 57
M  V30 62 1 36 58
M  V30 END BOND
M  V30 END CTAB
M  END
>  <Dataset>  (782) 
ChEMBL_Kinases

>  <Ligand_Instance>  (782) 
nan

>  <PDB_ID>  (782) 
nan

>  <Standardized_SMILES>  (782) 
Cc1nn(-c2ccccc2)c(Oc2ccc(-c3nc4cc(C(=O)O)ccc4[nH]3)cc2)c1/C=N/NC(N)=O

>  <Name>  (782) 
nan

>  <Pocket>  (782) 
nan

>  <ATP_Site>  (782) 
nan

>  <Peripheral>  (782) 
nan

>  <Num_H_Atoms_ProtBoundConf>  (782) 
nan

>  <Num_Resolved_Atoms>  (782) 
nan

>  <Num_Not_Resolved_Atoms>  (782) 
nan

$$$$
CHEMBL4787190
     RDKit          3D

  0  0  0  0  0  0  0  0  0  0999 V3000
M  V30 BEGIN CTAB
M  V30 COUNTS 47 50 0 0 0
M  V30 BEGIN ATOM
M  V30 1 C 2.120849 1.228058 -1.568408 0
M  V30 2 C 2.857482 0.376417 -0.553384 0
M  V30 3 C 4.237482 0.119697 -1.178877 0
M  V30 4 C 5.092722 -0.709650 -0.295414 0
M  V30 5 C 5.216316 -2.077342 -0.244768 0
M  V30 6 C 6.059975 -2.704905 0.628715 0
M  V30 7 N 6.807230 -1.964019 1.480842 0
M  V30 8 C 6.729022 -0.606930 1.478898 0
M  V30 9 C 5.875720 0.015595 0.594625 0
M  V30 10 N 2.962019 0.991835 0.750898 0
M  V30 11 C 1.585651 1.243800 0.986971 0
M  V30 12 N 1.292628 2.563171 1.007328 0
M  V30 13 C 0.043149 2.994906 1.195918 0
M  V30 14 C -1.029792 2.151435 1.380712 0
M  V30 15 C -0.704039 0.809817 1.354830 0
M  V30 16 C -1.702731 -0.259633 1.512998 0
M  V30 17 C -1.427998 -1.608028 1.482450 0
M  V30 18 N -2.592192 -2.275694 1.652346 0
M  V30 19 N -3.589090 -1.409640 1.788909 0
M  V30 20 C -4.949402 -1.790216 1.976432 0
M  V30 21 C -5.846969 -1.327083 2.912423 0
M  V30 22 C -7.134760 -1.840552 2.904964 0
M  V30 23 C -7.591937 -2.790705 2.021365 0
M  V30 24 C -6.668417 -3.248158 1.080130 0
M  V30 25 C -5.382034 -2.758176 1.061875 0
M  V30 26 F -4.561266 -3.280413 0.092247 0
M  V30 27 C -3.060440 -0.151611 1.706243 0
M  V30 28 N 0.578760 0.370524 1.162489 0
M  V30 29 H 1.227981 1.720142 -1.196796 0
M  V30 30 H 1.787702 0.509437 -2.372969 0
M  V30 31 H 2.843282 1.924622 -2.082877 0
M  V30 32 H 2.379708 -0.640771 -0.499231 0
M  V30 33 H 4.122643 -0.401437 -2.153510 0
M  V30 34 H 4.737474 1.079395 -1.428530 0
M  V30 35 H 4.582429 -2.600566 -0.960700 0
M  V30 36 H 6.077883 -3.793351 0.580762 0
M  V30 37 H 7.347391 -0.068828 2.178515 0
M  V30 38 H 5.879686 1.089791 0.657821 0
M  V30 39 H 3.652088 1.274230 1.479420 0
M  V30 40 H -0.204254 4.069137 1.213849 0
M  V30 41 H -2.052581 2.419276 1.536134 0
M  V30 42 H -0.491942 -2.134087 1.351881 0
M  V30 43 H -5.462268 -0.585805 3.591472 0
M  V30 44 H -7.831586 -1.455420 3.658470 0
M  V30 45 H -8.601511 -3.176948 2.031377 0
M  V30 46 H -7.024598 -3.994008 0.385714 0
M  V30 47 H -3.597381 0.758424 1.777040 0
M  V30 END ATOM
M  V30 BEGIN BOND
M  V30 1 1 1 2
M  V30 2 1 2 3
M  V30 3 1 3 4
M  V30 4 2 4 5
M  V30 5 1 5 6
M  V30 6 2 6 7
M  V30 7 1 7 8
M  V30 8 2 8 9
M  V30 9 1 2 10
M  V30 10 1 10 11
M  V30 11 2 11 12
M  V30 12 1 12 13
M  V30 13 2 13 14
M  V30 14 1 14 15
M  V30 15 1 15 16
M  V30 16 1 16 17
M  V30 17 2 17 18
M  V30 18 1 18 19
M  V30 19 1 19 20
M  V30 20 2 20 21
M  V30 21 1 21 22
M  V30 22 2 22 23
M  V30 23 1 23 24
M  V30 24 2 24 25
M  V30 25 1 25 26
M  V30 26 1 19 27
M  V30 27 2 15 28
M  V30 28 1 9 4
M  V30 29 1 28 11
M  V30 30 2 27 16
M  V30 31 1 25 20
M  V30 32 1 1 29
M  V30 33 1 1 30
M  V30 34 1 1 31
M  V30 35 1 2 32
M  V30 36 1 3 33
M  V30 37 1 3 34
M  V30 38 1 5 35
M  V30 39 1 6 36
M  V30 40 1 8 37
M  V30 41 1 9 38
M  V30 42 1 10 39
M  V30 43 1 13 40
M  V30 44 1 14 41
M  V30 45 1 17 42
M  V30 46 1 21 43
M  V30 47 1 22 44
M  V30 48 1 23 45
M  V30 49 1 24 46
M  V30 50 1 27 47
M  V30 END BOND
M  V30 END CTAB
M  END
>  <Dataset>  (783) 
ChEMBL_Kinases

>  <Ligand_Instance>  (783) 
nan

>  <PDB_ID>  (783) 
nan

>  <Standardized_SMILES>  (783) 
CC(Cc1ccncc1)Nc1nccc(-c2cnn(-c3ccccc3F)c2)n1

>  <Name>  (783) 
nan

>  <Pocket>  (783) 
nan

>  <ATP_Site>  (783) 
nan

>  <Peripheral>  (783) 
nan

>  <Num_H_Atoms_ProtBoundConf>  (783) 
nan

>  <Num_Resolved_Atoms>  (783) 
nan

>  <Num_Not_Resolved_Atoms>  (783) 
nan

$$$$
CHEMBL4165600
     RDKit          3D

  0  0  0  0  0  0  0  0  0  0999 V3000
M  V30 BEGIN CTAB
M  V30 COUNTS 68 73 0 0 0
M  V30 BEGIN ATOM
M  V30 1 C 0.407168 -6.850806 3.327573 0
M  V30 2 O 0.899527 -7.161854 2.038513 0
M  V30 3 C 1.910362 -6.439148 1.444808 0
M  V30 4 C 2.531303 -5.359878 2.038729 0
M  V30 5 C 3.537650 -4.693096 1.367451 0
M  V30 6 C 3.970599 -5.055609 0.098776 0
M  V30 7 N 5.008847 -4.370852 -0.598020 0
M  V30 8 N 4.130021 -3.451861 -1.230085 0
M  V30 9 C 4.446959 -2.219522 -1.427373 0
M  V30 10 C 3.360974 -1.475799 -2.102038 0
M  V30 11 C 3.456130 -1.491409 -3.499299 0
M  V30 12 C 4.401446 -2.083767 -4.471185 0
M  V30 13 N 2.382826 -0.766866 -3.932003 0
M  V30 14 N 1.688390 -0.342608 -2.893620 0
M  V30 15 C 0.504410 0.439164 -2.795993 0
M  V30 16 C -0.757241 -0.118439 -2.781655 0
M  V30 17 C -1.939720 0.594261 -2.692834 0
M  V30 18 C -1.846512 1.962026 -2.613020 0
M  V30 19 C -0.633272 2.570226 -2.622446 0
M  V30 20 C 0.534799 1.829643 -2.712305 0
M  V30 21 C 2.227469 -0.738686 -1.730714 0
M  V30 22 O 2.093476 -0.695593 -0.377429 0
M  V30 23 C 1.043822 -0.027923 0.225038 0
M  V30 24 C -0.149405 -0.707169 0.499327 0
M  V30 25 C -1.203911 -0.050206 1.100858 0
M  V30 26 C -1.099274 1.299604 1.445471 0
M  V30 27 C -2.226978 1.999967 2.087532 0
M  V30 28 N -3.404714 1.417882 2.379159 0
M  V30 29 C -4.233608 2.302903 2.955992 0
M  V30 30 C -5.535095 2.229347 3.441057 0
M  V30 31 C -6.044513 3.394528 3.973721 0
M  V30 32 C -7.399994 3.277372 4.466108 0
M  V30 33 O -8.043653 2.200394 4.404302 0
M  V30 34 O -8.312822 4.128427 5.066115 0
M  V30 35 C -5.367046 4.584069 4.051435 0
M  V30 36 C -4.059267 4.616791 3.551797 0
M  V30 37 C -3.491988 3.467902 3.001464 0
M  V30 38 N -2.266016 3.288106 2.472388 0
M  V30 39 C 0.073546 2.025233 1.192649 0
M  V30 40 C 1.081379 1.301442 0.590357 0
M  V30 41 C 3.314244 -6.143593 -0.449013 0
M  V30 42 C 2.298303 -6.844365 0.187129 0
M  V30 43 H 1.123256 -7.091341 4.132563 0
M  V30 44 H 0.093862 -5.776153 3.385948 0
M  V30 45 H -0.502934 -7.464515 3.529112 0
M  V30 46 H 2.214025 -5.043850 3.044342 0
M  V30 47 H 4.000793 -3.850630 1.866244 0
M  V30 48 H 5.946455 -4.811815 -0.363710 0
M  V30 49 H 5.431020 -1.934645 -1.076822 0
M  V30 50 H 4.827085 -1.301066 -5.158565 0
M  V30 51 H 3.821312 -2.829275 -5.063107 0
M  V30 52 H 5.227932 -2.602194 -3.953266 0
M  V30 53 H -0.792986 -1.198147 -2.846280 0
M  V30 54 H -2.909821 0.106309 -2.685877 0
M  V30 55 H -2.737038 2.570334 -2.541310 0
M  V30 56 H -0.540122 3.653396 -2.559851 0
M  V30 57 H 1.509885 2.319627 -2.719546 0
M  V30 58 H -0.216158 -1.745530 0.228995 0
M  V30 59 H -2.116266 -0.587247 1.305856 0
M  V30 60 H -6.085280 1.296618 3.387633 0
M  V30 61 H -9.174833 4.417275 4.581927 0
M  V30 62 H -5.838810 5.464182 4.487454 0
M  V30 63 H -3.560141 5.568991 3.631654 0
M  V30 64 H -1.506248 4.005159 2.382181 0
M  V30 65 H 0.175256 3.060723 1.448768 0
M  V30 66 H 1.993875 1.860055 0.392214 0
M  V30 67 H 3.656528 -6.429291 -1.449692 0
M  V30 68 H 1.853507 -7.678069 -0.330815 0
M  V30 END ATOM
M  V30 BEGIN BOND
M  V30 1 1 1 2
M  V30 2 1 2 3
M  V30 3 2 3 4
M  V30 4 1 4 5
M  V30 5 2 5 6
M  V30 6 1 6 7
M  V30 7 1 7 8
M  V30 8 2 8 9
M  V30 9 1 9 10
M  V30 10 1 10 11
M  V30 11 1 11 12
M  V30 12 2 11 13
M  V30 13 1 13 14
M  V30 14 1 14 15
M  V30 15 2 15 16
M  V30 16 1 16 17
M  V30 17 2 17 18
M  V30 18 1 18 19
M  V30 19 2 19 20
M  V30 20 1 14 21
M  V30 21 1 21 22
M  V30 22 1 22 23
M  V30 23 2 23 24
M  V30 24 1 24 25
M  V30 25 2 25 26
M  V30 26 1 26 27
M  V30 27 2 27 28
M  V30 28 1 28 29
M  V30 29 2 29 30
M  V30 30 1 30 31
M  V30 31 1 31 32
M  V30 32 2 32 33
M  V30 33 1 32 34
M  V30 34 2 31 35
M  V30 35 1 35 36
M  V30 36 2 36 37
M  V30 37 1 37 38
M  V30 38 1 26 39
M  V30 39 2 39 40
M  V30 40 1 6 41
M  V30 41 2 41 42
M  V30 42 1 42 3
M  V30 43 2 21 10
M  V30 44 1 40 23
M  V30 45 1 20 15
M  V30 46 1 38 27
M  V30 47 1 37 29
M  V30 48 1 1 43
M  V30 49 1 1 44
M  V30 50 1 1 45
M  V30 51 1 4 46
M  V30 52 1 5 47
M  V30 53 1 7 48
M  V30 54 1 9 49
M  V30 55 1 12 50
M  V30 56 1 12 51
M  V30 57 1 12 52
M  V30 58 1 16 53
M  V30 59 1 17 54
M  V30 60 1 18 55
M  V30 61 1 19 56
M  V30 62 1 20 57
M  V30 63 1 24 58
M  V30 64 1 25 59
M  V30 65 1 30 60
M  V30 66 1 34 61
M  V30 67 1 35 62
M  V30 68 1 36 63
M  V30 69 1 38 64
M  V30 70 1 39 65
M  V30 71 1 40 66
M  V30 72 1 41 67
M  V30 73 1 42 68
M  V30 END BOND
M  V30 END CTAB
M  END
>  <Dataset>  (784) 
ChEMBL_Kinases

>  <Ligand_Instance>  (784) 
nan

>  <PDB_ID>  (784) 
nan

>  <Standardized_SMILES>  (784) 
COc1ccc(N/N=C/c2c(C)nn(-c3ccccc3)c2Oc2ccc(-c3nc4cc(C(=O)O)ccc4[nH]3)cc2)cc1

>  <Name>  (784) 
nan

>  <Pocket>  (784) 
nan

>  <ATP_Site>  (784) 
nan

>  <Peripheral>  (784) 
nan

>  <Num_H_Atoms_ProtBoundConf>  (784) 
nan

>  <Num_Resolved_Atoms>  (784) 
nan

>  <Num_Not_Resolved_Atoms>  (784) 
nan

$$$$
CHEMBL4787195
     RDKit          3D

  0  0  0  0  0  0  0  0  0  0999 V3000
M  V30 BEGIN CTAB
M  V30 COUNTS 63 67 0 0 0
M  V30 BEGIN ATOM
M  V30 1 C 3.452504 -0.005801 5.390905 0
M  V30 2 C 2.735972 -1.162220 4.772568 0
M  V30 3 C 1.627394 -1.627665 5.707767 0
M  V30 4 N 2.121141 -0.806339 3.503291 0
M  V30 5 C 3.070414 -0.354358 2.538569 0
M  V30 6 C 2.372289 0.012210 1.254839 0
M  V30 7 C 1.637490 -1.094777 0.634959 0
M  V30 8 O 2.093303 -1.585149 -0.429643 0
M  V30 9 N 0.632992 -2.074116 0.444937 0
M  V30 10 C 0.521460 -3.052001 -0.601235 0
M  V30 11 C -0.667641 -2.772321 -1.486507 0
M  V30 12 N -1.452298 -1.742067 -0.840729 0
M  V30 13 C -1.790438 -0.495055 -1.442556 0
M  V30 14 N -1.313951 0.572002 -0.790735 0
M  V30 15 C -1.491911 1.831113 -1.153489 0
M  V30 16 N -2.212676 2.024017 -2.269581 0
M  V30 17 C -2.695209 0.966537 -2.931249 0
M  V30 18 S -3.664650 0.921036 -4.405980 0
M  V30 19 C -3.808029 -0.852829 -4.495331 0
M  V30 20 C -3.115960 -1.290210 -3.408821 0
M  V30 21 C -2.537333 -0.349752 -2.595057 0
M  V30 22 C -3.220139 -2.796310 -3.459978 0
M  V30 23 C -4.387887 -3.077172 -4.379767 0
M  V30 24 C -4.415421 -1.905192 -5.338032 0
M  V30 25 C -1.817618 -2.224887 0.503029 0
M  V30 26 C -0.531023 -2.302237 1.291122 0
M  V30 27 C 1.562115 1.248880 1.455575 0
M  V30 28 C 0.518002 1.409883 2.339927 0
M  V30 29 C -0.175169 2.594428 2.460288 0
M  V30 30 C 0.142040 3.681657 1.699712 0
M  V30 31 Br -0.824688 5.308163 1.878881 0
M  V30 32 C 1.174435 3.597562 0.792748 0
M  V30 33 C 1.833174 2.401544 0.708684 0
M  V30 34 H 3.619801 -0.278937 6.470930 0
M  V30 35 H 2.890204 0.933324 5.388051 0
M  V30 36 H 4.472555 0.058843 4.956294 0
M  V30 37 H 3.446584 -2.003137 4.663136 0
M  V30 38 H 0.955145 -2.308530 5.181390 0
M  V30 39 H 2.061892 -2.167266 6.586247 0
M  V30 40 H 1.018090 -0.766827 6.077233 0
M  V30 41 H 1.531227 -1.603133 3.172117 0
M  V30 42 H 3.530505 0.577892 2.943366 0
M  V30 43 H 3.883779 -1.083552 2.340929 0
M  V30 44 H 3.205660 0.270391 0.519964 0
M  V30 45 H 1.450494 -3.050926 -1.237744 0
M  V30 46 H 0.454318 -4.089595 -0.176429 0
M  V30 47 H -0.366192 -2.486713 -2.515262 0
M  V30 48 H -1.241786 -3.727190 -1.575093 0
M  V30 49 H -1.158144 2.753838 -0.709608 0
M  V30 50 H -3.428453 -3.249632 -2.493961 0
M  V30 51 H -2.272891 -3.220397 -3.852091 0
M  V30 52 H -5.330335 -3.119185 -3.825472 0
M  V30 53 H -4.183881 -4.046483 -4.883212 0
M  V30 54 H -3.781014 -2.170153 -6.208743 0
M  V30 55 H -5.407002 -1.646369 -5.711153 0
M  V30 56 H -2.249114 -3.248430 0.464365 0
M  V30 57 H -2.543651 -1.523180 0.919863 0
M  V30 58 H -0.565152 -1.468884 2.018886 0
M  V30 59 H -0.424553 -3.232434 1.883619 0
M  V30 60 H 0.259696 0.559026 2.948713 0
M  V30 61 H -0.989285 2.655629 3.177480 0
M  V30 62 H 1.480143 4.418377 0.158212 0
M  V30 63 H 2.653212 2.332491 -0.010851 0
M  V30 END ATOM
M  V30 BEGIN BOND
M  V30 1 1 1 2
M  V30 2 1 2 3
M  V30 3 1 2 4
M  V30 4 1 4 5
M  V30 5 1 5 6
M  V30 6 1 6 7
M  V30 7 2 7 8
M  V30 8 1 7 9
M  V30 9 1 9 10
M  V30 10 1 10 11
M  V30 11 1 11 12
M  V30 12 1 12 13
M  V30 13 2 13 14
M  V30 14 1 14 15
M  V30 15 2 15 16
M  V30 16 1 16 17
M  V30 17 1 17 18
M  V30 18 1 18 19
M  V30 19 2 19 20
M  V30 20 1 20 21
M  V30 21 1 20 22
M  V30 22 1 22 23
M  V30 23 1 23 24
M  V30 24 1 12 25
M  V30 25 1 25 26
M  V30 26 1 6 27
M  V30 27 2 27 28
M  V30 28 1 28 29
M  V30 29 2 29 30
M  V30 30 1 30 31
M  V30 31 1 30 32
M  V30 32 2 32 33
M  V30 33 1 26 9
M  V30 34 1 33 27
M  V30 35 1 21 13
M  V30 36 2 21 17
M  V30 37 1 24 19
M  V30 38 1 1 34
M  V30 39 1 1 35
M  V30 40 1 1 36
M  V30 41 1 2 37
M  V30 42 1 3 38
M  V30 43 1 3 39
M  V30 44 1 3 40
M  V30 45 1 4 41
M  V30 46 1 5 42
M  V30 47 1 5 43
M  V30 48 1 6 44
M  V30 49 1 10 45
M  V30 50 1 10 46
M  V30 51 1 11 47
M  V30 52 1 11 48
M  V30 53 1 15 49
M  V30 54 1 22 50
M  V30 55 1 22 51
M  V30 56 1 23 52
M  V30 57 1 23 53
M  V30 58 1 24 54
M  V30 59 1 24 55
M  V30 60 1 25 56
M  V30 61 1 25 57
M  V30 62 1 26 58
M  V30 63 1 26 59
M  V30 64 1 28 60
M  V30 65 1 29 61
M  V30 66 1 32 62
M  V30 67 1 33 63
M  V30 END BOND
M  V30 END CTAB
M  END
>  <Dataset>  (785) 
ChEMBL_Kinases

>  <Ligand_Instance>  (785) 
nan

>  <PDB_ID>  (785) 
nan

>  <Standardized_SMILES>  (785) 
CC(C)NCC(C(=O)N1CCN(c2ncnc3sc4c(c23)CCC4)CC1)c1ccc(Br)cc1

>  <Name>  (785) 
nan

>  <Pocket>  (785) 
nan

>  <ATP_Site>  (785) 
nan

>  <Peripheral>  (785) 
nan

>  <Num_H_Atoms_ProtBoundConf>  (785) 
nan

>  <Num_Resolved_Atoms>  (785) 
nan

>  <Num_Not_Resolved_Atoms>  (785) 
nan

$$$$
CHEMBL4165510
     RDKit          3D

  0  0  0  0  0  0  0  0  0  0999 V3000
M  V30 BEGIN CTAB
M  V30 COUNTS 63 69 0 0 0
M  V30 BEGIN ATOM
M  V30 1 O 1.509816 -3.215847 3.748289 0
M  V30 2 C 0.842251 -2.172344 3.600228 0
M  V30 3 N 1.267317 -1.197771 2.618422 0
M  V30 4 C 2.471484 -1.685102 1.970311 0
M  V30 5 C 2.108943 -2.061720 0.569352 0
M  V30 6 C 2.867910 -3.100602 0.096441 0
M  V30 7 C 2.695205 -3.610786 -1.183108 0
M  V30 8 F 3.452526 -4.628575 -1.618794 0
M  V30 9 C 1.718528 -3.014478 -1.950443 0
M  V30 10 C 0.969316 -1.972226 -1.453331 0
M  V30 11 C -0.026568 -1.265255 -2.040053 0
M  V30 12 C -0.646621 -1.305997 -3.370505 0
M  V30 13 C -1.951206 -1.244222 -3.670397 0
M  V30 14 C -3.181759 -1.126761 -2.902107 0
M  V30 15 C -4.248837 -0.272833 -3.208443 0
M  V30 16 N -5.223120 -0.430387 -2.298828 0
M  V30 17 C -4.827149 -1.358467 -1.410686 0
M  V30 18 C -5.474511 -1.865518 -0.305648 0
M  V30 19 C -4.876694 -2.837851 0.480351 0
M  V30 20 C -3.622863 -3.235868 0.070311 0
M  V30 21 C -3.038181 -2.686787 -1.041614 0
M  V30 22 N -3.616454 -1.747957 -1.798732 0
M  V30 23 C -2.070419 -1.313934 -5.145484 0
M  V30 24 O -3.120590 -1.290350 -5.874924 0
M  V30 25 N -0.779339 -1.420815 -5.751578 0
M  V30 26 C 0.105094 -1.413920 -4.619332 0
M  V30 27 O 1.352907 -1.496754 -4.844493 0
M  V30 28 C -0.453408 -0.332206 -1.116214 0
M  V30 29 N 0.273846 -0.458423 0.037123 0
M  V30 30 C 1.128065 -1.454649 -0.186316 0
M  V30 31 C 0.032607 0.391630 1.145594 0
M  V30 32 C 0.474566 -0.018443 2.480454 0
M  V30 33 N 1.022254 1.078159 3.277063 0
M  V30 34 C 2.105242 1.778297 2.687666 0
M  V30 35 C 3.002033 2.229410 3.849571 0
M  V30 36 C 2.096243 2.481604 5.043513 0
M  V30 37 C 0.729195 2.998809 4.625579 0
M  V30 38 C 0.024465 2.048997 3.668390 0
M  V30 39 H 0.058196 -2.318069 4.326185 0
M  V30 40 H 2.875383 -2.614813 2.416069 0
M  V30 41 H 3.303987 -0.963286 1.996178 0
M  V30 42 H 3.610345 -3.518159 0.745690 0
M  V30 43 H 1.561285 -3.398047 -2.944062 0
M  V30 44 H -4.304586 0.414956 -4.041750 0
M  V30 45 H -6.469717 -1.484800 -0.062684 0
M  V30 46 H -5.444568 -3.182645 1.324205 0
M  V30 47 H -3.144986 -3.998950 0.681503 0
M  V30 48 H -2.073399 -3.070995 -1.273048 0
M  V30 49 H -0.564362 -1.486310 -6.767131 0
M  V30 50 H -1.250281 0.414806 -1.244174 0
M  V30 51 H 0.546219 1.373182 0.903467 0
M  V30 52 H -1.057852 0.696249 1.121581 0
M  V30 53 H -0.483476 -0.253989 3.059876 0
M  V30 54 H 2.647203 1.306372 1.877000 0
M  V30 55 H 1.729075 2.760119 2.262092 0
M  V30 56 H 3.577108 3.127272 3.543190 0
M  V30 57 H 3.746252 1.445403 4.115174 0
M  V30 58 H 1.909622 1.494792 5.548751 0
M  V30 59 H 2.534633 3.232552 5.712339 0
M  V30 60 H 0.117624 3.022239 5.550348 0
M  V30 61 H 0.885296 4.009758 4.199931 0
M  V30 62 H -0.898296 1.630374 4.059948 0
M  V30 63 H -0.158261 2.659363 2.731988 0
M  V30 END ATOM
M  V30 BEGIN BOND
M  V30 1 2 1 2
M  V30 2 1 2 3
M  V30 3 1 3 4
M  V30 4 1 4 5
M  V30 5 2 5 6
M  V30 6 1 6 7
M  V30 7 1 7 8
M  V30 8 2 7 9
M  V30 9 1 9 10
M  V30 10 1 10 11
M  V30 11 1 11 12
M  V30 12 2 12 13
M  V30 13 1 13 14
M  V30 14 2 14 15
M  V30 15 1 15 16
M  V30 16 2 16 17
M  V30 17 1 17 18
M  V30 18 2 18 19
M  V30 19 1 19 20
M  V30 20 2 20 21
M  V30 21 1 21 22
M  V30 22 1 13 23
M  V30 23 2 23 24
M  V30 24 1 23 25
M  V30 25 1 25 26
M  V30 26 2 26 27
M  V30 27 2 11 28
M  V30 28 1 28 29
M  V30 29 1 29 30
M  V30 30 1 29 31
M  V30 31 1 31 32
M  V30 32 1 32 33
M  V30 33 1 33 34
M  V30 34 1 34 35
M  V30 35 1 35 36
M  V30 36 1 36 37
M  V30 37 1 37 38
M  V30 38 1 32 3
M  V30 39 1 38 33
M  V30 40 1 30 5
M  V30 41 2 30 10
M  V30 42 1 26 12
M  V30 43 1 22 14
M  V30 44 1 22 17
M  V30 45 1 2 39
M  V30 46 1 4 40
M  V30 47 1 4 41
M  V30 48 1 6 42
M  V30 49 1 9 43
M  V30 50 1 15 44
M  V30 51 1 18 45
M  V30 52 1 19 46
M  V30 53 1 20 47
M  V30 54 1 21 48
M  V30 55 1 25 49
M  V30 56 1 28 50
M  V30 57 1 31 51
M  V30 58 1 31 52
M  V30 59 1 32 53
M  V30 60 1 34 54
M  V30 61 1 34 55
M  V30 62 1 35 56
M  V30 63 1 35 57
M  V30 64 1 36 58
M  V30 65 1 36 59
M  V30 66 1 37 60
M  V30 67 1 37 61
M  V30 68 1 38 62
M  V30 69 1 38 63
M  V30 END BOND
M  V30 END CTAB
M  END
>  <Dataset>  (786) 
ChEMBL_Kinases

>  <Ligand_Instance>  (786) 
nan

>  <PDB_ID>  (786) 
nan

>  <Standardized_SMILES>  (786) 
O=CN1Cc2cc(F)cc3c(C4=C(c5cnc6ccccn56)C(=O)NC4=O)cn(c23)CC1N1CCCCC1

>  <Name>  (786) 
nan

>  <Pocket>  (786) 
nan

>  <ATP_Site>  (786) 
nan

>  <Peripheral>  (786) 
nan

>  <Num_H_Atoms_ProtBoundConf>  (786) 
nan

>  <Num_Resolved_Atoms>  (786) 
nan

>  <Num_Not_Resolved_Atoms>  (786) 
nan

$$$$
CHEMBL4787210
     RDKit          3D

  0  0  0  0  0  0  0  0  0  0999 V3000
M  V30 BEGIN CTAB
M  V30 COUNTS 33 36 0 0 0
M  V30 BEGIN ATOM
M  V30 1 C -1.939614 -1.720937 3.761155 0
M  V30 2 C -1.499256 -1.118873 2.473457 0
M  V30 3 C -0.483038 -1.688196 1.711830 0
M  V30 4 C -0.082680 -1.120789 0.518490 0
M  V30 5 C 0.989696 -1.764627 -0.236627 0
M  V30 6 C 1.053306 -3.140102 -0.456783 0
M  V30 7 N 2.158142 -3.404326 -1.182412 0
M  V30 8 C 2.822681 -2.250821 -1.446760 0
M  V30 9 N 3.953270 -1.937028 -2.112698 0
M  V30 10 C 4.355277 -0.672007 -2.198233 0
M  V30 11 C 3.646067 0.355846 -1.619900 0
M  V30 12 C 2.486888 0.107241 -0.927531 0
M  V30 13 C 2.104363 -1.226744 -0.863220 0
M  V30 14 C -0.701453 0.043860 0.059305 0
M  V30 15 C -1.707384 0.622688 0.795998 0
M  V30 16 C -2.297590 1.770435 0.316411 0
M  V30 17 C -3.308766 2.351872 1.057399 0
M  V30 18 C -3.677946 1.753651 2.242430 0
M  V30 19 N -3.077080 0.614812 2.697238 0
M  V30 20 C -2.084782 0.032011 1.983868 0
M  V30 21 H -1.080507 -2.286959 4.197920 0
M  V30 22 H -2.777018 -2.421119 3.513703 0
M  V30 23 H -2.273427 -0.944905 4.480991 0
M  V30 24 H -0.050526 -2.589252 2.130928 0
M  V30 25 H 0.377757 -3.910325 -0.135287 0
M  V30 26 H 2.519351 -4.340159 -1.531035 0
M  V30 27 H 5.271610 -0.530314 -2.752744 0
M  V30 28 H 3.996527 1.374945 -1.705444 0
M  V30 29 H 1.935395 0.916349 -0.476521 0
M  V30 30 H -0.393489 0.498020 -0.878609 0
M  V30 31 H -2.008581 2.228893 -0.600153 0
M  V30 32 H -3.823691 3.253449 0.751560 0
M  V30 33 H -4.462521 2.161342 2.866383 0
M  V30 END ATOM
M  V30 BEGIN BOND
M  V30 1 1 1 2
M  V30 2 2 2 3
M  V30 3 1 3 4
M  V30 4 1 4 5
M  V30 5 2 5 6
M  V30 6 1 6 7
M  V30 7 1 7 8
M  V30 8 2 8 9
M  V30 9 1 9 10
M  V30 10 2 10 11
M  V30 11 1 11 12
M  V30 12 2 12 13
M  V30 13 2 4 14
M  V30 14 1 14 15
M  V30 15 2 15 16
M  V30 16 1 16 17
M  V30 17 2 17 18
M  V30 18 1 18 19
M  V30 19 2 19 20
M  V30 20 1 20 2
M  V30 21 1 13 5
M  V30 22 1 20 15
M  V30 23 1 13 8
M  V30 24 1 1 21
M  V30 25 1 1 22
M  V30 26 1 1 23
M  V30 27 1 3 24
M  V30 28 1 6 25
M  V30 29 1 7 26
M  V30 30 1 10 27
M  V30 31 1 11 28
M  V30 32 1 12 29
M  V30 33 1 14 30
M  V30 34 1 16 31
M  V30 35 1 17 32
M  V30 36 1 18 33
M  V30 END BOND
M  V30 END CTAB
M  END
>  <Dataset>  (787) 
ChEMBL_Kinases

>  <Ligand_Instance>  (787) 
nan

>  <PDB_ID>  (787) 
nan

>  <Standardized_SMILES>  (787) 
Cc1cc(-c2c[nH]c3ncccc23)cc2cccnc12

>  <Name>  (787) 
nan

>  <Pocket>  (787) 
nan

>  <ATP_Site>  (787) 
nan

>  <Peripheral>  (787) 
nan

>  <Num_H_Atoms_ProtBoundConf>  (787) 
nan

>  <Num_Resolved_Atoms>  (787) 
nan

>  <Num_Not_Resolved_Atoms>  (787) 
nan

$$$$
CHEMBL4787213
     RDKit          3D

  0  0  0  0  0  0  0  0  0  0999 V3000
M  V30 BEGIN CTAB
M  V30 COUNTS 63 68 0 0 0
M  V30 BEGIN ATOM
M  V30 1 C 0.786338 -0.349865 5.418668 0
M  V30 2 N 0.886226 -1.324816 4.321112 0
M  V30 3 C 1.451086 -2.519776 4.932002 0
M  V30 4 C 1.835568 -0.711417 3.381370 0
M  V30 5 C 2.064446 -1.573155 2.184398 0
M  V30 6 N 2.996809 -0.988472 1.241781 0
M  V30 7 C 2.886472 0.160931 0.418813 0
M  V30 8 C 3.954440 0.552901 -0.398689 0
M  V30 9 C 3.816085 1.664915 -1.196571 0
M  V30 10 F 4.887148 1.983124 -1.958151 0
M  V30 11 C 2.665003 2.423469 -1.233579 0
M  V30 12 C 1.614994 2.034506 -0.427372 0
M  V30 13 C 0.440973 2.898773 -0.527027 0
M  V30 14 C 0.645169 4.263460 -0.435049 0
M  V30 15 C -0.473479 5.065770 -0.519972 0
M  V30 16 C -1.734632 4.537758 -0.688305 0
M  V30 17 C -1.948740 3.178508 -0.781392 0
M  V30 18 N -2.996879 2.352962 -0.943990 0
M  V30 19 C -2.639691 1.047029 -0.972573 0
M  V30 20 C -3.648151 0.027432 -1.140685 0
M  V30 21 N -4.963944 0.250925 -1.277707 0
M  V30 22 N -5.643776 -0.870987 -1.414379 0
M  V30 23 C -4.814521 -1.928741 -1.376833 0
M  V30 24 N -4.982449 -3.258040 -1.466768 0
M  V30 25 C -3.930691 -4.091480 -1.392243 0
M  V30 26 C -2.665395 -3.570346 -1.221312 0
M  V30 27 C -1.549929 -4.510279 -1.145545 0
M  V30 28 C -0.311345 -4.087581 -1.625345 0
M  V30 29 C 0.795942 -4.919007 -1.589437 0
M  V30 30 N 0.637287 -6.153168 -1.074357 0
M  V30 31 C -0.545698 -6.603957 -0.598001 0
M  V30 32 C -1.668038 -5.783503 -0.625854 0
M  V30 33 C -2.507964 -2.205449 -1.130652 0
M  V30 34 C -3.568867 -1.339914 -1.204503 0
M  V30 35 C -1.294959 1.098536 -0.817247 0
M  V30 36 C -0.825985 2.384684 -0.695605 0
M  V30 37 C 1.752832 0.919542 0.373128 0
M  V30 38 H 0.102280 0.477823 5.156049 0
M  V30 39 H 0.371691 -0.888075 6.272674 0
M  V30 40 H 1.793839 0.091711 5.642347 0
M  V30 41 H 2.536024 -2.318733 5.092340 0
M  V30 42 H 0.921241 -2.647285 5.894335 0
M  V30 43 H 1.302669 -3.420904 4.337329 0
M  V30 44 H 1.449484 0.296183 3.187963 0
M  V30 45 H 2.816719 -0.572854 3.884799 0
M  V30 46 H 2.303821 -2.613826 2.427022 0
M  V30 47 H 1.050395 -1.645248 1.674337 0
M  V30 48 H 3.907165 -1.526446 1.173257 0
M  V30 49 H 4.867500 -0.026053 -0.387103 0
M  V30 50 H 2.667930 3.270331 -1.893059 0
M  V30 51 H 1.645814 4.642111 -0.303572 0
M  V30 52 H -0.324825 6.148128 -0.448384 0
M  V30 53 H -2.601365 5.180445 -0.752898 0
M  V30 54 H -3.930930 2.814389 -1.025502 0
M  V30 55 H -6.681959 -0.893481 -1.533111 0
M  V30 56 H -4.162165 -5.161842 -1.475601 0
M  V30 57 H -0.220264 -3.080684 -2.035781 0
M  V30 58 H 1.739727 -4.554949 -1.971215 0
M  V30 59 H -0.651887 -7.600999 -0.187557 0
M  V30 60 H -2.655631 -6.085873 -0.256565 0
M  V30 61 H -1.532902 -1.831253 -1.000426 0
M  V30 62 H -0.657944 0.251147 -0.792902 0
M  V30 63 H 0.886423 0.708394 0.949389 0
M  V30 END ATOM
M  V30 BEGIN BOND
M  V30 1 1 1 2
M  V30 2 1 2 3
M  V30 3 1 2 4
M  V30 4 1 4 5
M  V30 5 1 5 6
M  V30 6 1 6 7
M  V30 7 2 7 8
M  V30 8 1 8 9
M  V30 9 1 9 10
M  V30 10 2 9 11
M  V30 11 1 11 12
M  V30 12 1 12 13
M  V30 13 2 13 14
M  V30 14 1 14 15
M  V30 15 2 15 16
M  V30 16 1 16 17
M  V30 17 1 17 18
M  V30 18 1 18 19
M  V30 19 1 19 20
M  V30 20 2 20 21
M  V30 21 1 21 22
M  V30 22 1 22 23
M  V30 23 2 23 24
M  V30 24 1 24 25
M  V30 25 2 25 26
M  V30 26 1 26 27
M  V30 27 2 27 28
M  V30 28 1 28 29
M  V30 29 2 29 30
M  V30 30 1 30 31
M  V30 31 2 31 32
M  V30 32 1 26 33
M  V30 33 2 33 34
M  V30 34 2 19 35
M  V30 35 1 35 36
M  V30 36 2 12 37
M  V30 37 1 37 7
M  V30 38 1 36 13
M  V30 39 2 36 17
M  V30 40 1 34 20
M  V30 41 1 34 23
M  V30 42 1 32 27
M  V30 43 1 1 38
M  V30 44 1 1 39
M  V30 45 1 1 40
M  V30 46 1 3 41
M  V30 47 1 3 42
M  V30 48 1 3 43
M  V30 49 1 4 44
M  V30 50 1 4 45
M  V30 51 1 5 46
M  V30 52 1 5 47
M  V30 53 1 6 48
M  V30 54 1 8 49
M  V30 55 1 11 50
M  V30 56 1 14 51
M  V30 57 1 15 52
M  V30 58 1 16 53
M  V30 59 1 18 54
M  V30 60 1 22 55
M  V30 61 1 25 56
M  V30 62 1 28 57
M  V30 63 1 29 58
M  V30 64 1 31 59
M  V30 65 1 32 60
M  V30 66 1 33 61
M  V30 67 1 35 62
M  V30 68 1 37 63
M  V30 END BOND
M  V30 END CTAB
M  END
>  <Dataset>  (788) 
ChEMBL_Kinases

>  <Ligand_Instance>  (788) 
nan

>  <PDB_ID>  (788) 
nan

>  <Standardized_SMILES>  (788) 
CN(C)CCNc1cc(F)cc(-c2cccc3[nH]c(-c4n[nH]c5ncc(-c6ccncc6)cc45)cc23)c1

>  <Name>  (788) 
nan

>  <Pocket>  (788) 
nan

>  <ATP_Site>  (788) 
nan

>  <Peripheral>  (788) 
nan

>  <Num_H_Atoms_ProtBoundConf>  (788) 
nan

>  <Num_Resolved_Atoms>  (788) 
nan

>  <Num_Not_Resolved_Atoms>  (788) 
nan

$$$$
CHEMBL4165390
     RDKit          3D

  0  0  0  0  0  0  0  0  0  0999 V3000
M  V30 BEGIN CTAB
M  V30 COUNTS 54 58 0 0 0
M  V30 BEGIN ATOM
M  V30 1 N 0.665060 -1.603032 6.013813 0
M  V30 2 C 1.780879 -1.019564 5.293396 0
M  V30 3 C 2.907402 -1.979308 5.063927 0
M  V30 4 C 3.672801 -1.720773 3.796615 0
M  V30 5 C 3.603960 -0.311074 3.284451 0
M  V30 6 C 2.258480 0.305551 3.344630 0
M  V30 7 C 1.822236 0.984718 2.092892 0
M  V30 8 O 1.461612 2.186914 1.969989 0
M  V30 9 N 1.829124 0.142235 0.920851 0
M  V30 10 C 1.405967 0.798471 -0.281922 0
M  V30 11 C 2.162956 1.520652 -1.185559 0
M  V30 12 C 1.555468 2.066227 -2.290395 0
M  V30 13 C 0.200428 1.930370 -2.555089 0
M  V30 14 N -0.576716 2.372022 -3.550511 0
M  V30 15 N -1.807018 1.949717 -3.305186 0
M  V30 16 C -1.827996 1.236270 -2.154290 0
M  V30 17 N -2.991335 0.620034 -1.565866 0
M  V30 18 C -3.547054 -0.642762 -1.954125 0
M  V30 19 C -4.862333 -0.557726 -2.382677 0
M  V30 20 C -5.587334 -1.656324 -2.807831 0
M  V30 21 C -4.935962 -2.887890 -2.792206 0
M  V30 22 C -3.641027 -3.002212 -2.375314 0
M  V30 23 C -2.947080 -4.196013 -2.341367 0
M  V30 24 C -1.641551 -4.277355 -1.917911 0
M  V30 25 C -1.046983 -3.089125 -1.521300 0
M  V30 26 N -1.695141 -1.913175 -1.542765 0
M  V30 27 C -2.958988 -1.885856 -1.961426 0
M  V30 28 C -0.531689 1.199274 -1.628415 0
M  V30 29 C 0.056389 0.647161 -0.518762 0
M  V30 30 C 1.256050 -0.649131 3.903001 0
M  V30 31 H 0.076219 -2.141020 5.351780 0
M  V30 32 H 0.055995 -0.797295 6.345282 0
M  V30 33 H 2.141424 -0.086424 5.814034 0
M  V30 34 H 3.585416 -2.067522 5.940625 0
M  V30 35 H 2.439891 -2.993396 4.954783 0
M  V30 36 H 3.401940 -2.450464 2.990487 0
M  V30 37 H 4.741246 -1.933030 4.012192 0
M  V30 38 H 3.875959 -0.383851 2.190899 0
M  V30 39 H 4.392388 0.330270 3.737703 0
M  V30 40 H 2.330514 1.145879 4.101965 0
M  V30 41 H 2.115439 -0.861742 0.933284 0
M  V30 42 H 3.201475 1.586317 -0.917724 0
M  V30 43 H 2.228308 2.615650 -2.942836 0
M  V30 44 H -0.242178 2.947322 -4.365783 0
M  V30 45 H -3.459492 1.159998 -0.784294 0
M  V30 46 H -5.430923 0.370763 -2.421080 0
M  V30 47 H -6.612497 -1.645055 -3.151447 0
M  V30 48 H -5.380873 -3.834889 -3.099133 0
M  V30 49 H -3.439912 -5.110613 -2.656802 0
M  V30 50 H -1.047225 -5.180391 -1.869919 0
M  V30 51 H -0.001732 -3.078473 -1.169797 0
M  V30 52 H -0.640871 0.113982 0.100335 0
M  V30 53 H 0.234558 -0.215287 3.960381 0
M  V30 54 H 1.285282 -1.582476 3.303113 0
M  V30 END ATOM
M  V30 BEGIN BOND
M  V30 1 1 1 2
M  V30 2 1 2 3
M  V30 3 1 3 4
M  V30 4 1 4 5
M  V30 5 1 5 6
M  V30 6 1 6 7
M  V30 7 2 7 8
M  V30 8 1 7 9
M  V30 9 1 9 10
M  V30 10 2 10 11
M  V30 11 1 11 12
M  V30 12 2 12 13
M  V30 13 1 13 14
M  V30 14 1 14 15
M  V30 15 2 15 16
M  V30 16 1 16 17
M  V30 17 1 17 18
M  V30 18 2 18 19
M  V30 19 1 19 20
M  V30 20 2 20 21
M  V30 21 1 21 22
M  V30 22 2 22 23
M  V30 23 1 23 24
M  V30 24 2 24 25
M  V30 25 1 25 26
M  V30 26 2 26 27
M  V30 27 1 16 28
M  V30 28 2 28 29
M  V30 29 1 6 30
M  V30 30 1 30 2
M  V30 31 1 29 10
M  V30 32 1 28 13
M  V30 33 1 27 18
M  V30 34 1 27 22
M  V30 35 1 1 31
M  V30 36 1 1 32
M  V30 37 1 2 33
M  V30 38 1 3 34
M  V30 39 1 3 35
M  V30 40 1 4 36
M  V30 41 1 4 37
M  V30 42 1 5 38
M  V30 43 1 5 39
M  V30 44 1 6 40
M  V30 45 1 9 41
M  V30 46 1 11 42
M  V30 47 1 12 43
M  V30 48 1 14 44
M  V30 49 1 17 45
M  V30 50 1 19 46
M  V30 51 1 20 47
M  V30 52 1 21 48
M  V30 53 1 23 49
M  V30 54 1 24 50
M  V30 55 1 25 51
M  V30 56 1 29 52
M  V30 57 1 30 53
M  V30 58 1 30 54
M  V30 END BOND
M  V30 END CTAB
M  END
>  <Dataset>  (789) 
ChEMBL_Kinases

>  <Ligand_Instance>  (789) 
nan

>  <PDB_ID>  (789) 
nan

>  <Standardized_SMILES>  (789) 
NC1CCCC(C(=O)Nc2ccc3[nH]nc(Nc4cccc5cccnc45)c3c2)C1

>  <Name>  (789) 
nan

>  <Pocket>  (789) 
nan

>  <ATP_Site>  (789) 
nan

>  <Peripheral>  (789) 
nan

>  <Num_H_Atoms_ProtBoundConf>  (789) 
nan

>  <Num_Resolved_Atoms>  (789) 
nan

>  <Num_Not_Resolved_Atoms>  (789) 
nan

$$$$
CHEMBL4165336
     RDKit          3D

  0  0  0  0  0  0  0  0  0  0999 V3000
M  V30 BEGIN CTAB
M  V30 COUNTS 48 51 0 0 0
M  V30 BEGIN ATOM
M  V30 1 C -1.365146 -6.984055 2.171663 0
M  V30 2 O -2.319343 -6.011619 2.393501 0
M  V30 3 C -2.248640 -4.758851 1.973916 0
M  V30 4 C -2.176548 -3.476098 1.544451 0
M  V30 5 C -2.809622 -2.301449 1.521053 0
M  V30 6 C -2.162720 -1.190919 0.917911 0
M  V30 7 C -0.748819 -1.142181 1.126171 0
M  V30 8 N 0.071763 -0.225928 0.511462 0
M  V30 9 C -0.473538 0.681763 -0.334114 0
M  V30 10 C 0.303231 1.637079 -1.011927 0
M  V30 11 N 1.750178 1.818064 -0.940293 0
M  V30 12 C 2.377136 2.786710 -1.798524 0
M  V30 13 C 3.526821 3.436071 -1.093163 0 CFG=1
M  V30 14 C 3.649388 4.912535 -1.544232 0
M  V30 15 O 3.538876 3.402294 0.274623 0
M  V30 16 C 3.144392 2.264392 0.902485 0 CFG=2
M  V30 17 C 4.101784 1.637072 1.857255 0
M  V30 18 C 2.756665 1.190919 -0.134666 0
M  V30 19 S -0.703342 2.539053 -1.945330 0
M  V30 20 N -2.307608 1.691785 -1.498886 0
M  V30 21 C -1.826606 0.765739 -0.637791 0
M  V30 22 C -2.436926 -0.216403 0.062747 0
M  V30 23 C -4.045084 -2.334074 2.188762 0
M  V30 24 C -4.455300 -3.554019 2.780478 0
M  V30 25 C -3.563413 -4.665419 2.645743 0
M  V30 26 N -4.477861 -5.559333 3.406675 0
M  V30 27 H -0.486728 -6.609764 1.605184 0
M  V30 28 H -1.736860 -7.887875 1.568834 0
M  V30 29 H -0.970636 -7.446495 3.115979 0
M  V30 30 H -1.174927 -3.678278 1.087105 0
M  V30 31 H -0.162910 -1.814923 1.785874 0
M  V30 32 H 1.659514 3.615721 -2.060716 0
M  V30 33 H 2.764247 2.318253 -2.734136 0
M  V30 34 H 4.465866 2.911145 -1.429474 0
M  V30 35 H 4.420044 5.366736 -0.944513 0
M  V30 36 H 3.903754 4.941090 -2.615715 0
M  V30 37 H 2.664478 5.366388 -1.319067 0
M  V30 38 H 2.187500 2.462856 1.459191 0
M  V30 39 H 3.999392 0.546724 1.809726 0
M  V30 40 H 5.186982 1.822428 1.625310 0
M  V30 41 H 3.875091 1.893428 2.935591 0
M  V30 42 H 2.352675 0.349416 0.472322 0
M  V30 43 H 3.638014 0.825680 -0.696498 0
M  V30 44 H -3.552847 -0.271002 -0.096120 0
M  V30 45 H -4.458161 -1.344911 2.104630 0
M  V30 46 H -5.430659 -3.223440 3.201441 0
M  V30 47 H -5.137154 -6.107614 2.819329 0
M  V30 48 H -4.362369 -5.545900 4.460481 0
M  V30 END ATOM
M  V30 BEGIN BOND
M  V30 1 1 1 2
M  V30 2 1 2 3
M  V30 3 2 3 4
M  V30 4 1 4 5
M  V30 5 1 5 6
M  V30 6 1 6 7
M  V30 7 2 7 8
M  V30 8 1 8 9
M  V30 9 2 9 10
M  V30 10 1 10 11
M  V30 11 1 11 12
M  V30 12 1 12 13
M  V30 13 1 13 14
M  V30 14 1 13 15
M  V30 15 1 15 16
M  V30 16 1 16 17
M  V30 17 1 16 18
M  V30 18 1 10 19
M  V30 19 1 19 20
M  V30 20 2 20 21
M  V30 21 1 21 22
M  V30 22 2 5 23
M  V30 23 1 23 24
M  V30 24 2 24 25
M  V30 25 1 25 26
M  V30 26 1 25 3
M  V30 27 2 22 6
M  V30 28 1 21 9
M  V30 29 1 18 11
M  V30 30 1 1 27
M  V30 31 1 1 28
M  V30 32 1 1 29
M  V30 33 1 4 30
M  V30 34 1 7 31
M  V30 35 1 12 32
M  V30 36 1 12 33
M  V30 37 1 13 34 CFG=3
M  V30 38 1 14 35
M  V30 39 1 14 36
M  V30 40 1 14 37
M  V30 41 1 16 38 CFG=1
M  V30 42 1 17 39
M  V30 43 1 17 40
M  V30 44 1 17 41
M  V30 45 1 18 42
M  V30 46 1 18 43
M  V30 47 1 22 44
M  V30 48 1 23 45
M  V30 49 1 24 46
M  V30 50 1 26 47
M  V30 51 1 26 48
M  V30 END BOND
M  V30 END CTAB
M  END
>  <Dataset>  (790) 
ChEMBL_Kinases

>  <Ligand_Instance>  (790) 
nan

>  <PDB_ID>  (790) 
nan

>  <Standardized_SMILES>  (790) 
COc1cc(-c2cnc3c(N4C[C@@H](C)O[C@H](C)C4)snc3c2)ccc1N

>  <Name>  (790) 
nan

>  <Pocket>  (790) 
nan

>  <ATP_Site>  (790) 
nan

>  <Peripheral>  (790) 
nan

>  <Num_H_Atoms_ProtBoundConf>  (790) 
nan

>  <Num_Resolved_Atoms>  (790) 
nan

>  <Num_Not_Resolved_Atoms>  (790) 
nan

$$$$
CHEMBL4787238
     RDKit          3D

  0  0  0  0  0  0  0  0  0  0999 V3000
M  V30 BEGIN CTAB
M  V30 COUNTS 48 51 0 0 0
M  V30 BEGIN ATOM
M  V30 1 C 1.919246 -2.342785 0.406467 0
M  V30 2 C 2.951435 -2.653579 1.447606 0
M  V30 3 C 2.558728 -2.246742 2.844611 0
M  V30 4 N 4.276743 -2.143152 1.097669 0
M  V30 5 C 5.426086 -2.830801 0.976589 0
M  V30 6 N 6.447586 -2.022562 0.639942 0
M  V30 7 N 5.923827 -0.809542 0.549945 0
M  V30 8 C 4.607892 -0.868424 0.825120 0
M  V30 9 C 3.732275 0.294324 0.814274 0
M  V30 10 C 4.080910 1.444719 0.134326 0
M  V30 11 C 3.328241 2.600126 0.058891 0
M  V30 12 C 2.115632 2.614999 0.720534 0
M  V30 13 C 1.769369 1.463508 1.399639 0
M  V30 14 N 0.504090 1.483704 2.088060 0
M  V30 15 C -0.562949 1.024331 1.237695 0
M  V30 16 O -0.427140 0.643795 0.027283 0
M  V30 17 N -1.917046 0.956888 1.707021 0
M  V30 18 C -2.994592 0.508854 0.895764 0
M  V30 19 N -3.656701 1.435420 0.162926 0
M  V30 20 N -4.627296 0.837841 -0.530005 0
M  V30 21 C -5.574516 1.471943 -1.443593 0
M  V30 22 C -4.587476 -0.482125 -0.239430 0
M  V30 23 C -5.317941 -1.594232 -0.631786 0
M  V30 24 C -5.006077 -2.856702 -0.125554 0
M  V30 25 C -3.956772 -3.025855 0.782515 0
M  V30 26 C -3.198252 -1.932357 1.201897 0
M  V30 27 C -3.567893 -0.723414 0.657917 0
M  V30 28 N 2.542700 0.368898 1.437906 0
M  V30 29 H 1.001437 -1.891274 0.841370 0
M  V30 30 H 1.539674 -3.257778 -0.135537 0
M  V30 31 H 2.357169 -1.722166 -0.414934 0
M  V30 32 H 3.035093 -3.779717 1.468975 0
M  V30 33 H 1.541686 -1.839257 2.838507 0
M  V30 34 H 2.513542 -3.118305 3.560225 0
M  V30 35 H 3.331557 -1.583083 3.283832 0
M  V30 36 H 5.561681 -3.887344 1.119704 0
M  V30 37 H 5.020956 1.481212 -0.398970 0
M  V30 38 H 3.655262 3.462333 -0.486927 0
M  V30 39 H 1.466847 3.466773 0.716667 0
M  V30 40 H 0.297793 1.772883 3.059009 0
M  V30 41 H -2.073552 1.264427 2.708467 0
M  V30 42 H -5.740559 2.530408 -1.154707 0
M  V30 43 H -5.175611 1.500628 -2.479530 0
M  V30 44 H -6.549241 0.962129 -1.448871 0
M  V30 45 H -6.118331 -1.412100 -1.334796 0
M  V30 46 H -5.595229 -3.698719 -0.452708 0
M  V30 47 H -3.724046 -4.010967 1.168679 0
M  V30 48 H -2.392212 -2.024373 1.892042 0
M  V30 END ATOM
M  V30 BEGIN BOND
M  V30 1 1 1 2
M  V30 2 1 2 3
M  V30 3 1 2 4
M  V30 4 1 4 5
M  V30 5 2 5 6
M  V30 6 1 6 7
M  V30 7 2 7 8
M  V30 8 1 8 9
M  V30 9 2 9 10
M  V30 10 1 10 11
M  V30 11 2 11 12
M  V30 12 1 12 13
M  V30 13 1 13 14
M  V30 14 1 14 15
M  V30 15 2 15 16
M  V30 16 1 15 17
M  V30 17 1 17 18
M  V30 18 2 18 19
M  V30 19 1 19 20
M  V30 20 1 20 21
M  V30 21 1 20 22
M  V30 22 2 22 23
M  V30 23 1 23 24
M  V30 24 2 24 25
M  V30 25 1 25 26
M  V30 26 2 26 27
M  V30 27 2 13 28
M  V30 28 1 8 4
M  V30 29 1 28 9
M  V30 30 1 27 18
M  V30 31 1 27 22
M  V30 32 1 1 29
M  V30 33 1 1 30
M  V30 34 1 1 31
M  V30 35 1 2 32
M  V30 36 1 3 33
M  V30 37 1 3 34
M  V30 38 1 3 35
M  V30 39 1 5 36
M  V30 40 1 10 37
M  V30 41 1 11 38
M  V30 42 1 12 39
M  V30 43 1 14 40
M  V30 44 1 17 41
M  V30 45 1 21 42
M  V30 46 1 21 43
M  V30 47 1 21 44
M  V30 48 1 23 45
M  V30 49 1 24 46
M  V30 50 1 25 47
M  V30 51 1 26 48
M  V30 END BOND
M  V30 END CTAB
M  END
>  <Dataset>  (791) 
ChEMBL_Kinases

>  <Ligand_Instance>  (791) 
nan

>  <PDB_ID>  (791) 
nan

>  <Standardized_SMILES>  (791) 
CC(C)n1cnnc1-c1cccc(NC(=O)Nc2nn(C)c3ccccc23)n1

>  <Name>  (791) 
nan

>  <Pocket>  (791) 
nan

>  <ATP_Site>  (791) 
nan

>  <Peripheral>  (791) 
nan

>  <Num_H_Atoms_ProtBoundConf>  (791) 
nan

>  <Num_Resolved_Atoms>  (791) 
nan

>  <Num_Not_Resolved_Atoms>  (791) 
nan

$$$$
CHEMBL4166017
     RDKit          3D

  0  0  0  0  0  0  0  0  0  0999 V3000
M  V30 BEGIN CTAB
M  V30 COUNTS 64 69 0 0 0
M  V30 BEGIN ATOM
M  V30 1 C 3.997992 0.399980 4.322772 0
M  V30 2 C 2.941051 0.036332 3.345495 0
M  V30 3 N 1.770530 -0.668701 3.367807 0
M  V30 4 N 1.188889 -0.694517 2.208587 0
M  V30 5 C -0.030121 -1.421016 2.226069 0
M  V30 6 C -1.081847 -0.635105 2.729023 0
M  V30 7 C -2.375462 -1.112043 2.851497 0
M  V30 8 C -2.677033 -2.408332 2.472291 0
M  V30 9 C -1.635564 -3.158417 1.984637 0
M  V30 10 C -0.356745 -2.694659 1.861176 0
M  V30 11 C 1.955722 -0.001489 1.358767 0
M  V30 12 O 1.590419 0.142930 0.033854 0
M  V30 13 C 0.453533 -0.435441 -0.508642 0
M  V30 14 C -0.863277 -0.032224 -0.593156 0
M  V30 15 C -1.787969 -0.848719 -1.207942 0
M  V30 16 C -1.422359 -2.066941 -1.743420 0
M  V30 17 C -2.432594 -2.915569 -2.387121 0
M  V30 18 N -3.731597 -2.626692 -2.561389 0
M  V30 19 C -4.358786 -3.626776 -3.198410 0
M  V30 20 C -5.651761 -3.849655 -3.623033 0
M  V30 21 C -5.916822 -5.025723 -4.259881 0
M  V30 22 C -7.289679 -5.196964 -4.679909 0
M  V30 23 O -8.200200 -4.356979 -4.478843 0
M  V30 24 O -8.014014 -6.170744 -5.345935 0
M  V30 25 C -4.944675 -5.979941 -4.485760 0
M  V30 26 C -3.643565 -5.782451 -4.071014 0
M  V30 27 C -3.389746 -4.582361 -3.426209 0
M  V30 28 N -2.216368 -4.129852 -2.922455 0
M  V30 29 C -0.110820 -2.490975 -1.671303 0
M  V30 30 C 0.830500 -1.674507 -1.053260 0
M  V30 31 C 3.061361 0.476321 2.016845 0
M  V30 32 C 4.151910 1.272495 1.418422 0
M  V30 33 N 3.933362 2.463061 1.792505 0
M  V30 34 N 4.708682 3.597144 1.471930 0
M  V30 35 C 4.374163 4.639430 2.390168 0
M  V30 36 C 5.082849 4.658912 3.595657 0
M  V30 37 C 4.853103 5.627886 4.581345 0
M  V30 38 C 3.883868 6.570392 4.301747 0
M  V30 39 C 3.171216 6.572441 3.120779 0
M  V30 40 C 3.418589 5.607511 2.169014 0
M  V30 41 H 4.915637 -0.206546 4.063671 0
M  V30 42 H 3.663525 0.180666 5.341256 0
M  V30 43 H 4.292901 1.479101 4.202137 0
M  V30 44 H -1.020599 0.406872 3.076208 0
M  V30 45 H -3.210115 -0.538631 3.235094 0
M  V30 46 H -3.660406 -2.849861 2.537168 0
M  V30 47 H -1.762832 -4.180841 1.659936 0
M  V30 48 H 0.505703 -3.230277 1.484917 0
M  V30 49 H -0.987561 0.933441 -0.135614 0
M  V30 50 H -2.794402 -0.458303 -1.230591 0
M  V30 51 H -6.387548 -3.094402 -3.437625 0
M  V30 52 H -8.644862 -6.836299 -4.894058 0
M  V30 53 H -5.310508 -6.857315 -5.000084 0
M  V30 54 H -2.916893 -6.557989 -4.270171 0
M  V30 55 H -1.311338 -4.648935 -2.950917 0
M  V30 56 H 0.102940 -3.457688 -2.113542 0
M  V30 57 H 1.815421 -2.145239 -1.077813 0
M  V30 58 H 5.015202 1.092233 0.793091 0
M  V30 59 H 5.430414 4.111669 0.900687 0
M  V30 60 H 5.859575 3.944727 3.880674 0
M  V30 61 H 5.406349 5.635892 5.506369 0
M  V30 62 H 3.664120 7.344443 5.028423 0
M  V30 63 H 2.418539 7.324676 2.930327 0
M  V30 64 H 2.890467 5.545178 1.201467 0
M  V30 END ATOM
M  V30 BEGIN BOND
M  V30 1 1 1 2
M  V30 2 2 2 3
M  V30 3 1 3 4
M  V30 4 1 4 5
M  V30 5 2 5 6
M  V30 6 1 6 7
M  V30 7 2 7 8
M  V30 8 1 8 9
M  V30 9 2 9 10
M  V30 10 1 4 11
M  V30 11 1 11 12
M  V30 12 1 12 13
M  V30 13 2 13 14
M  V30 14 1 14 15
M  V30 15 2 15 16
M  V30 16 1 16 17
M  V30 17 2 17 18
M  V30 18 1 18 19
M  V30 19 2 19 20
M  V30 20 1 20 21
M  V30 21 1 21 22
M  V30 22 2 22 23
M  V30 23 1 22 24
M  V30 24 2 21 25
M  V30 25 1 25 26
M  V30 26 2 26 27
M  V30 27 1 27 28
M  V30 28 1 16 29
M  V30 29 2 29 30
M  V30 30 2 11 31
M  V30 31 1 31 32
M  V30 32 2 32 33
M  V30 33 1 33 34
M  V30 34 1 34 35
M  V30 35 2 35 36
M  V30 36 1 36 37
M  V30 37 2 37 38
M  V30 38 1 38 39
M  V30 39 2 39 40
M  V30 40 1 31 2
M  V30 41 1 40 35
M  V30 42 1 10 5
M  V30 43 1 30 13
M  V30 44 1 28 17
M  V30 45 1 27 19
M  V30 46 1 1 41
M  V30 47 1 1 42
M  V30 48 1 1 43
M  V30 49 1 6 44
M  V30 50 1 7 45
M  V30 51 1 8 46
M  V30 52 1 9 47
M  V30 53 1 10 48
M  V30 54 1 14 49
M  V30 55 1 15 50
M  V30 56 1 20 51
M  V30 57 1 24 52
M  V30 58 1 25 53
M  V30 59 1 26 54
M  V30 60 1 28 55
M  V30 61 1 29 56
M  V30 62 1 30 57
M  V30 63 1 32 58
M  V30 64 1 34 59
M  V30 65 1 36 60
M  V30 66 1 37 61
M  V30 67 1 38 62
M  V30 68 1 39 63
M  V30 69 1 40 64
M  V30 END BOND
M  V30 END CTAB
M  END
>  <Dataset>  (792) 
ChEMBL_Kinases

>  <Ligand_Instance>  (792) 
nan

>  <PDB_ID>  (792) 
nan

>  <Standardized_SMILES>  (792) 
Cc1nn(-c2ccccc2)c(Oc2ccc(-c3nc4cc(C(=O)O)ccc4[nH]3)cc2)c1/C=N/Nc1ccccc1

>  <Name>  (792) 
nan

>  <Pocket>  (792) 
nan

>  <ATP_Site>  (792) 
nan

>  <Peripheral>  (792) 
nan

>  <Num_H_Atoms_ProtBoundConf>  (792) 
nan

>  <Num_Resolved_Atoms>  (792) 
nan

>  <Num_Not_Resolved_Atoms>  (792) 
nan

$$$$
CHEMBL4167729
     RDKit          3D

  0  0  0  0  0  0  0  0  0  0999 V3000
M  V30 BEGIN CTAB
M  V30 COUNTS 53 56 0 0 0
M  V30 BEGIN ATOM
M  V30 1 C 1.743944 -1.888732 3.224892 0
M  V30 2 O 2.359947 -1.188740 2.181085 0
M  V30 3 C 3.673911 -1.319413 1.821442 0
M  V30 4 C 4.632659 -2.123318 2.373432 0
M  V30 5 C 5.943756 -2.210462 1.964750 0
M  V30 6 C 6.312445 -1.396301 0.885585 0
M  V30 7 C 5.348910 -0.563077 0.302276 0
M  V30 8 C 4.029153 -0.516252 0.761054 0
M  V30 9 N 3.269531 0.429774 -0.017655 0
M  V30 10 C 2.600540 1.579540 0.482365 0
M  V30 11 N 3.177930 2.767802 0.735299 0
M  V30 12 N 2.292912 3.644990 1.187748 0
M  V30 13 C 1.114113 3.004033 1.226358 0
M  V30 14 C -0.151105 3.399146 1.600646 0
M  V30 15 C -1.210282 2.529704 1.539184 0
M  V30 16 C -1.105397 1.226384 1.110833 0
M  V30 17 N -2.233376 0.396363 1.073614 0
M  V30 18 C -2.418436 -0.931410 0.667057 0
M  V30 19 O -1.396401 -1.527430 0.247089 0
M  V30 20 C -3.719798 -1.628519 0.711131 0
M  V30 21 C -4.815622 -0.982664 -0.061631 0
M  V30 22 C -4.609011 -0.916646 -1.544313 0
M  V30 23 C -3.580581 -1.885407 -2.046608 0
M  V30 24 C -3.509870 -3.153572 -1.270512 0
M  V30 25 N -2.234478 -3.786983 -1.643143 0
M  V30 26 C -3.552422 -3.040942 0.207791 0
M  V30 27 C 0.176228 0.877017 0.747815 0
M  V30 28 C 1.265570 1.710162 0.792687 0
M  V30 29 H 2.329962 -2.742335 3.615474 0
M  V30 30 H 0.769122 -2.340181 2.882940 0
M  V30 31 H 1.474225 -1.201533 4.070772 0
M  V30 32 H 4.321175 -2.735635 3.195638 0
M  V30 33 H 6.647436 -2.871757 2.449357 0
M  V30 34 H 7.324237 -1.460315 0.563398 0
M  V30 35 H 5.770233 0.010915 -0.518798 0
M  V30 36 H 3.176482 0.293003 -1.055760 0
M  V30 37 H 2.471250 4.644796 1.463587 0
M  V30 38 H -0.306379 4.409800 1.945646 0
M  V30 39 H -2.179169 2.919175 1.851953 0
M  V30 40 H -3.144151 0.828710 1.415981 0
M  V30 41 H -4.039771 -1.669202 1.775865 0
M  V30 42 H -5.715302 -1.650626 0.077867 0
M  V30 43 H -5.156050 0.003545 0.365963 0
M  V30 44 H -4.277557 0.109000 -1.805169 0
M  V30 45 H -5.565749 -1.051136 -2.111621 0
M  V30 46 H -3.901956 -2.183306 -3.089686 0
M  V30 47 H -2.593664 -1.405866 -2.210603 0
M  V30 48 H -4.278679 -3.904751 -1.599993 0
M  V30 49 H -1.953647 -3.484974 -2.600178 0
M  V30 50 H -2.309444 -4.825077 -1.558941 0
M  V30 51 H -2.633608 -3.475721 0.669518 0
M  V30 52 H -4.430555 -3.620676 0.618574 0
M  V30 53 H 0.382852 -0.114880 0.395548 0
M  V30 END ATOM
M  V30 BEGIN BOND
M  V30 1 1 1 2
M  V30 2 1 2 3
M  V30 3 2 3 4
M  V30 4 1 4 5
M  V30 5 2 5 6
M  V30 6 1 6 7
M  V30 7 2 7 8
M  V30 8 1 8 9
M  V30 9 1 9 10
M  V30 10 2 10 11
M  V30 11 1 11 12
M  V30 12 1 12 13
M  V30 13 2 13 14
M  V30 14 1 14 15
M  V30 15 2 15 16
M  V30 16 1 16 17
M  V30 17 1 17 18
M  V30 18 2 18 19
M  V30 19 1 18 20
M  V30 20 1 20 21
M  V30 21 1 21 22
M  V30 22 1 22 23
M  V30 23 1 23 24
M  V30 24 1 24 25
M  V30 25 1 24 26
M  V30 26 1 16 27
M  V30 27 2 27 28
M  V30 28 1 8 3
M  V30 29 1 28 10
M  V30 30 1 28 13
M  V30 31 1 26 20
M  V30 32 1 1 29
M  V30 33 1 1 30
M  V30 34 1 1 31
M  V30 35 1 4 32
M  V30 36 1 5 33
M  V30 37 1 6 34
M  V30 38 1 7 35
M  V30 39 1 9 36
M  V30 40 1 12 37
M  V30 41 1 14 38
M  V30 42 1 15 39
M  V30 43 1 17 40
M  V30 44 1 20 41
M  V30 45 1 21 42
M  V30 46 1 21 43
M  V30 47 1 22 44
M  V30 48 1 22 45
M  V30 49 1 23 46
M  V30 50 1 23 47
M  V30 51 1 24 48
M  V30 52 1 25 49
M  V30 53 1 25 50
M  V30 54 1 26 51
M  V30 55 1 26 52
M  V30 56 1 27 53
M  V30 END BOND
M  V30 END CTAB
M  END
>  <Dataset>  (793) 
ChEMBL_Kinases

>  <Ligand_Instance>  (793) 
nan

>  <PDB_ID>  (793) 
nan

>  <Standardized_SMILES>  (793) 
COc1ccccc1Nc1n[nH]c2ccc(NC(=O)C3CCCC(N)C3)cc12

>  <Name>  (793) 
nan

>  <Pocket>  (793) 
nan

>  <ATP_Site>  (793) 
nan

>  <Peripheral>  (793) 
nan

>  <Num_H_Atoms_ProtBoundConf>  (793) 
nan

>  <Num_Resolved_Atoms>  (793) 
nan

>  <Num_Not_Resolved_Atoms>  (793) 
nan

$$$$
CHEMBL4786894
     RDKit          3D

  0  0  0  0  0  0  0  0  0  0999 V3000
M  V30 BEGIN CTAB
M  V30 COUNTS 58 62 0 0 0
M  V30 BEGIN ATOM
M  V30 1 C 2.500755 -2.424973 5.878708 0
M  V30 2 O 2.756396 -2.643940 4.508095 0
M  V30 3 C 2.976055 -1.573578 3.661364 0
M  V30 4 C 2.938797 -0.301318 4.184422 0
M  V30 5 C 3.147108 0.801713 3.390887 0
M  V30 6 C 3.396260 0.603935 2.053989 0
M  V30 7 N 3.631914 1.540740 0.975575 0
M  V30 8 C 2.370107 1.804254 0.377692 0
M  V30 9 O 1.400497 1.200731 0.900691 0
M  V30 10 N 2.138546 2.666946 -0.724365 0
M  V30 11 C 0.928036 2.980215 -1.374350 0
M  V30 12 C 0.952271 3.844530 -2.443346 0
M  V30 13 C -0.194234 4.193153 -3.116313 0
M  V30 14 C -1.436855 3.706087 -2.769726 0
M  V30 15 C -1.514710 2.820266 -1.683625 0
M  V30 16 N -2.757446 2.313150 -1.311799 0
M  V30 17 C -3.163922 1.313250 -0.391170 0
M  V30 18 N -3.926473 1.653445 0.691842 0
M  V30 19 C -4.347220 0.759941 1.602292 0
M  V30 20 N -4.017386 -0.538835 1.468896 0
M  V30 21 C -3.274233 -0.973382 0.445702 0
M  V30 22 C -2.926558 -2.302083 0.305035 0
M  V30 23 C -2.155074 -2.758177 -0.740335 0
M  V30 24 C -1.745113 -4.138744 -0.956892 0
M  V30 25 C -1.540213 -4.660973 -2.227111 0
M  V30 26 N -1.170765 -5.960436 -2.011870 0
M  V30 27 N -1.162877 -6.175881 -0.689490 0
M  V30 28 C -0.799014 -7.512706 -0.196583 0
M  V30 29 C -1.507466 -5.093847 0.014435 0
M  V30 30 C -1.759781 -1.784260 -1.633517 0
M  V30 31 C -2.085495 -0.423765 -1.538592 0
M  V30 32 C -2.856232 -0.029722 -0.475624 0
M  V30 33 C -0.326444 2.523552 -1.069137 0
M  V30 34 C 3.438327 -0.666299 1.511239 0
M  V30 35 C 3.224708 -1.780718 2.326216 0
M  V30 36 H 1.483725 -2.001497 6.010463 0
M  V30 37 H 2.521403 -3.403507 6.430217 0
M  V30 38 H 3.303391 -1.754240 6.283117 0
M  V30 39 H 2.745692 -0.063046 5.234876 0
M  V30 40 H 3.148401 1.851083 3.634591 0
M  V30 41 H 4.462296 2.030174 0.568256 0
M  V30 42 H 3.018794 3.098307 -1.047732 0
M  V30 43 H 1.897152 4.289344 -2.800101 0
M  V30 44 H -0.110948 4.882848 -3.957273 0
M  V30 45 H -2.335055 3.982293 -3.300901 0
M  V30 46 H -3.632476 2.699267 -1.758877 0
M  V30 47 H -4.950426 1.010572 2.465273 0
M  V30 48 H -3.263039 -3.031098 1.032337 0
M  V30 49 H -1.619846 -4.259438 -3.228888 0
M  V30 50 H -1.637449 -8.226415 -0.307751 0
M  V30 51 H -0.467837 -7.407991 0.872414 0
M  V30 52 H 0.088477 -7.918061 -0.743068 0
M  V30 53 H -1.574325 -5.006380 1.086317 0
M  V30 54 H -1.146370 -2.091047 -2.481412 0
M  V30 55 H -1.727344 0.283370 -2.295079 0
M  V30 56 H -0.447864 1.830151 -0.231246 0
M  V30 57 H 3.619341 -0.986568 0.481843 0
M  V30 58 H 3.236647 -2.828245 1.996656 0
M  V30 END ATOM
M  V30 BEGIN BOND
M  V30 1 1 1 2
M  V30 2 1 2 3
M  V30 3 2 3 4
M  V30 4 1 4 5
M  V30 5 2 5 6
M  V30 6 1 6 7
M  V30 7 1 7 8
M  V30 8 2 8 9
M  V30 9 1 8 10
M  V30 10 1 10 11
M  V30 11 2 11 12
M  V30 12 1 12 13
M  V30 13 2 13 14
M  V30 14 1 14 15
M  V30 15 1 15 16
M  V30 16 1 16 17
M  V30 17 2 17 18
M  V30 18 1 18 19
M  V30 19 2 19 20
M  V30 20 1 20 21
M  V30 21 2 21 22
M  V30 22 1 22 23
M  V30 23 1 23 24
M  V30 24 1 24 25
M  V30 25 2 25 26
M  V30 26 1 26 27
M  V30 27 1 27 28
M  V30 28 1 27 29
M  V30 29 2 23 30
M  V30 30 1 30 31
M  V30 31 2 31 32
M  V30 32 2 15 33
M  V30 33 1 6 34
M  V30 34 2 34 35
M  V30 35 1 35 3
M  V30 36 1 33 11
M  V30 37 1 32 17
M  V30 38 1 32 21
M  V30 39 2 29 24
M  V30 40 1 1 36
M  V30 41 1 1 37
M  V30 42 1 1 38
M  V30 43 1 4 39
M  V30 44 1 5 40
M  V30 45 1 7 41
M  V30 46 1 10 42
M  V30 47 1 12 43
M  V30 48 1 13 44
M  V30 49 1 14 45
M  V30 50 1 16 46
M  V30 51 1 19 47
M  V30 52 1 22 48
M  V30 53 1 25 49
M  V30 54 1 28 50
M  V30 55 1 28 51
M  V30 56 1 28 52
M  V30 57 1 29 53
M  V30 58 1 30 54
M  V30 59 1 31 55
M  V30 60 1 33 56
M  V30 61 1 34 57
M  V30 62 1 35 58
M  V30 END BOND
M  V30 END CTAB
M  END
>  <Dataset>  (794) 
ChEMBL_Kinases

>  <Ligand_Instance>  (794) 
nan

>  <PDB_ID>  (794) 
nan

>  <Standardized_SMILES>  (794) 
COc1ccc(NC(=O)Nc2cccc(Nc3ncnc4cc(-c5cnn(C)c5)ccc34)c2)cc1

>  <Name>  (794) 
nan

>  <Pocket>  (794) 
nan

>  <ATP_Site>  (794) 
nan

>  <Peripheral>  (794) 
nan

>  <Num_H_Atoms_ProtBoundConf>  (794) 
nan

>  <Num_Resolved_Atoms>  (794) 
nan

>  <Num_Not_Resolved_Atoms>  (794) 
nan

$$$$
CHEMBL4167715
     RDKit          3D

  0  0  0  0  0  0  0  0  0  0999 V3000
M  V30 BEGIN CTAB
M  V30 COUNTS 49 53 0 0 0
M  V30 BEGIN ATOM
M  V30 1 N -0.737445 -2.085900 0.821811 0
M  V30 2 C -0.160635 -3.069220 0.526077 0
M  V30 3 C 0.522710 -4.280108 0.175187 0
M  V30 4 C 1.853261 -4.096961 -0.131830 0
M  V30 5 O 2.640333 -2.963096 -0.161285 0
M  V30 6 C 2.258674 -1.679867 0.125384 0
M  V30 7 C 1.779253 -0.909336 -0.939193 0
M  V30 8 C 1.395380 0.393756 -0.633024 0
M  V30 9 C 1.489249 0.882663 0.655785 0
M  V30 10 C 1.071097 2.257565 0.909995 0
M  V30 11 N 1.067301 2.944974 2.054942 0
M  V30 12 C 0.602488 4.204546 1.880828 0
M  V30 13 C 0.374500 5.327358 2.650339 0
M  V30 14 C -0.134935 6.494349 2.098013 0
M  V30 15 C -0.356638 7.652444 2.958815 0
M  V30 16 O -0.075714 7.550895 4.181451 0
M  V30 17 O -0.865562 8.819641 2.409092 0
M  V30 18 C -0.429587 6.558432 0.744210 0
M  V30 19 C -0.196888 5.432481 -0.007160 0
M  V30 20 C 0.311867 4.257132 0.527673 0
M  V30 21 N 0.598882 3.066132 -0.064446 0
M  V30 22 C 1.971166 0.070782 1.663124 0
M  V30 23 C 2.376783 -1.241538 1.448596 0
M  V30 24 N 2.568797 -5.206900 -0.476188 0
M  V30 25 C 1.964619 -6.426003 -0.505268 0
M  V30 26 S 2.833211 -7.923106 -0.945501 0
M  V30 27 N 0.654060 -6.618537 -0.204655 0
M  V30 28 C -0.059085 -5.509203 0.139026 0
M  V30 29 C -1.452152 -5.620784 0.472513 0
M  V30 30 C -2.144360 -5.047591 1.521764 0
M  V30 31 C -3.509885 -5.282734 1.672115 0
M  V30 32 C -4.198048 -6.082619 0.790304 0
M  V30 33 C -3.520071 -6.666761 -0.269339 0
M  V30 34 C -2.173926 -6.430910 -0.411866 0
M  V30 35 H 1.725818 -1.334350 -1.920561 0
M  V30 36 H 1.026117 0.973777 -1.475270 0
M  V30 37 H 0.622822 5.217564 3.697090 0
M  V30 38 H -1.111717 9.606785 2.990027 0
M  V30 39 H -0.828404 7.480512 0.325488 0
M  V30 40 H -0.437463 5.515700 -1.060106 0
M  V30 41 H 0.449202 2.896008 -1.095422 0
M  V30 42 H 2.051767 0.440741 2.685606 0
M  V30 43 H 2.755858 -1.907876 2.194028 0
M  V30 44 H 2.611949 -8.172158 -2.323301 0
M  V30 45 H -1.517077 -4.438514 2.156794 0
M  V30 46 H -3.940732 -4.786148 2.521731 0
M  V30 47 H -5.253829 -6.158743 1.055045 0
M  V30 48 H -4.125267 -7.269973 -0.904033 0
M  V30 49 H -1.754843 -6.942753 -1.278808 0
M  V30 END ATOM
M  V30 BEGIN BOND
M  V30 1 3 1 2
M  V30 2 1 2 3
M  V30 3 2 3 4
M  V30 4 1 4 5
M  V30 5 1 5 6
M  V30 6 2 6 7
M  V30 7 1 7 8
M  V30 8 2 8 9
M  V30 9 1 9 10
M  V30 10 2 10 11
M  V30 11 1 11 12
M  V30 12 2 12 13
M  V30 13 1 13 14
M  V30 14 1 14 15
M  V30 15 2 15 16
M  V30 16 1 15 17
M  V30 17 2 14 18
M  V30 18 1 18 19
M  V30 19 2 19 20
M  V30 20 1 20 21
M  V30 21 1 9 22
M  V30 22 2 22 23
M  V30 23 1 4 24
M  V30 24 2 24 25
M  V30 25 1 25 26
M  V30 26 1 25 27
M  V30 27 2 27 28
M  V30 28 1 28 29
M  V30 29 2 29 30
M  V30 30 1 30 31
M  V30 31 2 31 32
M  V30 32 1 32 33
M  V30 33 2 33 34
M  V30 34 1 28 3
M  V30 35 1 34 29
M  V30 36 1 23 6
M  V30 37 1 21 10
M  V30 38 1 20 12
M  V30 39 1 7 35
M  V30 40 1 8 36
M  V30 41 1 13 37
M  V30 42 1 17 38
M  V30 43 1 18 39
M  V30 44 1 19 40
M  V30 45 1 21 41
M  V30 46 1 22 42
M  V30 47 1 23 43
M  V30 48 1 26 44
M  V30 49 1 30 45
M  V30 50 1 31 46
M  V30 51 1 32 47
M  V30 52 1 33 48
M  V30 53 1 34 49
M  V30 END BOND
M  V30 END CTAB
M  END
>  <Dataset>  (795) 
ChEMBL_Kinases

>  <Ligand_Instance>  (795) 
nan

>  <PDB_ID>  (795) 
nan

>  <Standardized_SMILES>  (795) 
N#Cc1c(Oc2ccc(-c3nc4cc(C(=O)O)ccc4[nH]3)cc2)nc(S)nc1-c1ccccc1

>  <Name>  (795) 
nan

>  <Pocket>  (795) 
nan

>  <ATP_Site>  (795) 
nan

>  <Peripheral>  (795) 
nan

>  <Num_H_Atoms_ProtBoundConf>  (795) 
nan

>  <Num_Resolved_Atoms>  (795) 
nan

>  <Num_Not_Resolved_Atoms>  (795) 
nan

$$$$
CHEMBL4786897
     RDKit          3D

  0  0  0  0  0  0  0  0  0  0999 V3000
M  V30 BEGIN CTAB
M  V30 COUNTS 47 51 0 0 0
M  V30 BEGIN ATOM
M  V30 1 C -2.309912 0.045124 5.795567 0
M  V30 2 O -2.784828 -0.484804 4.551386 0
M  V30 3 C -1.861067 -0.645321 3.527618 0
M  V30 4 C -0.508103 -0.347953 3.566088 0
M  V30 5 C 0.288045 -0.567186 2.450510 0
M  V30 6 C 1.723806 -0.225914 2.565692 0
M  V30 7 C 2.624538 -0.499928 3.581317 0
M  V30 8 N 3.813322 0.016764 3.220962 0
M  V30 9 C 3.769883 0.624714 2.020509 0
M  V30 10 N 4.698487 1.263456 1.283930 0
M  V30 11 C 4.381629 1.786952 0.100068 0
M  V30 12 C 3.093567 1.687584 -0.400914 0
M  V30 13 C 2.743675 2.248625 -1.676699 0
M  V30 14 N 1.410864 2.125732 -2.156528 0
M  V30 15 O 3.628556 2.848445 -2.362422 0
M  V30 16 C 2.163636 1.029888 0.371683 0
M  V30 17 C 2.459059 0.470637 1.613090 0
M  V30 18 C -0.272773 -1.083295 1.300094 0
M  V30 19 C -1.599511 -1.366897 1.283790 0
M  V30 20 C -2.072281 -1.882712 0.096478 0
M  V30 21 C -1.362219 -2.133677 -1.148253 0
M  V30 22 C -0.556249 -1.313550 -1.909918 0
M  V30 23 C 0.027775 -1.794584 -3.063045 0
M  V30 24 C -0.157141 -3.077710 -3.501527 0
M  V30 25 N -0.933393 -3.876844 -2.774109 0
M  V30 26 C -1.526506 -3.435625 -1.628931 0
M  V30 27 C -3.437070 -2.193029 0.049371 0
M  V30 28 C -4.254272 -1.993209 1.124136 0
M  V30 29 N -3.745362 -1.487210 2.258167 0
M  V30 30 C -2.434789 -1.169489 2.361234 0
M  V30 31 H -3.143485 -0.130748 6.508115 0
M  V30 32 H -2.120607 1.133795 5.681409 0
M  V30 33 H -1.376865 -0.449839 6.128830 0
M  V30 34 H -0.162862 0.052832 4.513935 0
M  V30 35 H 2.371593 -1.036471 4.484206 0
M  V30 36 H 4.719330 -0.018199 3.776011 0
M  V30 37 H 5.091022 2.319811 -0.549506 0
M  V30 38 H 0.601622 2.659241 -2.523588 0
M  V30 39 H 0.891049 3.001746 -2.459221 0
M  V30 40 H 1.168698 0.960081 -0.026536 0
M  V30 41 H 0.382524 -1.247749 0.458182 0
M  V30 42 H -0.461140 -0.313020 -1.513265 0
M  V30 43 H 0.639496 -1.070381 -3.583586 0
M  V30 44 H 0.349440 -3.351376 -4.421331 0
M  V30 45 H -2.125152 -4.195829 -1.148545 0
M  V30 46 H -3.919385 -2.605851 -0.834759 0
M  V30 47 H -5.326558 -2.221297 1.131900 0
M  V30 END ATOM
M  V30 BEGIN BOND
M  V30 1 1 1 2
M  V30 2 1 2 3
M  V30 3 2 3 4
M  V30 4 1 4 5
M  V30 5 1 5 6
M  V30 6 2 6 7
M  V30 7 1 7 8
M  V30 8 1 8 9
M  V30 9 2 9 10
M  V30 10 1 10 11
M  V30 11 2 11 12
M  V30 12 1 12 13
M  V30 13 1 13 14
M  V30 14 2 13 15
M  V30 15 1 12 16
M  V30 16 2 16 17
M  V30 17 2 5 18
M  V30 18 1 18 19
M  V30 19 2 19 20
M  V30 20 1 20 21
M  V30 21 2 21 22
M  V30 22 1 22 23
M  V30 23 2 23 24
M  V30 24 1 24 25
M  V30 25 2 25 26
M  V30 26 1 20 27
M  V30 27 2 27 28
M  V30 28 1 28 29
M  V30 29 2 29 30
M  V30 30 1 30 3
M  V30 31 1 17 6
M  V30 32 1 30 19
M  V30 33 1 17 9
M  V30 34 1 26 21
M  V30 35 1 1 31
M  V30 36 1 1 32
M  V30 37 1 1 33
M  V30 38 1 4 34
M  V30 39 1 7 35
M  V30 40 1 8 36
M  V30 41 1 11 37
M  V30 42 1 14 38
M  V30 43 1 14 39
M  V30 44 1 16 40
M  V30 45 1 18 41
M  V30 46 1 22 42
M  V30 47 1 23 43
M  V30 48 1 24 44
M  V30 49 1 26 45
M  V30 50 1 27 46
M  V30 51 1 28 47
M  V30 END BOND
M  V30 END CTAB
M  END
>  <Dataset>  (796) 
ChEMBL_Kinases

>  <Ligand_Instance>  (796) 
nan

>  <PDB_ID>  (796) 
nan

>  <Standardized_SMILES>  (796) 
COc1cc(-c2c[nH]c3ncc(C(N)=O)cc23)cc2c(-c3cccnc3)ccnc12

>  <Name>  (796) 
nan

>  <Pocket>  (796) 
nan

>  <ATP_Site>  (796) 
nan

>  <Peripheral>  (796) 
nan

>  <Num_H_Atoms_ProtBoundConf>  (796) 
nan

>  <Num_Resolved_Atoms>  (796) 
nan

>  <Num_Not_Resolved_Atoms>  (796) 
nan

$$$$
CHEMBL4786913
     RDKit          3D

  0  0  0  0  0  0  0  0  0  0999 V3000
M  V30 BEGIN CTAB
M  V30 COUNTS 73 76 0 0 0
M  V30 BEGIN ATOM
M  V30 1 C 2.528303 -1.254281 5.505306 0
M  V30 2 C 1.891270 -1.029309 4.201088 0
M  V30 3 N 0.599335 -1.335132 3.972061 0
M  V30 4 C 0.377591 -1.011037 2.718373 0
M  V30 5 C -0.846798 -1.169747 1.927113 0
M  V30 6 C -1.567440 -2.257093 1.755401 0
M  V30 7 C -1.251206 -3.550371 2.348851 0
M  V30 8 O -0.274520 -3.831734 3.085326 0
M  V30 9 N -2.286685 -4.417959 1.909724 0
M  V30 10 C -3.179457 -3.675223 1.091141 0
M  V30 11 C -4.331377 -4.065485 0.431190 0
M  V30 12 C -5.079928 -3.193746 -0.329946 0
M  V30 13 C -4.697101 -1.859973 -0.465687 0
M  V30 14 C -5.461108 -0.912252 -1.268529 0
M  V30 15 O -5.123212 0.318114 -1.291079 0
M  V30 16 N -6.581298 -1.334419 -2.031166 0
M  V30 17 C -7.419924 -0.505577 -2.860282 0 CFG=2
M  V30 18 C -8.884169 -0.728360 -2.703603 0
M  V30 19 C -7.072886 -0.842618 -4.296786 0
M  V30 20 C -8.010587 -1.026069 -5.288690 0
M  V30 21 C -7.520485 -1.326938 -6.536905 0
M  V30 22 C -6.190054 -1.454767 -6.859302 0
M  V30 23 C -5.241236 -1.266240 -5.847007 0
M  V30 24 C -5.740115 -0.960625 -4.577141 0
M  V30 25 C -3.546864 -1.488416 0.199012 0
M  V30 26 C -2.792270 -2.359254 0.963533 0
M  V30 27 C 1.513775 -0.496781 2.135708 0
M  V30 28 C 1.603410 -0.022828 0.703284 0
M  V30 29 C 2.523650 -0.503466 3.104376 0
M  V30 30 N 3.810921 -0.048342 2.805286 0
M  V30 31 C 5.036060 0.135079 3.456549 0
M  V30 32 O 5.035477 -0.175861 4.649230 0
M  V30 33 C 6.283192 0.638917 2.898028 0
M  V30 34 C 7.427572 0.734120 3.782839 0
M  V30 35 N 8.346346 0.794512 4.478108 0
M  V30 36 C 6.538695 1.036360 1.650072 0
M  V30 37 C 7.824795 1.544507 1.113943 0
M  V30 38 C 8.862169 0.456517 0.925752 0
M  V30 39 C 7.547010 2.124713 -0.274201 0
M  V30 40 C 8.308079 2.677122 1.959784 0
M  V30 41 H 1.798589 -1.748487 6.230520 0
M  V30 42 H 3.356118 -2.013481 5.480116 0
M  V30 43 H 2.770189 -0.312447 6.011071 0
M  V30 44 H -0.073126 -1.732683 4.671390 0
M  V30 45 H -1.199877 -0.262865 1.416503 0
M  V30 46 H -2.338338 -5.434672 2.174429 0
M  V30 47 H -4.645189 -5.111421 0.525907 0
M  V30 48 H -5.958931 -3.569418 -0.810267 0
M  V30 49 H -6.918573 -2.320003 -2.067972 0
M  V30 50 H -7.199208 0.574090 -2.783386 0
M  V30 51 H -9.240164 -1.677839 -3.159820 0
M  V30 52 H -9.402293 0.078416 -3.275019 0
M  V30 53 H -9.149682 -0.652299 -1.629329 0
M  V30 54 H -9.039829 -0.928204 -5.040804 0
M  V30 55 H -8.211067 -1.483407 -7.357589 0
M  V30 56 H -5.855474 -1.694719 -7.857469 0
M  V30 57 H -4.203362 -1.369972 -6.115888 0
M  V30 58 H -4.922313 -0.834638 -3.870707 0
M  V30 59 H -3.191642 -0.450267 0.133571 0
M  V30 60 H 0.609852 0.281821 0.355784 0
M  V30 61 H 2.135324 -0.738381 0.061187 0
M  V30 62 H 2.221196 0.921564 0.746808 0
M  V30 63 H 4.004764 0.275852 1.807295 0
M  V30 64 H 5.678484 0.962013 0.983106 0
M  V30 65 H 8.818216 -0.338976 1.678285 0
M  V30 66 H 9.858277 0.976245 0.884485 0
M  V30 67 H 8.756103 -0.037052 -0.061846 0
M  V30 68 H 6.736762 1.504445 -0.755872 0
M  V30 69 H 7.224305 3.184602 -0.217501 0
M  V30 70 H 8.482845 2.076642 -0.837149 0
M  V30 71 H 8.463153 3.630739 1.377592 0
M  V30 72 H 7.605901 2.964537 2.767406 0
M  V30 73 H 9.310794 2.418582 2.357540 0
M  V30 END ATOM
M  V30 BEGIN BOND
M  V30 1 1 1 2
M  V30 2 1 2 3
M  V30 3 1 3 4
M  V30 4 1 4 5
M  V30 5 2 5 6
M  V30 6 1 6 7
M  V30 7 2 7 8
M  V30 8 1 7 9
M  V30 9 1 9 10
M  V30 10 2 10 11
M  V30 11 1 11 12
M  V30 12 2 12 13
M  V30 13 1 13 14
M  V30 14 2 14 15
M  V30 15 1 14 16
M  V30 16 1 16 17
M  V30 17 1 17 18
M  V30 18 1 17 19
M  V30 19 2 19 20
M  V30 20 1 20 21
M  V30 21 2 21 22
M  V30 22 1 22 23
M  V30 23 2 23 24
M  V30 24 1 13 25
M  V30 25 2 25 26
M  V30 26 2 4 27
M  V30 27 1 27 28
M  V30 28 1 27 29
M  V30 29 1 29 30
M  V30 30 1 30 31
M  V30 31 2 31 32
M  V30 32 1 31 33
M  V30 33 1 33 34
M  V30 34 3 34 35
M  V30 35 2 33 36
M  V30 36 1 36 37
M  V30 37 1 37 38
M  V30 38 1 37 39
M  V30 39 1 37 40
M  V30 40 2 29 2
M  V30 41 1 26 6
M  V30 42 1 26 10
M  V30 43 1 24 19
M  V30 44 1 1 41
M  V30 45 1 1 42
M  V30 46 1 1 43
M  V30 47 1 3 44
M  V30 48 1 5 45
M  V30 49 1 9 46
M  V30 50 1 11 47
M  V30 51 1 12 48
M  V30 52 1 16 49
M  V30 53 1 17 50 CFG=1
M  V30 54 1 18 51
M  V30 55 1 18 52
M  V30 56 1 18 53
M  V30 57 1 20 54
M  V30 58 1 21 55
M  V30 59 1 22 56
M  V30 60 1 23 57
M  V30 61 1 24 58
M  V30 62 1 25 59
M  V30 63 1 28 60
M  V30 64 1 28 61
M  V30 65 1 28 62
M  V30 66 1 30 63
M  V30 67 1 36 64
M  V30 68 1 38 65
M  V30 69 1 38 66
M  V30 70 1 38 67
M  V30 71 1 39 68
M  V30 72 1 39 69
M  V30 73 1 39 70
M  V30 74 1 40 71
M  V30 75 1 40 72
M  V30 76 1 40 73
M  V30 END BOND
M  V30 END CTAB
M  END
>  <Dataset>  (797) 
ChEMBL_Kinases

>  <Ligand_Instance>  (797) 
nan

>  <PDB_ID>  (797) 
nan

>  <Standardized_SMILES>  (797) 
Cc1[nH]c(/C=C2\C(=O)Nc3ccc(C(=O)N[C@H](C)c4ccccc4)cc32)c(C)c1NC(=O)/C(C#N)=C/C(C)(C)C

>  <Name>  (797) 
nan

>  <Pocket>  (797) 
nan

>  <ATP_Site>  (797) 
nan

>  <Peripheral>  (797) 
nan

>  <Num_H_Atoms_ProtBoundConf>  (797) 
nan

>  <Num_Resolved_Atoms>  (797) 
nan

>  <Num_Not_Resolved_Atoms>  (797) 
nan

$$$$
CHEMBL4786926
     RDKit          3D

  0  0  0  0  0  0  0  0  0  0999 V3000
M  V30 BEGIN CTAB
M  V30 COUNTS 52 55 0 0 0
M  V30 BEGIN ATOM
M  V30 1 C -0.769172 -4.650686 -3.040273 0
M  V30 2 C 0.643233 -4.405098 -2.770077 0
M  V30 3 C 1.806356 -4.223412 -2.554330 0
M  V30 4 C 3.184078 -4.004374 -2.274417 0
M  V30 5 O 3.923786 -4.996650 -2.119563 0
M  V30 6 N 3.917019 -2.799334 -2.130285 0
M  V30 7 C 5.327624 -2.933581 -1.847408 0
M  V30 8 C 5.665740 -2.132348 -0.636995 0
M  V30 9 C 4.634208 -1.199307 -0.185574 0
M  V30 10 C 3.578402 -0.781534 -0.864992 0
M  V30 11 C 2.635193 0.156525 -0.274545 0
M  V30 12 C 1.544493 0.662242 -0.938121 0
M  V30 13 C 0.655823 1.542525 -0.357655 0
M  V30 14 C 0.846948 1.947898 0.942930 0
M  V30 15 C 0.009360 2.886607 1.771364 0
M  V30 16 C -1.099975 2.147909 2.420578 0
M  V30 17 O -1.728625 1.761420 1.392416 0
M  V30 18 N -1.474949 1.870375 3.735137 0
M  V30 19 C -2.631532 1.113822 4.034536 0
M  V30 20 C -3.607617 0.619803 3.212021 0
M  V30 21 C -4.541637 -0.092279 3.959788 0
M  V30 22 C -5.741271 -0.740136 3.354479 0
M  V30 23 C -6.821057 0.188779 2.845622 0
M  V30 24 C -6.012725 -0.646041 1.916920 0
M  V30 25 N -4.094526 -0.003394 5.218321 0
M  V30 26 N -2.963828 0.710973 5.261843 0
M  V30 27 C 1.971646 1.405142 1.576594 0
M  V30 28 N 2.861839 0.532984 1.018032 0
M  V30 29 C 3.504610 -1.388621 -2.216444 0
M  V30 30 H -1.308869 -4.749907 -2.067178 0
M  V30 31 H -1.250688 -3.803401 -3.578110 0
M  V30 32 H -0.916317 -5.566462 -3.655267 0
M  V30 33 H 5.844770 -2.537916 -2.769009 0
M  V30 34 H 5.577041 -4.000228 -1.705841 0
M  V30 35 H 5.962624 -2.827160 0.191404 0
M  V30 36 H 6.638026 -1.603372 -0.881987 0
M  V30 37 H 4.786968 -0.824330 0.835846 0
M  V30 38 H 1.356562 0.366167 -1.966747 0
M  V30 39 H -0.213329 1.969425 -0.830200 0
M  V30 40 H -0.334902 3.766760 1.184929 0
M  V30 41 H 0.641773 3.296744 2.581638 0
M  V30 42 H -0.797283 2.292946 4.393604 0
M  V30 43 H -3.663947 0.750083 2.143799 0
M  V30 44 H -6.162541 -1.596120 3.909370 0
M  V30 45 H -7.877225 -0.075999 2.992709 0
M  V30 46 H -6.605957 1.256908 2.974871 0
M  V30 47 H -6.581930 -1.412542 1.356364 0
M  V30 48 H -5.248901 -0.159413 1.279827 0
M  V30 49 H -4.612639 -0.461510 6.024472 0
M  V30 50 H 2.189144 1.680562 2.608945 0
M  V30 51 H 2.470774 -1.325775 -2.627325 0
M  V30 52 H 4.247745 -0.882210 -2.862331 0
M  V30 END ATOM
M  V30 BEGIN BOND
M  V30 1 1 1 2
M  V30 2 3 2 3
M  V30 3 1 3 4
M  V30 4 2 4 5
M  V30 5 1 4 6
M  V30 6 1 6 7
M  V30 7 1 7 8
M  V30 8 1 8 9
M  V30 9 2 9 10
M  V30 10 1 10 11
M  V30 11 2 11 12
M  V30 12 1 12 13
M  V30 13 2 13 14
M  V30 14 1 14 15
M  V30 15 1 15 16
M  V30 16 2 16 17
M  V30 17 1 16 18
M  V30 18 1 18 19
M  V30 19 1 19 20
M  V30 20 2 20 21
M  V30 21 1 21 22
M  V30 22 1 22 23
M  V30 23 1 23 24
M  V30 24 1 21 25
M  V30 25 1 25 26
M  V30 26 1 14 27
M  V30 27 2 27 28
M  V30 28 1 10 29
M  V30 29 1 29 6
M  V30 30 1 28 11
M  V30 31 2 26 19
M  V30 32 1 24 22
M  V30 33 1 1 30
M  V30 34 1 1 31
M  V30 35 1 1 32
M  V30 36 1 7 33
M  V30 37 1 7 34
M  V30 38 1 8 35
M  V30 39 1 8 36
M  V30 40 1 9 37
M  V30 41 1 12 38
M  V30 42 1 13 39
M  V30 43 1 15 40
M  V30 44 1 15 41
M  V30 45 1 18 42
M  V30 46 1 20 43
M  V30 47 1 22 44
M  V30 48 1 23 45
M  V30 49 1 23 46
M  V30 50 1 24 47
M  V30 51 1 24 48
M  V30 52 1 25 49
M  V30 53 1 27 50
M  V30 54 1 29 51
M  V30 55 1 29 52
M  V30 END BOND
M  V30 END CTAB
M  END
>  <Dataset>  (798) 
ChEMBL_Kinases

>  <Ligand_Instance>  (798) 
nan

>  <PDB_ID>  (798) 
nan

>  <Standardized_SMILES>  (798) 
CC#CC(=O)N1CCC=C(c2ccc(CC(=O)Nc3cc(C4CC4)[nH]n3)cn2)C1

>  <Name>  (798) 
nan

>  <Pocket>  (798) 
nan

>  <ATP_Site>  (798) 
nan

>  <Peripheral>  (798) 
nan

>  <Num_H_Atoms_ProtBoundConf>  (798) 
nan

>  <Num_Resolved_Atoms>  (798) 
nan

>  <Num_Not_Resolved_Atoms>  (798) 
nan

$$$$
CHEMBL4167423
     RDKit          3D

  0  0  0  0  0  0  0  0  0  0999 V3000
M  V30 BEGIN CTAB
M  V30 COUNTS 56 60 0 0 0
M  V30 BEGIN ATOM
M  V30 1 O 0.717066 -5.607241 -0.271468 0
M  V30 2 C 1.406962 -4.591901 -0.057422 0
M  V30 3 N 2.804369 -4.483580 0.135392 0
M  V30 4 C 3.135654 -3.117980 0.349624 0
M  V30 5 C 4.323735 -2.457513 0.584478 0
M  V30 6 C 4.452160 -1.088936 0.772013 0
M  V30 7 C 3.288049 -0.346339 0.715638 0
M  V30 8 C 3.418191 1.094682 0.911088 0
M  V30 9 O 4.562028 1.575900 1.116891 0
M  V30 10 N 2.331092 2.011556 0.886041 0
M  V30 11 C 2.546597 3.409507 1.086667 0 CFG=2
M  V30 12 C 1.776987 3.956285 2.278975 0
M  V30 13 O 2.134396 3.333635 3.463746 0
M  V30 14 C 2.014850 4.145080 -0.090786 0
M  V30 15 C 2.679034 5.170894 -0.736069 0
M  V30 16 C 2.118007 5.805923 -1.822393 0
M  V30 17 C 0.883561 5.461240 -2.320037 0
M  V30 18 C 0.215099 4.433654 -1.675817 0
M  V30 19 C 0.773128 3.785917 -0.577993 0
M  V30 20 C 2.092145 -0.967848 0.484906 0
M  V30 21 C 2.002121 -2.333482 0.302665 0
M  V30 22 C 0.883065 -3.235043 0.045324 0
M  V30 23 C -0.391474 -2.919104 -0.093464 0
M  V30 24 C -1.535039 -3.776771 -0.370599 0
M  V30 25 C -1.911520 -4.787937 -1.227786 0
M  V30 26 N -3.153613 -5.212223 -0.940324 0
M  V30 27 C -3.609279 -4.481549 0.112208 0
M  V30 28 C -4.934092 -4.679646 0.690199 0
M  V30 29 C -5.820509 -5.621544 0.209655 0
M  V30 30 C -7.050789 -5.729035 0.826453 0
M  V30 31 C -7.433588 -4.933006 1.905654 0
M  V30 32 C -6.543603 -4.003974 2.370123 0
M  V30 33 C -5.287561 -3.868577 1.768154 0
M  V30 34 N -2.630909 -3.631713 0.437059 0
M  V30 35 H 3.428545 -5.307971 0.111537 0
M  V30 36 H 5.220198 -3.095816 0.620060 0
M  V30 37 H 5.427168 -0.672008 0.948727 0
M  V30 38 H 1.371255 1.637791 0.717823 0
M  V30 39 H 3.619997 3.631031 1.254142 0
M  V30 40 H 0.693270 3.868652 2.127949 0
M  V30 41 H 2.011811 5.036003 2.340967 0
M  V30 42 H 3.099881 3.144572 3.525645 0
M  V30 43 H 3.662609 5.456800 -0.352047 0
M  V30 44 H 2.661909 6.604924 -2.306150 0
M  V30 45 H 0.457030 5.966175 -3.170410 0
M  V30 46 H -0.754594 4.189048 -2.095482 0
M  V30 47 H 0.147372 3.009112 -0.176180 0
M  V30 48 H 1.182341 -0.383219 0.441796 0
M  V30 49 H -0.588881 -1.835803 0.019855 0
M  V30 50 H -1.226694 -5.105398 -1.997504 0
M  V30 51 H -5.541717 -6.242014 -0.619699 0
M  V30 52 H -7.787116 -6.463539 0.478351 0
M  V30 53 H -8.419083 -5.067954 2.347043 0
M  V30 54 H -6.848850 -3.387305 3.211622 0
M  V30 55 H -4.635247 -3.113642 2.188079 0
M  V30 56 H -2.814020 -2.984631 1.237926 0
M  V30 END ATOM
M  V30 BEGIN BOND
M  V30 1 2 1 2
M  V30 2 1 2 3
M  V30 3 1 3 4
M  V30 4 2 4 5
M  V30 5 1 5 6
M  V30 6 2 6 7
M  V30 7 1 7 8
M  V30 8 2 8 9
M  V30 9 1 8 10
M  V30 10 1 10 11
M  V30 11 1 11 12
M  V30 12 1 12 13
M  V30 13 1 11 14
M  V30 14 2 14 15
M  V30 15 1 15 16
M  V30 16 2 16 17
M  V30 17 1 17 18
M  V30 18 2 18 19
M  V30 19 1 7 20
M  V30 20 2 20 21
M  V30 21 1 21 22
M  V30 22 2 22 23
M  V30 23 1 23 24
M  V30 24 2 24 25
M  V30 25 1 25 26
M  V30 26 2 26 27
M  V30 27 1 27 28
M  V30 28 2 28 29
M  V30 29 1 29 30
M  V30 30 2 30 31
M  V30 31 1 31 32
M  V30 32 2 32 33
M  V30 33 1 27 34
M  V30 34 1 22 2
M  V30 35 1 34 24
M  V30 36 1 21 4
M  V30 37 1 33 28
M  V30 38 1 19 14
M  V30 39 1 3 35
M  V30 40 1 5 36
M  V30 41 1 6 37
M  V30 42 1 10 38
M  V30 43 1 11 39 CFG=1
M  V30 44 1 12 40
M  V30 45 1 12 41
M  V30 46 1 13 42
M  V30 47 1 15 43
M  V30 48 1 16 44
M  V30 49 1 17 45
M  V30 50 1 18 46
M  V30 51 1 19 47
M  V30 52 1 20 48
M  V30 53 1 23 49
M  V30 54 1 25 50
M  V30 55 1 29 51
M  V30 56 1 30 52
M  V30 57 1 31 53
M  V30 58 1 32 54
M  V30 59 1 33 55
M  V30 60 1 34 56
M  V30 END BOND
M  V30 END CTAB
M  END
>  <Dataset>  (799) 
ChEMBL_Kinases

>  <Ligand_Instance>  (799) 
nan

>  <PDB_ID>  (799) 
nan

>  <Standardized_SMILES>  (799) 
O=C1Nc2ccc(C(=O)N[C@H](CO)c3ccccc3)cc2/C1=C/c1cnc(-c2ccccc2)[nH]1

>  <Name>  (799) 
nan

>  <Pocket>  (799) 
nan

>  <ATP_Site>  (799) 
nan

>  <Peripheral>  (799) 
nan

>  <Num_H_Atoms_ProtBoundConf>  (799) 
nan

>  <Num_Resolved_Atoms>  (799) 
nan

>  <Num_Not_Resolved_Atoms>  (799) 
nan

$$$$
CHEMBL4167414
     RDKit          3D

  0  0  0  0  0  0  0  0  0  0999 V3000
M  V30 BEGIN CTAB
M  V30 COUNTS 63 68 0 0 0
M  V30 BEGIN ATOM
M  V30 1 C -0.791293 -2.665073 -0.423177 0
M  V30 2 C -0.629040 -1.875608 0.832941 0 CFG=2
M  V30 3 C -1.378382 -0.594677 0.796220 0
M  V30 4 C -0.876302 0.269151 -0.314402 0
M  V30 5 C 0.597915 0.560011 -0.129923 0 CFG=1
M  V30 6 C 1.441053 -0.670611 0.027846 0 CFG=1
M  V30 7 C 2.797653 -0.228962 0.537084 0
M  V30 8 C 3.280274 0.993607 -0.160284 0
M  V30 9 C 2.543515 1.762171 -0.956012 0
M  V30 10 C 3.249812 2.927109 -1.535842 0
M  V30 11 C 2.333057 4.094557 -1.796778 0 CFG=1
M  V30 12 O 2.992031 4.929203 -2.701017 0
M  V30 13 C 1.042969 3.587287 -2.357036 0
M  V30 14 C 0.370269 2.753654 -1.258521 0
M  V30 15 C 1.126688 1.448864 -1.221605 0 CFG=2
M  V30 16 C 0.911768 0.780489 -2.549986 0
M  V30 17 C 0.847797 -1.526244 1.079089 0 CFG=2
M  V30 18 C 1.418027 -2.913650 1.206408 0
M  V30 19 C 0.317425 -3.664663 1.968702 0
M  V30 20 C -0.818715 -2.682677 2.090638 0 CFG=2
M  V30 21 C -2.130475 -3.236762 2.321310 0
M  V30 22 C -2.803753 -4.151498 1.570687 0
M  V30 23 C -4.064210 -4.659776 1.822003 0
M  V30 24 C -4.726791 -4.199525 2.954946 0
M  V30 25 C -5.954726 -4.455086 3.529460 0
M  V30 26 N -6.036918 -3.691268 4.642368 0
M  V30 27 N -4.937047 -2.977154 4.795347 0
M  V30 28 C -4.106847 -3.271141 3.764700 0
M  V30 29 C -2.852937 -2.814721 3.446913 0
M  V30 30 H -1.865653 -2.637764 -0.713127 0
M  V30 31 H -0.346943 -3.660009 -0.369924 0
M  V30 32 H -0.265264 -2.143082 -1.251059 0
M  V30 33 H -2.467871 -0.761131 0.616614 0
M  V30 34 H -1.235895 -0.049930 1.750083 0
M  V30 35 H -1.113099 -0.118964 -1.321457 0
M  V30 36 H -1.403438 1.246260 -0.219552 0
M  V30 37 H 0.672052 1.142697 0.817829 0
M  V30 38 H 1.634074 -1.190669 -0.930624 0
M  V30 39 H 3.497516 -1.082113 0.340367 0
M  V30 40 H 2.695867 -0.066406 1.630576 0
M  V30 41 H 4.335526 1.162364 0.083067 0
M  V30 42 H 3.762313 2.609932 -2.460512 0
M  V30 43 H 4.031366 3.309334 -0.832583 0
M  V30 44 H 2.110901 4.677333 -0.893717 0
M  V30 45 H 2.667146 4.870760 -3.615037 0
M  V30 46 H 0.377965 4.362983 -2.762256 0
M  V30 47 H 1.322615 2.937806 -3.234549 0
M  V30 48 H 0.439136 3.342286 -0.336289 0
M  V30 49 H -0.693441 2.601226 -1.568692 0
M  V30 50 H 1.861946 0.922612 -3.124126 0
M  V30 51 H 0.631226 -0.290191 -2.484827 0
M  V30 52 H 0.099716 1.263223 -3.163862 0
M  V30 53 H 0.896230 -1.021761 2.041761 0
M  V30 54 H 1.637128 -3.357742 0.229109 0
M  V30 55 H 2.324710 -2.844500 1.822131 0
M  V30 56 H 0.100047 -4.566478 1.400611 0
M  V30 57 H 0.711057 -3.978263 2.955571 0
M  V30 58 H -0.506665 -1.983503 2.924712 0
M  V30 59 H -2.311272 -4.527656 0.684889 0
M  V30 60 H -4.538811 -5.388000 1.178074 0
M  V30 61 H -6.701388 -5.148352 3.138763 0
M  V30 62 H -4.771985 -2.314910 5.582027 0
M  V30 63 H -2.405097 -2.076965 4.124224 0
M  V30 END ATOM
M  V30 BEGIN BOND
M  V30 1 1 2 1 CFG=3
M  V30 2 1 2 3
M  V30 3 1 3 4
M  V30 4 1 4 5
M  V30 5 1 5 6
M  V30 6 1 6 7
M  V30 7 1 7 8
M  V30 8 2 8 9
M  V30 9 1 9 10
M  V30 10 1 10 11
M  V30 11 1 11 12
M  V30 12 1 11 13
M  V30 13 1 13 14
M  V30 14 1 14 15
M  V30 15 1 15 16 CFG=3
M  V30 16 1 6 17
M  V30 17 1 17 18
M  V30 18 1 18 19
M  V30 19 1 19 20
M  V30 20 1 20 21
M  V30 21 2 21 22
M  V30 22 1 22 23
M  V30 23 2 23 24
M  V30 24 1 24 25
M  V30 25 2 25 26
M  V30 26 1 26 27
M  V30 27 1 27 28
M  V30 28 2 28 29
M  V30 29 1 17 2
M  V30 30 1 29 21
M  V30 31 1 20 2
M  V30 32 1 28 24
M  V30 33 1 15 5
M  V30 34 1 15 9
M  V30 35 1 1 30
M  V30 36 1 1 31
M  V30 37 1 1 32
M  V30 38 1 3 33
M  V30 39 1 3 34
M  V30 40 1 4 35
M  V30 41 1 4 36
M  V30 42 1 5 37 CFG=1
M  V30 43 1 6 38 CFG=3
M  V30 44 1 7 39
M  V30 45 1 7 40
M  V30 46 1 8 41
M  V30 47 1 10 42
M  V30 48 1 10 43
M  V30 49 1 11 44 CFG=1
M  V30 50 1 12 45
M  V30 51 1 13 46
M  V30 52 1 13 47
M  V30 53 1 14 48
M  V30 54 1 14 49
M  V30 55 1 16 50
M  V30 56 1 16 51
M  V30 57 1 16 52
M  V30 58 1 17 53 CFG=1
M  V30 59 1 18 54
M  V30 60 1 18 55
M  V30 61 1 19 56
M  V30 62 1 19 57
M  V30 63 1 20 58 CFG=1
M  V30 64 1 22 59
M  V30 65 1 23 60
M  V30 66 1 25 61
M  V30 67 1 27 62
M  V30 68 1 29 63
M  V30 END BOND
M  V30 END CTAB
M  END
>  <Dataset>  (800) 
ChEMBL_Kinases

>  <Ligand_Instance>  (800) 
nan

>  <PDB_ID>  (800) 
nan

>  <Standardized_SMILES>  (800) 
C[C@]12CC[C@H]3[C@@H](CC=C4C[C@@H](O)CC[C@@]43C)[C@@H]1CC[C@@H]2c1ccc2cn[nH]c2c1

>  <Name>  (800) 
nan

>  <Pocket>  (800) 
nan

>  <ATP_Site>  (800) 
nan

>  <Peripheral>  (800) 
nan

>  <Num_H_Atoms_ProtBoundConf>  (800) 
nan

>  <Num_Resolved_Atoms>  (800) 
nan

>  <Num_Not_Resolved_Atoms>  (800) 
nan

$$$$
CHEMBL4167344
     RDKit          3D

  0  0  0  0  0  0  0  0  0  0999 V3000
M  V30 BEGIN CTAB
M  V30 COUNTS 63 67 0 0 0
M  V30 BEGIN ATOM
M  V30 1 C 1.368324 1.331752 7.106574 0
M  V30 2 O 0.824917 2.301522 6.258835 0
M  V30 3 C 0.959454 2.347096 4.877849 0
M  V30 4 C 1.688288 1.375091 4.224421 0
M  V30 5 C 1.781094 1.480872 2.847600 0
M  V30 6 C 1.164783 2.526568 2.146385 0
M  V30 7 N 1.314497 2.521457 0.703619 0
M  V30 8 C 2.098490 1.466328 0.099280 0
M  V30 9 N 3.384447 1.563135 -0.348640 0
M  V30 10 C 3.991325 0.479707 -0.858969 0
M  V30 11 C 3.253632 -0.678256 -0.892893 0
M  V30 12 C 1.973923 -0.861004 -0.467418 0
M  V30 13 C 1.144626 -2.044939 -0.484733 0
M  V30 14 C -0.234479 -1.924207 -0.275130 0
M  V30 15 N -0.797758 -3.140693 -0.292568 0
M  V30 16 C -2.200887 -3.533582 -0.101085 0
M  V30 17 C -2.916320 -3.680338 -1.414214 0
M  V30 18 N -2.886971 -2.444037 -2.124565 0
M  V30 19 C -3.475052 -2.596080 -3.466453 0
M  V30 20 C -2.950986 -1.432447 -4.274099 0
M  V30 21 O -2.974100 -0.261785 -3.536702 0
M  V30 22 C -3.900361 -0.253576 -2.495830 0
M  V30 23 C -3.673019 -1.382385 -1.508327 0
M  V30 24 C 0.129555 -4.085935 -0.503319 0
M  V30 25 C 0.102250 -5.467284 -0.605750 0
M  V30 26 C 1.289784 -6.129341 -0.825515 0
M  V30 27 C 2.488586 -5.437529 -0.941928 0
M  V30 28 C 2.466023 -4.064758 -0.832425 0
M  V30 29 C 1.297649 -3.383813 -0.615653 0
M  V30 30 N 1.497710 0.277398 0.007509 0
M  V30 31 C 0.443295 3.482024 2.836457 0
M  V30 32 O -0.137781 4.485949 2.075188 0
M  V30 33 C -0.899854 5.505906 2.733565 0
M  V30 34 C 0.327921 3.406641 4.228552 0
M  V30 35 H 2.355066 1.581537 7.531946 0
M  V30 36 H 1.453331 0.324538 6.605576 0
M  V30 37 H 0.675602 1.173271 7.967485 0
M  V30 38 H 2.179473 0.554252 4.720405 0
M  V30 39 H 2.357903 0.714617 2.329002 0
M  V30 40 H 0.828220 3.311642 0.196713 0
M  V30 41 H 4.994192 0.538320 -1.213357 0
M  V30 42 H 3.782339 -1.506399 -1.325909 0
M  V30 43 H -0.845242 -1.022982 -0.112558 0
M  V30 44 H -2.298345 -4.435133 0.544596 0
M  V30 45 H -2.685075 -2.667722 0.437490 0
M  V30 46 H -3.973866 -3.983015 -1.140083 0
M  V30 47 H -2.487302 -4.515402 -2.010289 0
M  V30 48 H -4.581799 -2.518848 -3.426330 0
M  V30 49 H -3.224218 -3.571715 -3.925412 0
M  V30 50 H -3.438102 -1.325136 -5.261489 0
M  V30 51 H -1.866716 -1.673651 -4.477526 0
M  V30 52 H -3.738312 0.696377 -1.940474 0
M  V30 53 H -4.910360 -0.288960 -2.925733 0
M  V30 54 H -3.169485 -1.022152 -0.604902 0
M  V30 55 H -4.667315 -1.761283 -1.209089 0
M  V30 56 H -0.847434 -6.013518 -0.512328 0
M  V30 57 H 1.278937 -7.222721 -0.908089 0
M  V30 58 H 3.394224 -6.033414 -1.116941 0
M  V30 59 H 3.425723 -3.621286 -0.923224 0
M  V30 60 H -1.926552 5.176138 2.973370 0
M  V30 61 H -0.404683 5.876122 3.652484 0
M  V30 62 H -1.018237 6.392727 2.065960 0
M  V30 63 H -0.240435 4.161772 4.749382 0
M  V30 END ATOM
M  V30 BEGIN BOND
M  V30 1 1 1 2
M  V30 2 1 2 3
M  V30 3 2 3 4
M  V30 4 1 4 5
M  V30 5 2 5 6
M  V30 6 1 6 7
M  V30 7 1 7 8
M  V30 8 2 8 9
M  V30 9 1 9 10
M  V30 10 2 10 11
M  V30 11 1 11 12
M  V30 12 1 12 13
M  V30 13 2 13 14
M  V30 14 1 14 15
M  V30 15 1 15 16
M  V30 16 1 16 17
M  V30 17 1 17 18
M  V30 18 1 18 19
M  V30 19 1 19 20
M  V30 20 1 20 21
M  V30 21 1 21 22
M  V30 22 1 22 23
M  V30 23 1 15 24
M  V30 24 2 24 25
M  V30 25 1 25 26
M  V30 26 2 26 27
M  V30 27 1 27 28
M  V30 28 2 28 29
M  V30 29 2 12 30
M  V30 30 1 6 31
M  V30 31 1 31 32
M  V30 32 1 32 33
M  V30 33 2 31 34
M  V30 34 1 34 3
M  V30 35 1 30 8
M  V30 36 1 29 13
M  V30 37 1 23 18
M  V30 38 1 29 24
M  V30 39 1 1 35
M  V30 40 1 1 36
M  V30 41 1 1 37
M  V30 42 1 4 38
M  V30 43 1 5 39
M  V30 44 1 7 40
M  V30 45 1 10 41
M  V30 46 1 11 42
M  V30 47 1 14 43
M  V30 48 1 16 44
M  V30 49 1 16 45
M  V30 50 1 17 46
M  V30 51 1 17 47
M  V30 52 1 19 48
M  V30 53 1 19 49
M  V30 54 1 20 50
M  V30 55 1 20 51
M  V30 56 1 22 52
M  V30 57 1 22 53
M  V30 58 1 23 54
M  V30 59 1 23 55
M  V30 60 1 25 56
M  V30 61 1 26 57
M  V30 62 1 27 58
M  V30 63 1 28 59
M  V30 64 1 33 60
M  V30 65 1 33 61
M  V30 66 1 33 62
M  V30 67 1 34 63
M  V30 END BOND
M  V30 END CTAB
M  END
>  <Dataset>  (801) 
ChEMBL_Kinases

>  <Ligand_Instance>  (801) 
nan

>  <PDB_ID>  (801) 
nan

>  <Standardized_SMILES>  (801) 
COc1ccc(Nc2nccc(-c3cn(CCN4CCOCC4)c4ccccc34)n2)c(OC)c1

>  <Name>  (801) 
nan

>  <Pocket>  (801) 
nan

>  <ATP_Site>  (801) 
nan

>  <Peripheral>  (801) 
nan

>  <Num_H_Atoms_ProtBoundConf>  (801) 
nan

>  <Num_Resolved_Atoms>  (801) 
nan

>  <Num_Not_Resolved_Atoms>  (801) 
nan

$$$$
CHEMBL4167329
     RDKit          3D

  0  0  0  0  0  0  0  0  0  0999 V3000
M  V30 BEGIN CTAB
M  V30 COUNTS 57 59 0 0 0
M  V30 BEGIN ATOM
M  V30 1 C 0.866238 -4.760003 3.701968 0
M  V30 2 O 1.670585 -5.212716 2.623061 0
M  V30 3 C 1.905553 -4.429726 1.519710 0
M  V30 4 C 1.379163 -3.170800 1.396131 0
M  V30 5 C 1.656621 -2.446369 0.265431 0
M  V30 6 C 2.434953 -2.864539 -0.794927 0
M  V30 7 N 2.688962 -2.071368 -1.940866 0
M  V30 8 C 2.270002 -0.769403 -2.297381 0
M  V30 9 N 2.673570 -0.268568 -3.458132 0
M  V30 10 C 2.323071 0.955586 -3.870327 0
M  V30 11 C 1.517824 1.656215 -3.009241 0
M  V30 12 C 1.065224 1.218971 -1.813713 0
M  V30 13 C 0.198873 1.904765 -0.829688 0
M  V30 14 S -0.260487 1.089260 0.725070 0
M  V30 15 C -1.289665 2.576447 1.303265 0
M  V30 16 S -2.296278 3.040029 2.741982 0
M  V30 17 C -2.430144 1.705351 3.927412 0
M  V30 18 C -3.415046 0.628657 3.615875 0
M  V30 19 C -3.320539 -0.101351 2.349689 0
M  V30 20 N -3.495535 0.670150 1.136413 0
M  V30 21 C -4.859931 1.180419 1.026600 0
M  V30 22 C -3.442779 -0.357567 0.064171 0
M  V30 23 N -1.134126 3.268513 0.411780 0
M  V30 24 C -0.451267 3.113428 -0.700955 0
M  V30 25 C -0.311304 4.107653 -1.831535 0
M  V30 26 N 1.489916 -0.017401 -1.525988 0
M  V30 27 C 2.947686 -4.148865 -0.624665 0
M  V30 28 O 3.749515 -4.676636 -1.633654 0
M  V30 29 C 4.330381 -5.961826 -1.587811 0
M  V30 30 C 2.687365 -4.896646 0.494760 0
M  V30 31 H -0.197202 -4.702026 3.417592 0
M  V30 32 H 1.019511 -5.352948 4.612665 0
M  V30 33 H 1.167523 -3.708824 3.984354 0
M  V30 34 H 0.768909 -2.817828 2.203907 0
M  V30 35 H 1.194356 -1.470831 0.269648 0
M  V30 36 H 3.311633 -2.582773 -2.635618 0
M  V30 37 H 2.627138 1.401487 -4.803122 0
M  V30 38 H 1.211246 2.641831 -3.295536 0
M  V30 39 H -1.388171 1.236070 3.965398 0
M  V30 40 H -2.564371 2.084366 4.971005 0
M  V30 41 H -4.468546 0.951839 3.867955 0
M  V30 42 H -3.237188 -0.156267 4.431801 0
M  V30 43 H -2.269583 -0.508394 2.272087 0
M  V30 44 H -3.953740 -1.003765 2.360171 0
M  V30 45 H -5.082211 2.003438 1.708074 0
M  V30 46 H -5.570918 0.331025 1.050756 0
M  V30 47 H -4.925353 1.599031 -0.013152 0
M  V30 48 H -2.433412 -0.689479 -0.158961 0
M  V30 49 H -4.019309 -0.021863 -0.823887 0
M  V30 50 H -4.032136 -1.241696 0.452501 0
M  V30 51 H -0.773981 3.706637 -2.732617 0
M  V30 52 H 0.705511 4.472524 -1.959847 0
M  V30 53 H -0.914679 5.029952 -1.589658 0
M  V30 54 H 3.639777 -6.749896 -1.237417 0
M  V30 55 H 4.724603 -6.187330 -2.608250 0
M  V30 56 H 5.243918 -5.853782 -0.939892 0
M  V30 57 H 3.130287 -5.885913 0.536701 0
M  V30 END ATOM
M  V30 BEGIN BOND
M  V30 1 1 1 2
M  V30 2 1 2 3
M  V30 3 2 3 4
M  V30 4 1 4 5
M  V30 5 2 5 6
M  V30 6 1 6 7
M  V30 7 1 7 8
M  V30 8 2 8 9
M  V30 9 1 9 10
M  V30 10 2 10 11
M  V30 11 1 11 12
M  V30 12 1 12 13
M  V30 13 1 13 14
M  V30 14 1 14 15
M  V30 15 1 15 16
M  V30 16 1 16 17
M  V30 17 1 17 18
M  V30 18 1 18 19
M  V30 19 1 19 20
M  V30 20 1 20 21
M  V30 21 1 20 22
M  V30 22 2 15 23
M  V30 23 1 23 24
M  V30 24 1 24 25
M  V30 25 2 12 26
M  V30 26 1 6 27
M  V30 27 1 27 28
M  V30 28 1 28 29
M  V30 29 2 27 30
M  V30 30 1 30 3
M  V30 31 1 26 8
M  V30 32 2 24 13
M  V30 33 1 1 31
M  V30 34 1 1 32
M  V30 35 1 1 33
M  V30 36 1 4 34
M  V30 37 1 5 35
M  V30 38 1 7 36
M  V30 39 1 10 37
M  V30 40 1 11 38
M  V30 41 1 17 39
M  V30 42 1 17 40
M  V30 43 1 18 41
M  V30 44 1 18 42
M  V30 45 1 19 43
M  V30 46 1 19 44
M  V30 47 1 21 45
M  V30 48 1 21 46
M  V30 49 1 21 47
M  V30 50 1 22 48
M  V30 51 1 22 49
M  V30 52 1 22 50
M  V30 53 1 25 51
M  V30 54 1 25 52
M  V30 55 1 25 53
M  V30 56 1 29 54
M  V30 57 1 29 55
M  V30 58 1 29 56
M  V30 59 1 30 57
M  V30 END BOND
M  V30 END CTAB
M  END
>  <Dataset>  (802) 
ChEMBL_Kinases

>  <Ligand_Instance>  (802) 
nan

>  <PDB_ID>  (802) 
nan

>  <Standardized_SMILES>  (802) 
COc1ccc(Nc2nccc(-c3sc(SCCCN(C)C)nc3C)n2)c(OC)c1

>  <Name>  (802) 
nan

>  <Pocket>  (802) 
nan

>  <ATP_Site>  (802) 
nan

>  <Peripheral>  (802) 
nan

>  <Num_H_Atoms_ProtBoundConf>  (802) 
nan

>  <Num_Resolved_Atoms>  (802) 
nan

>  <Num_Not_Resolved_Atoms>  (802) 
nan

$$$$
CHEMBL4167311
     RDKit          3D

  0  0  0  0  0  0  0  0  0  0999 V3000
M  V30 BEGIN CTAB
M  V30 COUNTS 48 51 0 0 0
M  V30 BEGIN ATOM
M  V30 1 C -0.831324 -6.813935 0.267033 0
M  V30 2 O -2.020716 -6.559440 0.978101 0
M  V30 3 C -2.503689 -5.287085 1.252620 0
M  V30 4 C -1.907990 -4.100093 0.880360 0
M  V30 5 C -2.452445 -2.871465 1.192028 0
M  V30 6 C -1.775214 -1.636071 0.769757 0
M  V30 7 C -0.398789 -1.661666 0.698756 0
M  V30 8 N 0.249681 -0.551207 0.315807 0
M  V30 9 C -0.365491 0.591121 -0.004430 0
M  V30 10 C 0.205045 1.788688 -0.410255 0
M  V30 11 N 1.547664 2.154305 -0.601937 0
M  V30 12 C 1.950771 3.476291 -1.037705 0
M  V30 13 C 3.378056 3.723961 -0.678750 0
M  V30 14 C 3.773439 3.239141 0.690092 0
M  V30 15 C 3.162670 4.019772 1.790142 0
M  V30 16 N 3.138832 5.350394 2.267778 0
M  V30 17 O 2.415127 3.372739 2.601734 0
M  V30 18 C 3.496338 1.778985 0.798704 0
M  V30 19 C 2.672528 1.268198 -0.390015 0
M  V30 20 S -1.092039 2.953101 -0.698857 0
M  V30 21 N -2.457480 1.777293 -0.253929 0
M  V30 22 C -1.735064 0.639204 0.059394 0
M  V30 23 C -2.447141 -0.475288 0.447137 0
M  V30 24 C -3.638096 -2.863045 1.903963 0
M  V30 25 C -4.257922 -4.032903 2.290508 0
M  V30 26 C -3.704276 -5.273858 1.973367 0
M  V30 27 N -4.415470 -6.425775 2.413860 0
M  V30 28 H -0.903807 -7.852310 -0.129437 0
M  V30 29 H 0.072031 -6.803002 0.906876 0
M  V30 30 H -0.745027 -6.151419 -0.620059 0
M  V30 31 H -0.983097 -4.207761 0.327091 0
M  V30 32 H 0.189189 -2.544369 0.939744 0
M  V30 33 H 1.267186 4.238223 -0.625632 0
M  V30 34 H 1.885332 3.438233 -2.163649 0
M  V30 35 H 3.616804 4.826339 -0.709645 0
M  V30 36 H 4.062540 3.235710 -1.408729 0
M  V30 37 H 4.873800 3.409403 0.767508 0
M  V30 38 H 3.994330 5.430625 2.875939 0
M  V30 39 H 2.415989 6.093419 2.055358 0
M  V30 40 H 4.443499 1.202407 0.791174 0
M  V30 41 H 2.975126 1.498747 1.735928 0
M  V30 42 H 3.312098 1.343813 -1.315553 0
M  V30 43 H 2.415601 0.219863 -0.243699 0
M  V30 44 H -3.501977 -0.579611 0.540256 0
M  V30 45 H -4.083131 -1.902940 2.159617 0
M  V30 46 H -5.187720 -3.985885 2.847877 0
M  V30 47 H -4.697894 -6.398131 3.417447 0
M  V30 48 H -4.663851 -7.259932 1.831053 0
M  V30 END ATOM
M  V30 BEGIN BOND
M  V30 1 1 1 2
M  V30 2 1 2 3
M  V30 3 2 3 4
M  V30 4 1 4 5
M  V30 5 1 5 6
M  V30 6 1 6 7
M  V30 7 2 7 8
M  V30 8 1 8 9
M  V30 9 2 9 10
M  V30 10 1 10 11
M  V30 11 1 11 12
M  V30 12 1 12 13
M  V30 13 1 13 14
M  V30 14 1 14 15
M  V30 15 1 15 16
M  V30 16 2 15 17
M  V30 17 1 14 18
M  V30 18 1 18 19
M  V30 19 1 10 20
M  V30 20 1 20 21
M  V30 21 2 21 22
M  V30 22 1 22 23
M  V30 23 2 5 24
M  V30 24 1 24 25
M  V30 25 2 25 26
M  V30 26 1 26 27
M  V30 27 1 26 3
M  V30 28 2 23 6
M  V30 29 1 22 9
M  V30 30 1 19 11
M  V30 31 1 1 28
M  V30 32 1 1 29
M  V30 33 1 1 30
M  V30 34 1 4 31
M  V30 35 1 7 32
M  V30 36 1 12 33
M  V30 37 1 12 34
M  V30 38 1 13 35
M  V30 39 1 13 36
M  V30 40 1 14 37
M  V30 41 1 16 38
M  V30 42 1 16 39
M  V30 43 1 18 40
M  V30 44 1 18 41
M  V30 45 1 19 42
M  V30 46 1 19 43
M  V30 47 1 23 44
M  V30 48 1 24 45
M  V30 49 1 25 46
M  V30 50 1 27 47
M  V30 51 1 27 48
M  V30 END BOND
M  V30 END CTAB
M  END
>  <Dataset>  (803) 
ChEMBL_Kinases

>  <Ligand_Instance>  (803) 
nan

>  <PDB_ID>  (803) 
nan

>  <Standardized_SMILES>  (803) 
COc1cc(-c2cnc3c(N4CCC(C(N)=O)CC4)snc3c2)ccc1N

>  <Name>  (803) 
nan

>  <Pocket>  (803) 
nan

>  <ATP_Site>  (803) 
nan

>  <Peripheral>  (803) 
nan

>  <Num_H_Atoms_ProtBoundConf>  (803) 
nan

>  <Num_Resolved_Atoms>  (803) 
nan

>  <Num_Not_Resolved_Atoms>  (803) 
nan

$$$$
CHEMBL4166409
     RDKit          3D

  0  0  0  0  0  0  0  0  0  0999 V3000
M  V30 BEGIN CTAB
M  V30 COUNTS 33 35 0 0 0
M  V30 BEGIN ATOM
M  V30 1 N -1.395017 -4.355387 4.453175 0
M  V30 2 C -0.994479 -4.204399 3.095086 0
M  V30 3 C -0.952836 -5.273732 2.223514 0
M  V30 4 C -0.564790 -5.159533 0.886292 0
M  V30 5 C -0.217942 -3.886360 0.479370 0
M  V30 6 C -0.248138 -2.795465 1.323749 0
M  V30 7 C 0.118212 -1.449608 0.894626 0
M  V30 8 O 0.088239 -0.448265 1.677804 0
M  V30 9 N 0.539267 -1.110019 -0.411123 0
M  V30 10 C 0.835463 0.283577 -0.552523 0
M  V30 11 C 2.126661 0.691667 -0.297531 0
M  V30 12 C 2.496558 2.027404 -0.411902 0
M  V30 13 C 1.474045 2.866526 -0.792560 0
M  V30 14 N 1.538275 4.215769 -0.984234 0
M  V30 15 N 0.371221 4.677262 -1.342398 0
M  V30 16 C -0.532473 3.687305 -1.412555 0
M  V30 17 N -1.914348 3.690966 -1.753189 0
M  V30 18 C 0.163916 2.545425 -1.065588 0
M  V30 19 C -0.139393 1.186764 -0.931304 0
M  V30 20 C -0.637098 -2.953990 2.634460 0
M  V30 21 H -2.133973 -4.909140 4.922096 0
M  V30 22 H -0.916977 -3.847821 5.255002 0
M  V30 23 H -1.230386 -6.247921 2.579199 0
M  V30 24 H -0.533356 -5.995151 0.209255 0
M  V30 25 H 0.086509 -3.763554 -0.547359 0
M  V30 26 H 0.596249 -1.876156 -1.134351 0
M  V30 27 H 2.866615 -0.045750 -0.002037 0
M  V30 28 H 3.483498 2.387529 -0.224409 0
M  V30 29 H 2.307921 4.917742 -0.902781 0
M  V30 30 H -2.387199 3.590073 -2.685833 0
M  V30 31 H -2.540930 3.814961 -0.930274 0
M  V30 32 H -1.144841 0.867652 -1.129661 0
M  V30 33 H -0.667493 -2.110441 3.313089 0
M  V30 END ATOM
M  V30 BEGIN BOND
M  V30 1 1 1 2
M  V30 2 2 2 3
M  V30 3 1 3 4
M  V30 4 2 4 5
M  V30 5 1 5 6
M  V30 6 1 6 7
M  V30 7 2 7 8
M  V30 8 1 7 9
M  V30 9 1 9 10
M  V30 10 2 10 11
M  V30 11 1 11 12
M  V30 12 2 12 13
M  V30 13 1 13 14
M  V30 14 1 14 15
M  V30 15 2 15 16
M  V30 16 1 16 17
M  V30 17 1 16 18
M  V30 18 2 18 19
M  V30 19 2 6 20
M  V30 20 1 20 2
M  V30 21 1 19 10
M  V30 22 1 18 13
M  V30 23 1 1 21
M  V30 24 1 1 22
M  V30 25 1 3 23
M  V30 26 1 4 24
M  V30 27 1 5 25
M  V30 28 1 9 26
M  V30 29 1 11 27
M  V30 30 1 12 28
M  V30 31 1 14 29
M  V30 32 1 17 30
M  V30 33 1 17 31
M  V30 34 1 19 32
M  V30 35 1 20 33
M  V30 END BOND
M  V30 END CTAB
M  END
>  <Dataset>  (804) 
ChEMBL_Kinases

>  <Ligand_Instance>  (804) 
nan

>  <PDB_ID>  (804) 
nan

>  <Standardized_SMILES>  (804) 
Nc1cccc(C(=O)Nc2ccc3[nH]nc(N)c3c2)c1

>  <Name>  (804) 
nan

>  <Pocket>  (804) 
nan

>  <ATP_Site>  (804) 
nan

>  <Peripheral>  (804) 
nan

>  <Num_H_Atoms_ProtBoundConf>  (804) 
nan

>  <Num_Resolved_Atoms>  (804) 
nan

>  <Num_Not_Resolved_Atoms>  (804) 
nan

$$$$
CHEMBL4786970
     RDKit          3D

  0  0  0  0  0  0  0  0  0  0999 V3000
M  V30 BEGIN CTAB
M  V30 COUNTS 49 53 0 0 0
M  V30 BEGIN ATOM
M  V30 1 C -1.359930 -3.765511 -1.152772 0
M  V30 2 N -0.290776 -4.220843 -0.318954 0
M  V30 3 C 0.546311 -3.160000 0.203685 0
M  V30 4 C 1.366860 -3.746695 1.342047 0
M  V30 5 C 0.471999 -3.910103 2.526958 0
M  V30 6 N 0.200498 -2.647335 3.185856 0
M  V30 7 C 0.744721 -1.457074 2.889013 0
M  V30 8 C 0.300999 -0.423994 3.685883 0
M  V30 9 N 0.664026 0.949758 3.647557 0
M  V30 10 C 1.565874 1.272499 2.596443 0
M  V30 11 N 2.906313 1.154780 2.616809 0
M  V30 12 C 3.638028 1.502813 1.543747 0
M  V30 13 C 3.085636 1.989894 0.382158 0
M  V30 14 N 3.423217 2.426798 -0.836855 0
M  V30 15 N 2.350048 2.774918 -1.517313 0
M  V30 16 N 1.238822 2.590946 -0.792374 0
M  V30 17 C -0.112928 2.843927 -1.145068 0
M  V30 18 C -1.186857 2.542263 -0.339689 0
M  V30 19 C -2.281615 2.949604 -1.054654 0
M  V30 20 N -1.912626 3.486311 -2.261810 0
M  V30 21 C -2.840295 4.008485 -3.243401 0
M  V30 22 N -0.608288 3.386211 -2.237845 0
M  V30 23 C 1.719574 2.107893 0.367854 0
M  V30 24 N 1.010403 1.747429 1.468001 0
M  V30 25 C -0.591320 -1.090343 4.529188 0
M  V30 26 N -0.606009 -2.402051 4.182440 0
M  V30 27 C -0.767442 -4.626463 2.075504 0
M  V30 28 C -0.652872 -5.186994 0.675660 0
M  V30 29 H -2.146207 -3.194726 -0.651616 0
M  V30 30 H -1.748402 -4.651499 -1.696757 0
M  V30 31 H -0.896081 -3.104616 -1.931709 0
M  V30 32 H 1.258142 -2.878637 -0.599280 0
M  V30 33 H -0.068816 -2.307116 0.528836 0
M  V30 34 H 2.248758 -3.126291 1.497988 0
M  V30 35 H 1.629641 -4.786228 1.000458 0
M  V30 36 H 1.045327 -4.517307 3.288744 0
M  V30 37 H 1.472742 -1.344847 2.082502 0
M  V30 38 H 0.221640 1.559403 4.399529 0
M  V30 39 H 4.715840 1.414872 1.543681 0
M  V30 40 H -1.250510 2.085560 0.652074 0
M  V30 41 H -3.323949 2.868370 -0.728390 0
M  V30 42 H -3.829961 4.255891 -2.764223 0
M  V30 43 H -2.998590 3.313524 -4.065626 0
M  V30 44 H -2.434149 4.998825 -3.562698 0
M  V30 45 H -1.165539 -0.598632 5.328268 0
M  V30 46 H -0.887250 -5.529161 2.739022 0
M  V30 47 H -1.675983 -4.035401 2.173826 0
M  V30 48 H 0.051866 -6.030970 0.586974 0
M  V30 49 H -1.647988 -5.595588 0.405929 0
M  V30 END ATOM
M  V30 BEGIN BOND
M  V30 1 1 1 2
M  V30 2 1 2 3
M  V30 3 1 3 4
M  V30 4 1 4 5
M  V30 5 1 5 6
M  V30 6 1 6 7
M  V30 7 2 7 8
M  V30 8 1 8 9
M  V30 9 1 9 10
M  V30 10 2 10 11
M  V30 11 1 11 12
M  V30 12 2 12 13
M  V30 13 1 13 14
M  V30 14 2 14 15
M  V30 15 1 15 16
M  V30 16 1 16 17
M  V30 17 1 17 18
M  V30 18 2 18 19
M  V30 19 1 19 20
M  V30 20 1 20 21
M  V30 21 1 20 22
M  V30 22 1 16 23
M  V30 23 2 23 24
M  V30 24 1 8 25
M  V30 25 2 25 26
M  V30 26 1 5 27
M  V30 27 1 27 28
M  V30 28 1 28 2
M  V30 29 1 26 6
M  V30 30 1 24 10
M  V30 31 1 23 13
M  V30 32 2 22 17
M  V30 33 1 1 29
M  V30 34 1 1 30
M  V30 35 1 1 31
M  V30 36 1 3 32
M  V30 37 1 3 33
M  V30 38 1 4 34
M  V30 39 1 4 35
M  V30 40 1 5 36
M  V30 41 1 7 37
M  V30 42 1 9 38
M  V30 43 1 12 39
M  V30 44 1 18 40
M  V30 45 1 19 41
M  V30 46 1 21 42
M  V30 47 1 21 43
M  V30 48 1 21 44
M  V30 49 1 25 45
M  V30 50 1 27 46
M  V30 51 1 27 47
M  V30 52 1 28 48
M  V30 53 1 28 49
M  V30 END BOND
M  V30 END CTAB
M  END
>  <Dataset>  (805) 
ChEMBL_Kinases

>  <Ligand_Instance>  (805) 
nan

>  <PDB_ID>  (805) 
nan

>  <Standardized_SMILES>  (805) 
CN1CCC(n2cc(Nc3ncc4nnn(-c5ccn(C)n5)c4n3)cn2)CC1

>  <Name>  (805) 
nan

>  <Pocket>  (805) 
nan

>  <ATP_Site>  (805) 
nan

>  <Peripheral>  (805) 
nan

>  <Num_H_Atoms_ProtBoundConf>  (805) 
nan

>  <Num_Resolved_Atoms>  (805) 
nan

>  <Num_Not_Resolved_Atoms>  (805) 
nan

$$$$
CHEMBL4167255
     RDKit          3D

  0  0  0  0  0  0  0  0  0  0999 V3000
M  V30 BEGIN CTAB
M  V30 COUNTS 45 48 0 0 0
M  V30 BEGIN ATOM
M  V30 1 C -0.948152 -6.892644 1.574856 0
M  V30 2 O -0.897055 -6.208671 2.805386 0
M  V30 3 C -0.648295 -4.856313 2.945753 0
M  V30 4 C -0.401685 -3.881896 2.000578 0
M  V30 5 C -0.179466 -2.584139 2.390860 0
M  V30 6 C 0.075149 -1.612477 1.321346 0
M  V30 7 C -0.352586 -0.327228 1.575679 0
M  V30 8 N -0.135621 0.589030 0.618269 0
M  V30 9 C 0.461535 0.345873 -0.556139 0
M  V30 10 C 0.699194 1.269257 -1.560397 0
M  V30 11 N 0.390205 2.635657 -1.610719 0
M  V30 12 C 0.789493 3.356573 -2.827750 0
M  V30 13 C 1.502428 4.603780 -2.357558 0
M  V30 14 C 2.262937 4.328912 -1.079438 0
M  V30 15 O 1.510968 4.799789 -0.002057 0
M  V30 16 C 0.709680 3.790181 0.528141 0
M  V30 17 C -0.282944 3.295359 -0.527278 0
M  V30 18 S 1.489540 0.438193 -2.843794 0
M  V30 19 N 1.508446 -1.226236 -2.007956 0
M  V30 20 C 0.896899 -0.926482 -0.833904 0
M  V30 21 C 0.693262 -1.897785 0.123373 0
M  V30 22 C -0.190286 -2.194513 3.712035 0
M  V30 23 C -0.439283 -3.173946 4.679618 0
M  V30 24 C -0.667704 -4.501040 4.298749 0
M  V30 25 N -0.902846 -5.361988 5.404437 0
M  V30 26 H -1.878819 -7.495062 1.534051 0
M  V30 27 H -0.955120 -6.221865 0.702757 0
M  V30 28 H -0.068008 -7.585527 1.541948 0
M  V30 29 H -0.412709 -4.278198 0.998992 0
M  V30 30 H -0.841179 -0.024034 2.481603 0
M  V30 31 H 1.566674 2.722115 -3.330269 0
M  V30 32 H -0.067750 3.562762 -3.485298 0
M  V30 33 H 2.130254 5.073726 -3.145815 0
M  V30 34 H 0.687395 5.353857 -2.162578 0
M  V30 35 H 3.275582 4.779467 -1.093619 0
M  V30 36 H 2.363060 3.229221 -0.953804 0
M  V30 37 H 1.328488 2.954151 0.912841 0
M  V30 38 H 0.130356 4.189257 1.365014 0
M  V30 39 H -0.853359 4.206750 -0.858393 0
M  V30 40 H -1.027929 2.683459 0.006315 0
M  V30 41 H 0.980986 -2.926152 0.038789 0
M  V30 42 H -0.009634 -1.154358 3.987863 0
M  V30 43 H -0.439806 -2.831899 5.699370 0
M  V30 44 H -1.849803 -5.489858 5.833217 0
M  V30 45 H -0.173658 -5.928064 5.875070 0
M  V30 END ATOM
M  V30 BEGIN BOND
M  V30 1 1 1 2
M  V30 2 1 2 3
M  V30 3 2 3 4
M  V30 4 1 4 5
M  V30 5 1 5 6
M  V30 6 1 6 7
M  V30 7 2 7 8
M  V30 8 1 8 9
M  V30 9 2 9 10
M  V30 10 1 10 11
M  V30 11 1 11 12
M  V30 12 1 12 13
M  V30 13 1 13 14
M  V30 14 1 14 15
M  V30 15 1 15 16
M  V30 16 1 16 17
M  V30 17 1 10 18
M  V30 18 1 18 19
M  V30 19 2 19 20
M  V30 20 1 20 21
M  V30 21 2 5 22
M  V30 22 1 22 23
M  V30 23 2 23 24
M  V30 24 1 24 25
M  V30 25 1 24 3
M  V30 26 2 21 6
M  V30 27 1 20 9
M  V30 28 1 17 11
M  V30 29 1 1 26
M  V30 30 1 1 27
M  V30 31 1 1 28
M  V30 32 1 4 29
M  V30 33 1 7 30
M  V30 34 1 12 31
M  V30 35 1 12 32
M  V30 36 1 13 33
M  V30 37 1 13 34
M  V30 38 1 14 35
M  V30 39 1 14 36
M  V30 40 1 16 37
M  V30 41 1 16 38
M  V30 42 1 17 39
M  V30 43 1 17 40
M  V30 44 1 21 41
M  V30 45 1 22 42
M  V30 46 1 23 43
M  V30 47 1 25 44
M  V30 48 1 25 45
M  V30 END BOND
M  V30 END CTAB
M  END
>  <Dataset>  (806) 
ChEMBL_Kinases

>  <Ligand_Instance>  (806) 
nan

>  <PDB_ID>  (806) 
nan

>  <Standardized_SMILES>  (806) 
COc1cc(-c2cnc3c(N4CCCOCC4)snc3c2)ccc1N

>  <Name>  (806) 
nan

>  <Pocket>  (806) 
nan

>  <ATP_Site>  (806) 
nan

>  <Peripheral>  (806) 
nan

>  <Num_H_Atoms_ProtBoundConf>  (806) 
nan

>  <Num_Resolved_Atoms>  (806) 
nan

>  <Num_Not_Resolved_Atoms>  (806) 
nan

$$$$
CHEMBL4167143
     RDKit          3D

  0  0  0  0  0  0  0  0  0  0999 V3000
M  V30 BEGIN CTAB
M  V30 COUNTS 71 77 0 0 0
M  V30 BEGIN ATOM
M  V30 1 C 5.212732 0.010929 2.930704 0
M  V30 2 N 4.199789 1.018228 2.709000 0
M  V30 3 C 2.931880 0.496795 3.107188 0
M  V30 4 C 4.263859 1.462447 1.326392 0 CFG=1
M  V30 5 C 4.035538 0.354946 0.357234 0
M  V30 6 C 2.723472 0.338299 -0.341066 0 CFG=1
M  V30 7 C 2.865234 -0.608938 -1.526767 0
M  V30 8 C 1.604231 -1.448436 -1.397125 0
M  V30 9 C 0.744264 -0.545389 -0.581848 0 CFG=1
M  V30 10 O 1.672287 -0.164539 0.418605 0
M  V30 11 C 0.321068 0.604326 -1.400852 0
M  V30 12 C -0.797977 0.537962 -2.064031 0
M  V30 13 C -1.643185 -0.671119 -2.004963 0
M  V30 14 C -1.636993 -1.389398 -0.701026 0 CFG=1
M  V30 15 C -1.788733 -2.884386 -1.016338 0
M  V30 16 C -0.401300 -1.204622 0.131750 0
M  V30 17 C -0.825428 -0.180922 1.196216 0
M  V30 18 C -2.220067 -0.677375 1.508757 0
M  V30 19 C -2.797091 -0.912392 0.153602 0 CFG=2
M  V30 20 C -3.962716 -1.794398 0.140820 0
M  V30 21 C -5.084090 -1.309814 -0.543991 0
M  V30 22 C -6.254650 -2.074822 -0.607923 0
M  V30 23 C -6.332942 -3.312907 -0.004220 0
M  V30 24 C -7.453217 -4.115799 -0.029285 0
M  V30 25 C -7.454203 -5.348316 0.601654 0
M  V30 26 N -6.344373 -5.792291 1.261250 0
M  V30 27 C -5.240779 -5.023574 1.297312 0
M  V30 28 C -5.238134 -3.793817 0.668491 0
M  V30 29 C -4.098184 -3.018877 0.715447 0
M  V30 30 C 1.153451 1.796861 -1.460369 0
M  V30 31 C 2.281779 1.685736 -0.783096 0
M  V30 32 C 3.169488 2.816260 -0.410911 0 CFG=1
M  V30 33 O 2.599506 4.059841 -0.617051 0
M  V30 34 C 3.457576 2.704747 1.093355 0 CFG=2
M  V30 35 O 4.237635 3.806375 1.423091 0
M  V30 36 H 6.003563 -0.004594 2.165190 0
M  V30 37 H 5.723731 0.242122 3.889654 0
M  V30 38 H 4.732750 -0.988610 3.074078 0
M  V30 39 H 2.057703 1.097223 2.831116 0
M  V30 40 H 2.819793 -0.596892 2.879506 0
M  V30 41 H 2.940210 0.515344 4.236923 0
M  V30 42 H 5.350295 1.757483 1.196982 0
M  V30 43 H 4.823525 0.318141 -0.451626 0
M  V30 44 H 4.134421 -0.658900 0.842317 0
M  V30 45 H 3.779134 -1.231358 -1.454789 0
M  V30 46 H 2.808276 -0.060147 -2.489458 0
M  V30 47 H 1.908901 -2.361522 -0.821620 0
M  V30 48 H 1.186564 -1.725787 -2.379399 0
M  V30 49 H -1.072122 1.404599 -2.653128 0
M  V30 50 H -1.429328 -1.377843 -2.834230 0
M  V30 51 H -2.696631 -0.313130 -2.187594 0
M  V30 52 H -2.799408 -3.120386 -1.356559 0
M  V30 53 H -1.382428 -3.527508 -0.222738 0
M  V30 54 H -1.105965 -3.054031 -1.898526 0
M  V30 55 H -0.066102 -2.149073 0.555436 0
M  V30 56 H -0.161981 -0.200722 2.080070 0
M  V30 57 H -0.872870 0.789685 0.681398 0
M  V30 58 H -2.085835 -1.584569 2.107646 0
M  V30 59 H -2.756849 0.117068 2.078309 0
M  V30 60 H -3.100023 0.096359 -0.262043 0
M  V30 61 H -5.194776 -0.370461 -1.068256 0
M  V30 62 H -7.154312 -1.768990 -1.114839 0
M  V30 63 H -8.331598 -3.766406 -0.550284 0
M  V30 64 H -8.306590 -6.004691 0.605956 0
M  V30 65 H -4.342080 -5.372503 1.826109 0
M  V30 66 H -3.258142 -3.402268 1.242367 0
M  V30 67 H 0.923346 2.706377 -1.986472 0
M  V30 68 H 4.159626 2.745016 -0.899810 0
M  V30 69 H 2.084885 4.323718 0.195392 0
M  V30 70 H 2.489134 2.698495 1.636034 0
M  V30 71 H 3.928732 4.277710 2.226477 0
M  V30 END ATOM
M  V30 BEGIN BOND
M  V30 1 1 1 2
M  V30 2 1 2 3
M  V30 3 1 2 4
M  V30 4 1 4 5
M  V30 5 1 6 5 CFG=1
M  V30 6 1 6 7
M  V30 7 1 7 8
M  V30 8 1 9 8 CFG=3
M  V30 9 1 9 10
M  V30 10 1 9 11
M  V30 11 2 11 12
M  V30 12 1 12 13
M  V30 13 1 13 14
M  V30 14 1 14 15 CFG=3
M  V30 15 1 14 16
M  V30 16 1 16 17
M  V30 17 1 17 18
M  V30 18 1 18 19
M  V30 19 1 19 20
M  V30 20 2 20 21
M  V30 21 1 21 22
M  V30 22 2 22 23
M  V30 23 1 23 24
M  V30 24 2 24 25
M  V30 25 1 25 26
M  V30 26 2 26 27
M  V30 27 1 27 28
M  V30 28 2 28 29
M  V30 29 1 11 30
M  V30 30 2 30 31
M  V30 31 1 31 32
M  V30 32 1 32 33
M  V30 33 1 32 34
M  V30 34 1 34 35
M  V30 35 1 34 4
M  V30 36 1 10 6
M  V30 37 1 19 14
M  V30 38 1 29 20
M  V30 39 1 31 6
M  V30 40 1 16 9
M  V30 41 1 28 23
M  V30 42 1 1 36
M  V30 43 1 1 37
M  V30 44 1 1 38
M  V30 45 1 3 39
M  V30 46 1 3 40
M  V30 47 1 3 41
M  V30 48 1 4 42 CFG=3
M  V30 49 1 5 43
M  V30 50 1 5 44
M  V30 51 1 7 45
M  V30 52 1 7 46
M  V30 53 1 8 47
M  V30 54 1 8 48
M  V30 55 1 12 49
M  V30 56 1 13 50
M  V30 57 1 13 51
M  V30 58 1 15 52
M  V30 59 1 15 53
M  V30 60 1 15 54
M  V30 61 1 16 55
M  V30 62 1 17 56
M  V30 63 1 17 57
M  V30 64 1 18 58
M  V30 65 1 18 59
M  V30 66 1 19 60 CFG=3
M  V30 67 1 21 61
M  V30 68 1 22 62
M  V30 69 1 24 63
M  V30 70 1 25 64
M  V30 71 1 27 65
M  V30 72 1 29 66
M  V30 73 1 30 67
M  V30 74 1 32 68 CFG=3
M  V30 75 1 33 69
M  V30 76 1 34 70 CFG=1
M  V30 77 1 35 71
M  V30 END BOND
M  V30 END CTAB
M  END
>  <Dataset>  (807) 
ChEMBL_Kinases

>  <Ligand_Instance>  (807) 
nan

>  <PDB_ID>  (807) 
nan

>  <Standardized_SMILES>  (807) 
CN(C)[C@H]1C[C@@]23CC[C@@]4(O2)C(=CC[C@@]2(C)C4CC[C@@H]2c2ccc4ccncc4c2)C=C3[C@@H](O)[C@@H]1O

>  <Name>  (807) 
nan

>  <Pocket>  (807) 
nan

>  <ATP_Site>  (807) 
nan

>  <Peripheral>  (807) 
nan

>  <Num_H_Atoms_ProtBoundConf>  (807) 
nan

>  <Num_Resolved_Atoms>  (807) 
nan

>  <Num_Not_Resolved_Atoms>  (807) 
nan

$$$$
CHEMBL4167099
     RDKit          3D

  0  0  0  0  0  0  0  0  0  0999 V3000
M  V30 BEGIN CTAB
M  V30 COUNTS 65 70 0 0 0
M  V30 BEGIN ATOM
M  V30 1 C -0.445907 5.071546 -3.241944 0
M  V30 2 C -0.341905 3.662873 -2.746377 0
M  V30 3 N -0.255911 2.522582 -3.453994 0
M  V30 4 N -0.179923 1.482433 -2.610942 0
M  V30 5 C -0.076638 0.127385 -3.022980 0
M  V30 6 C -1.028226 -0.838659 -3.272903 0
M  V30 7 C -0.642942 -2.089418 -3.670502 0
M  V30 8 C 0.671063 -2.435686 -3.835835 0
M  V30 9 C 1.648122 -1.492487 -3.594027 0
M  V30 10 C 1.273450 -0.207122 -3.186398 0
M  V30 11 C -0.213564 1.905647 -1.343914 0
M  V30 12 O -0.167200 1.250959 -0.126858 0
M  V30 13 C -0.070222 -0.122660 0.024770 0
M  V30 14 C -1.350589 -0.690454 0.092609 0
M  V30 15 C -1.524128 -2.058219 0.244934 0
M  V30 16 C -0.404017 -2.860684 0.329653 0
M  V30 17 C -0.560303 -4.302673 0.489988 0
M  V30 18 N 0.433622 -5.205865 0.585850 0
M  V30 19 C -0.113460 -6.442333 0.724864 0
M  V30 20 C 0.458179 -7.709601 0.862701 0
M  V30 21 C -0.421485 -8.766326 0.983168 0
M  V30 22 N 0.109411 -10.092501 1.127699 0 CHG=1 VAL=4
M  V30 23 O 1.334484 -10.332800 1.149197 0
M  V30 24 O -0.748526 -11.160542 1.249407 0 CHG=-1 VAL=1
M  V30 25 C -1.797720 -8.655036 0.976474 0
M  V30 26 C -2.328182 -7.383062 0.837951 0
M  V30 27 C -1.492816 -6.279317 0.712461 0
M  V30 28 N -1.726825 -4.967371 0.568281 0
M  V30 29 C 0.858191 -2.307145 0.263483 0
M  V30 30 C 1.036220 -0.946135 0.111883 0
M  V30 31 C -0.316743 3.294487 -1.397042 0
M  V30 32 C -0.387561 4.219967 -0.253205 0
M  V30 33 N -0.360196 3.823969 0.974346 0
M  V30 34 N -0.434505 4.799661 1.982890 0
M  V30 35 C -0.009565 4.593840 3.322950 0
M  V30 36 C -0.900090 4.114081 4.255220 0
M  V30 37 C -0.519351 3.901581 5.572091 0
M  V30 38 C 0.778597 4.177221 5.953362 0
M  V30 39 N 1.169630 3.957840 7.310811 0 CHG=1 VAL=4
M  V30 40 O 2.339457 4.205811 7.656517 0
M  V30 41 O 0.250314 3.472862 8.231102 0 CHG=-1 VAL=1
M  V30 42 C 1.685426 4.662852 5.015932 0
M  V30 43 C 1.284206 4.870609 3.694667 0
M  V30 44 H 0.526377 5.588139 -3.202100 0
M  V30 45 H -1.167680 5.638498 -2.608716 0
M  V30 46 H -0.901066 5.033743 -4.244898 0
M  V30 47 H -2.023576 -0.440419 -3.106352 0
M  V30 48 H -1.483329 -2.776387 -3.840738 0
M  V30 49 H 0.880905 -3.459567 -4.156485 0
M  V30 50 H 2.669492 -1.803284 -3.735197 0
M  V30 51 H 2.145264 0.430588 -3.032558 0
M  V30 52 H -2.301963 -0.163355 0.037777 0
M  V30 53 H -2.489971 -2.540791 0.302120 0
M  V30 54 H 1.532537 -7.849023 0.873748 0
M  V30 55 H -2.446138 -9.517752 1.074536 0
M  V30 56 H -3.415613 -7.261347 0.828957 0
M  V30 57 H -2.701728 -4.582975 0.529735 0
M  V30 58 H 1.766189 -2.887385 0.324372 0
M  V30 59 H 1.954593 -0.389854 0.046719 0
M  V30 60 H -0.465973 5.278528 -0.455017 0
M  V30 61 H -0.800812 5.778314 1.887339 0
M  V30 62 H -1.913566 3.904399 3.934755 0
M  V30 63 H -1.277027 3.522522 6.245730 0
M  V30 64 H 2.699236 4.866604 5.361132 0
M  V30 65 H 2.020914 5.250890 2.991590 0
M  V30 END ATOM
M  V30 BEGIN BOND
M  V30 1 1 1 2
M  V30 2 2 2 3
M  V30 3 1 3 4
M  V30 4 1 4 5
M  V30 5 2 5 6
M  V30 6 1 6 7
M  V30 7 2 7 8
M  V30 8 1 8 9
M  V30 9 2 9 10
M  V30 10 1 4 11
M  V30 11 1 11 12
M  V30 12 1 12 13
M  V30 13 2 13 14
M  V30 14 1 14 15
M  V30 15 2 15 16
M  V30 16 1 16 17
M  V30 17 2 17 18
M  V30 18 1 18 19
M  V30 19 2 19 20
M  V30 20 1 20 21
M  V30 21 1 21 22
M  V30 22 2 22 23
M  V30 23 1 22 24
M  V30 24 2 21 25
M  V30 25 1 25 26
M  V30 26 2 26 27
M  V30 27 1 27 28
M  V30 28 1 16 29
M  V30 29 2 29 30
M  V30 30 2 11 31
M  V30 31 1 31 32
M  V30 32 2 32 33
M  V30 33 1 33 34
M  V30 34 1 34 35
M  V30 35 2 35 36
M  V30 36 1 36 37
M  V30 37 2 37 38
M  V30 38 1 38 39
M  V30 39 2 39 40
M  V30 40 1 39 41
M  V30 41 1 38 42
M  V30 42 2 42 43
M  V30 43 1 31 2
M  V30 44 1 43 35
M  V30 45 1 10 5
M  V30 46 1 30 13
M  V30 47 1 28 17
M  V30 48 1 27 19
M  V30 49 1 1 44
M  V30 50 1 1 45
M  V30 51 1 1 46
M  V30 52 1 6 47
M  V30 53 1 7 48
M  V30 54 1 8 49
M  V30 55 1 9 50
M  V30 56 1 10 51
M  V30 57 1 14 52
M  V30 58 1 15 53
M  V30 59 1 20 54
M  V30 60 1 25 55
M  V30 61 1 26 56
M  V30 62 1 28 57
M  V30 63 1 29 58
M  V30 64 1 30 59
M  V30 65 1 32 60
M  V30 66 1 34 61
M  V30 67 1 36 62
M  V30 68 1 37 63
M  V30 69 1 42 64
M  V30 70 1 43 65
M  V30 END BOND
M  V30 END CTAB
M  END
>  <Dataset>  (808) 
ChEMBL_Kinases

>  <Ligand_Instance>  (808) 
nan

>  <PDB_ID>  (808) 
nan

>  <Standardized_SMILES>  (808) 
Cc1nn(-c2ccccc2)c(Oc2ccc(-c3nc4cc([N+](=O)[O-])ccc4[nH]3)cc2)c1/C=N/Nc1ccc([N+](=O)[O-])cc1

>  <Name>  (808) 
nan

>  <Pocket>  (808) 
nan

>  <ATP_Site>  (808) 
nan

>  <Peripheral>  (808) 
nan

>  <Num_H_Atoms_ProtBoundConf>  (808) 
nan

>  <Num_Resolved_Atoms>  (808) 
nan

>  <Num_Not_Resolved_Atoms>  (808) 
nan

$$$$
CHEMBL4167070
     RDKit          3D

  0  0  0  0  0  0  0  0  0  0999 V3000
M  V30 BEGIN CTAB
M  V30 COUNTS 55 59 0 0 0
M  V30 BEGIN ATOM
M  V30 1 N 2.428043 -3.491626 0.862802 0
M  V30 2 C 2.719839 -2.204251 1.458702 0
M  V30 3 C 3.061302 -2.286867 2.923975 0
M  V30 4 C 4.494002 -1.837038 3.094286 0
M  V30 5 C 4.582882 -0.381976 2.653350 0
M  V30 6 C 4.081484 -0.203893 1.243944 0
M  V30 7 C 2.912197 0.674560 1.192527 0
M  V30 8 O 2.516238 1.134335 2.306263 0
M  V30 9 N 2.297037 0.961614 -0.054788 0
M  V30 10 C 1.156035 1.838807 0.034163 0
M  V30 11 C 1.194436 3.217028 -0.044438 0
M  V30 12 C 0.016183 3.931704 0.057690 0
M  V30 13 C -1.186569 3.275648 0.236361 0
M  V30 14 N -2.463902 3.647381 0.368669 0
M  V30 15 N -3.266343 2.589816 0.521144 0
M  V30 16 C -2.533853 1.444646 0.495336 0
M  V30 17 N -2.995570 0.104413 0.622352 0
M  V30 18 C -3.379719 -0.665830 -0.508247 0
M  V30 19 C -3.269733 -0.021349 -1.706305 0
M  V30 20 C -3.633725 -0.731032 -2.851020 0
M  V30 21 C -4.082943 -2.039473 -2.710688 0
M  V30 22 C -4.179701 -2.659833 -1.465022 0
M  V30 23 C -4.633029 -3.967278 -1.369866 0
M  V30 24 C -4.718146 -4.556551 -0.117653 0
M  V30 25 C -4.361426 -3.865696 1.020953 0
M  V30 26 C -3.911548 -2.565291 0.916102 0
M  V30 27 C -3.817008 -1.954963 -0.316166 0
M  V30 28 C -1.243285 1.899255 0.317051 0
M  V30 29 C -0.059276 1.171345 0.214945 0
M  V30 30 C 3.813079 -1.560011 0.648420 0
M  V30 31 H 1.498861 -3.441345 0.375874 0
M  V30 32 H 3.181050 -3.822977 0.246871 0
M  V30 33 H 1.836988 -1.538834 1.368948 0
M  V30 34 H 2.423653 -1.618506 3.548128 0
M  V30 35 H 2.887623 -3.307947 3.277420 0
M  V30 36 H 5.138513 -2.497160 2.509971 0
M  V30 37 H 4.776840 -1.881409 4.147588 0
M  V30 38 H 5.619055 -0.051571 2.806117 0
M  V30 39 H 3.875972 0.167972 3.339102 0
M  V30 40 H 4.900380 0.244218 0.629608 0
M  V30 41 H 2.703933 0.531769 -0.902195 0
M  V30 42 H 2.166404 3.662920 -0.184306 0
M  V30 43 H 0.040628 5.005034 -0.002869 0
M  V30 44 H -2.773814 4.660428 0.351202 0
M  V30 45 H -2.960949 -0.083680 1.647579 0
M  V30 46 H -2.920767 0.995518 -1.816964 0
M  V30 47 H -3.583737 -0.316524 -3.832107 0
M  V30 48 H -4.382364 -2.649890 -3.556981 0
M  V30 49 H -4.920602 -4.541378 -2.226142 0
M  V30 50 H -5.056067 -5.564676 0.073665 0
M  V30 51 H -4.418298 -4.306551 2.026808 0
M  V30 52 H -3.627572 -2.006156 1.789621 0
M  V30 53 H -0.113736 0.083239 0.279873 0
M  V30 54 H 4.724955 -2.144350 0.542651 0
M  V30 55 H 3.391150 -1.416674 -0.377057 0
M  V30 END ATOM
M  V30 BEGIN BOND
M  V30 1 1 1 2
M  V30 2 1 2 3
M  V30 3 1 3 4
M  V30 4 1 4 5
M  V30 5 1 5 6
M  V30 6 1 6 7
M  V30 7 2 7 8
M  V30 8 1 7 9
M  V30 9 1 9 10
M  V30 10 2 10 11
M  V30 11 1 11 12
M  V30 12 2 12 13
M  V30 13 1 13 14
M  V30 14 1 14 15
M  V30 15 2 15 16
M  V30 16 1 16 17
M  V30 17 1 17 18
M  V30 18 2 18 19
M  V30 19 1 19 20
M  V30 20 2 20 21
M  V30 21 1 21 22
M  V30 22 2 22 23
M  V30 23 1 23 24
M  V30 24 2 24 25
M  V30 25 1 25 26
M  V30 26 2 26 27
M  V30 27 1 16 28
M  V30 28 2 28 29
M  V30 29 1 6 30
M  V30 30 1 30 2
M  V30 31 1 29 10
M  V30 32 1 28 13
M  V30 33 1 27 18
M  V30 34 1 27 22
M  V30 35 1 1 31
M  V30 36 1 1 32
M  V30 37 1 2 33
M  V30 38 1 3 34
M  V30 39 1 3 35
M  V30 40 1 4 36
M  V30 41 1 4 37
M  V30 42 1 5 38
M  V30 43 1 5 39
M  V30 44 1 6 40
M  V30 45 1 9 41
M  V30 46 1 11 42
M  V30 47 1 12 43
M  V30 48 1 14 44
M  V30 49 1 17 45
M  V30 50 1 19 46
M  V30 51 1 20 47
M  V30 52 1 21 48
M  V30 53 1 23 49
M  V30 54 1 24 50
M  V30 55 1 25 51
M  V30 56 1 26 52
M  V30 57 1 29 53
M  V30 58 1 30 54
M  V30 59 1 30 55
M  V30 END BOND
M  V30 END CTAB
M  END
>  <Dataset>  (809) 
ChEMBL_Kinases

>  <Ligand_Instance>  (809) 
nan

>  <PDB_ID>  (809) 
nan

>  <Standardized_SMILES>  (809) 
NC1CCCC(C(=O)Nc2ccc3[nH]nc(Nc4cccc5ccccc45)c3c2)C1

>  <Name>  (809) 
nan

>  <Pocket>  (809) 
nan

>  <ATP_Site>  (809) 
nan

>  <Peripheral>  (809) 
nan

>  <Num_H_Atoms_ProtBoundConf>  (809) 
nan

>  <Num_Resolved_Atoms>  (809) 
nan

>  <Num_Not_Resolved_Atoms>  (809) 
nan

$$$$
CHEMBL4166956
     RDKit          3D

  0  0  0  0  0  0  0  0  0  0999 V3000
M  V30 BEGIN CTAB
M  V30 COUNTS 37 39 0 0 0
M  V30 BEGIN ATOM
M  V30 1 N -1.334680 -2.309726 2.558441 0
M  V30 2 C -0.437783 -3.446813 2.297207 0
M  V30 3 C -0.879703 -4.258827 1.141952 0
M  V30 4 C -0.265728 -3.950630 -0.181485 0
M  V30 5 C 1.079499 -3.318199 -0.158158 0
M  V30 6 C 1.352528 -2.398523 0.959724 0
M  V30 7 C 0.860695 -1.011520 0.806753 0
M  V30 8 O 0.044657 -0.287144 1.474307 0
M  V30 9 N 1.348304 -0.257502 -0.285588 0
M  V30 10 C 0.821695 1.083900 -0.365425 0
M  V30 11 C -0.335085 1.317326 -1.082951 0
M  V30 12 C -0.830718 2.616449 -1.150804 0
M  V30 13 C -0.123397 3.612686 -0.484509 0
M  V30 14 N -0.376698 4.918826 -0.390886 0
M  V30 15 N 0.525340 5.564221 0.333932 0
M  V30 16 C 1.420265 4.625624 0.737593 0
M  V30 17 C 1.033591 3.378092 0.232919 0
M  V30 18 C 1.521555 2.080899 0.296095 0
M  V30 19 C 0.987547 -3.011348 2.294228 0
M  V30 20 H -2.320751 -2.586365 2.341994 0
M  V30 21 H -1.314788 -2.066896 3.579097 0
M  V30 22 H -0.555884 -4.081403 3.225674 0
M  V30 23 H -1.988243 -4.068730 1.024642 0
M  V30 24 H -0.834224 -5.354334 1.385964 0
M  V30 25 H -0.935242 -3.355046 -0.837153 0
M  V30 26 H -0.166037 -4.929467 -0.728847 0
M  V30 27 H 1.852973 -4.140336 -0.107938 0
M  V30 28 H 1.237925 -2.791956 -1.125276 0
M  V30 29 H 2.476423 -2.286450 1.013994 0
M  V30 30 H 2.029894 -0.573481 -1.012042 0
M  V30 31 H -0.875028 0.535948 -1.595754 0
M  V30 32 H -1.734414 2.856214 -1.699869 0
M  V30 33 H -1.165268 5.434431 -0.808824 0
M  V30 34 H 2.301704 4.772831 1.349267 0
M  V30 35 H 2.428038 1.905162 0.859797 0
M  V30 36 H 1.107365 -2.275480 3.117792 0
M  V30 37 H 1.641319 -3.898859 2.427108 0
M  V30 END ATOM
M  V30 BEGIN BOND
M  V30 1 1 1 2
M  V30 2 1 2 3
M  V30 3 1 3 4
M  V30 4 1 4 5
M  V30 5 1 5 6
M  V30 6 1 6 7
M  V30 7 2 7 8
M  V30 8 1 7 9
M  V30 9 1 9 10
M  V30 10 2 10 11
M  V30 11 1 11 12
M  V30 12 2 12 13
M  V30 13 1 13 14
M  V30 14 1 14 15
M  V30 15 2 15 16
M  V30 16 1 16 17
M  V30 17 2 17 18
M  V30 18 1 6 19
M  V30 19 1 19 2
M  V30 20 1 18 10
M  V30 21 1 17 13
M  V30 22 1 1 20
M  V30 23 1 1 21
M  V30 24 1 2 22
M  V30 25 1 3 23
M  V30 26 1 3 24
M  V30 27 1 4 25
M  V30 28 1 4 26
M  V30 29 1 5 27
M  V30 30 1 5 28
M  V30 31 1 6 29
M  V30 32 1 9 30
M  V30 33 1 11 31
M  V30 34 1 12 32
M  V30 35 1 14 33
M  V30 36 1 16 34
M  V30 37 1 18 35
M  V30 38 1 19 36
M  V30 39 1 19 37
M  V30 END BOND
M  V30 END CTAB
M  END
>  <Dataset>  (810) 
ChEMBL_Kinases

>  <Ligand_Instance>  (810) 
nan

>  <PDB_ID>  (810) 
nan

>  <Standardized_SMILES>  (810) 
NC1CCCC(C(=O)Nc2ccc3[nH]ncc3c2)C1

>  <Name>  (810) 
nan

>  <Pocket>  (810) 
nan

>  <ATP_Site>  (810) 
nan

>  <Peripheral>  (810) 
nan

>  <Num_H_Atoms_ProtBoundConf>  (810) 
nan

>  <Num_Resolved_Atoms>  (810) 
nan

>  <Num_Not_Resolved_Atoms>  (810) 
nan

$$$$
CHEMBL4166840
     RDKit          3D

  0  0  0  0  0  0  0  0  0  0999 V3000
M  V30 BEGIN CTAB
M  V30 COUNTS 43 47 0 0 0
M  V30 BEGIN ATOM
M  V30 1 N 4.651708 -7.028677 3.408169 0
M  V30 2 C 3.872580 -6.248696 3.063479 0
M  V30 3 C 2.886382 -5.267563 2.655258 0
M  V30 4 C 2.125839 -4.708019 3.660485 0
M  V30 5 C 1.197474 -3.780965 3.241276 0
M  V30 6 C 0.974577 -3.380519 1.944809 0
M  V30 7 C -0.047818 -2.383855 1.666044 0
M  V30 8 N -0.317511 -1.956941 0.420060 0
M  V30 9 C -1.261278 -1.020190 0.168596 0
M  V30 10 N -1.534607 -0.560809 -1.174354 0
M  V30 11 C -0.454017 0.392785 -1.308613 0
M  V30 12 C -0.239235 1.723888 -0.942693 0
M  V30 13 C 1.016342 2.112299 -1.354861 0
M  V30 14 C 1.535439 3.487159 -1.088024 0
M  V30 15 C 2.533258 4.103290 -1.973823 0
M  V30 16 C 2.965517 3.514017 -0.648012 0
M  V30 17 N 1.558725 1.045708 -1.959421 0
M  V30 18 N 0.697484 0.033088 -1.934113 0
M  V30 19 C -2.002596 -0.453084 1.203243 0
M  V30 20 C -2.950977 0.490213 0.924591 0
M  V30 21 C -3.690583 1.053536 1.970135 0
M  V30 22 C -3.386041 0.590696 3.232815 0
M  V30 23 C -2.432765 -0.359182 3.527646 0
M  V30 24 C -1.706431 -0.908670 2.471415 0
M  V30 25 N -0.761551 -1.838490 2.669318 0
M  V30 26 C 1.748054 -3.953972 0.954596 0
M  V30 27 C 2.709024 -4.903978 1.320986 0
M  V30 28 H 2.226274 -4.957625 4.710243 0
M  V30 29 H 0.586005 -3.329488 4.036021 0
M  V30 30 H -2.189243 -0.696674 -1.957731 0
M  V30 31 H -1.043717 2.222326 -0.421792 0
M  V30 32 H 0.836111 4.158155 -0.528022 0
M  V30 33 H 2.619732 5.205254 -2.013302 0
M  V30 34 H 2.805640 3.494012 -2.881783 0
M  V30 35 H 3.214122 4.159771 0.208174 0
M  V30 36 H 3.569714 2.576950 -0.705702 0
M  V30 37 H 2.516090 1.062032 -2.369645 0
M  V30 38 H -3.132391 0.802811 -0.093094 0
M  V30 39 H -4.440764 1.799630 1.756252 0
M  V30 40 H -3.987625 1.056922 4.017782 0
M  V30 41 H -2.240514 -0.681529 4.541836 0
M  V30 42 H 1.608851 -3.669776 -0.081747 0
M  V30 43 H 3.339687 -5.375225 0.552293 0
M  V30 END ATOM
M  V30 BEGIN BOND
M  V30 1 3 1 2
M  V30 2 1 2 3
M  V30 3 2 3 4
M  V30 4 1 4 5
M  V30 5 2 5 6
M  V30 6 1 6 7
M  V30 7 2 7 8
M  V30 8 1 8 9
M  V30 9 1 9 10
M  V30 10 1 10 11
M  V30 11 1 11 12
M  V30 12 2 12 13
M  V30 13 1 13 14
M  V30 14 1 14 15
M  V30 15 1 15 16
M  V30 16 1 13 17
M  V30 17 1 17 18
M  V30 18 2 9 19
M  V30 19 1 19 20
M  V30 20 2 20 21
M  V30 21 1 21 22
M  V30 22 2 22 23
M  V30 23 1 23 24
M  V30 24 2 24 25
M  V30 25 1 6 26
M  V30 26 2 26 27
M  V30 27 1 27 3
M  V30 28 1 25 7
M  V30 29 2 18 11
M  V30 30 1 24 19
M  V30 31 1 16 14
M  V30 32 1 4 28
M  V30 33 1 5 29
M  V30 34 1 10 30
M  V30 35 1 12 31
M  V30 36 1 14 32
M  V30 37 1 15 33
M  V30 38 1 15 34
M  V30 39 1 16 35
M  V30 40 1 16 36
M  V30 41 1 17 37
M  V30 42 1 20 38
M  V30 43 1 21 39
M  V30 44 1 22 40
M  V30 45 1 23 41
M  V30 46 1 26 42
M  V30 47 1 27 43
M  V30 END BOND
M  V30 END CTAB
M  END
>  <Dataset>  (811) 
ChEMBL_Kinases

>  <Ligand_Instance>  (811) 
nan

>  <PDB_ID>  (811) 
nan

>  <Standardized_SMILES>  (811) 
N#Cc1ccc(-c2nc(Nc3cc(C4CC4)[nH]n3)c3ccccc3n2)cc1

>  <Name>  (811) 
nan

>  <Pocket>  (811) 
nan

>  <ATP_Site>  (811) 
nan

>  <Peripheral>  (811) 
nan

>  <Num_H_Atoms_ProtBoundConf>  (811) 
nan

>  <Num_Resolved_Atoms>  (811) 
nan

>  <Num_Not_Resolved_Atoms>  (811) 
nan

$$$$
CHEMBL4166813
     RDKit          3D

  0  0  0  0  0  0  0  0  0  0999 V3000
M  V30 BEGIN CTAB
M  V30 COUNTS 69 74 0 0 0
M  V30 BEGIN ATOM
M  V30 1 C -1.457540 -9.810393 2.359128 0
M  V30 2 O -1.400677 -9.603874 0.939728 0
M  V30 3 C -0.502413 -8.649028 0.425639 0
M  V30 4 C 0.282072 -7.955852 1.306460 0
M  V30 5 C 1.213098 -6.981719 0.907806 0
M  V30 6 C 1.211905 -6.837983 -0.473903 0
M  V30 7 N 2.146304 -5.855064 -0.974745 0
M  V30 8 N 1.631880 -4.516196 -1.030141 0
M  V30 9 C 1.926700 -3.813953 -2.106851 0
M  V30 10 C 1.757319 -2.524426 -2.762389 0
M  V30 11 C 2.088943 -1.869857 -3.938553 0
M  V30 12 C 2.870579 -2.648642 -4.927140 0
M  V30 13 N 1.565791 -0.652708 -3.815025 0
M  V30 14 N 0.931541 -0.454959 -2.680332 0
M  V30 15 C 0.345020 0.828013 -2.547968 0
M  V30 16 C -0.828893 0.936907 -3.311080 0
M  V30 17 C -1.602856 2.073406 -3.367467 0
M  V30 18 C -1.103396 3.072786 -2.604493 0
M  V30 19 C 0.016743 3.146296 -1.803500 0
M  V30 20 C 0.723178 1.934959 -1.824702 0
M  V30 21 C 1.030773 -1.591921 -2.003200 0
M  V30 22 O 0.461173 -1.730843 -0.741838 0
M  V30 23 C -0.156907 -0.646436 -0.071285 0
M  V30 24 C 0.900001 -0.206616 0.747297 0
M  V30 25 C 0.741866 0.891087 1.613855 0
M  V30 26 C -0.517294 1.506758 1.607289 0
M  V30 27 C -0.762989 2.667285 2.449944 0
M  V30 28 N -1.911223 3.404621 2.475323 0
M  V30 29 C -1.725243 4.423001 3.370122 0
M  V30 30 C -2.490143 5.475353 3.814655 0
M  V30 31 C -1.955168 6.365429 4.764277 0
M  V30 32 C -2.827370 7.480245 5.176576 0
M  V30 33 N -4.120992 7.661513 4.628894 0
M  V30 34 O -2.392636 8.294955 6.048835 0
M  V30 35 C -0.678288 6.259763 5.301858 0
M  V30 36 C 0.072161 5.174481 4.823366 0
M  V30 37 C -0.470812 4.330733 3.906301 0
M  V30 38 N 0.088294 3.232648 3.309512 0
M  V30 39 C -1.528375 1.047095 0.793816 0
M  V30 40 C -1.379379 -0.020815 -0.050997 0
M  V30 41 C 0.478624 -7.471601 -1.430260 0
M  V30 42 C -0.416570 -8.421304 -0.925368 0
M  V30 43 H -2.126435 -10.631189 2.640525 0
M  V30 44 H -0.431516 -10.019486 2.734228 0
M  V30 45 H -1.856666 -8.870562 2.798396 0
M  V30 46 H 0.233205 -8.118466 2.396606 0
M  V30 47 H 1.860639 -6.397288 1.536538 0
M  V30 48 H 2.980426 -6.467949 -1.168031 0
M  V30 49 H 2.547998 -4.377199 -2.830321 0
M  V30 50 H 3.522012 -1.877245 -5.441892 0
M  V30 51 H 2.283238 -3.112943 -5.720800 0
M  V30 52 H 3.616135 -3.329974 -4.438971 0
M  V30 53 H -1.216699 0.102773 -3.929862 0
M  V30 54 H -2.506850 2.196876 -3.939354 0
M  V30 55 H -1.666282 4.027098 -2.589144 0
M  V30 56 H 0.378251 3.958555 -1.212069 0
M  V30 57 H 1.632294 1.765556 -1.270546 0
M  V30 58 H 1.932973 -0.549612 0.889897 0
M  V30 59 H 1.467737 1.321741 2.285023 0
M  V30 60 H -3.490922 5.627969 3.448620 0
M  V30 61 H -3.774319 8.007958 3.684223 0
M  V30 62 H -4.871335 7.396917 5.334118 0
M  V30 63 H -0.278098 6.936552 6.015167 0
M  V30 64 H 1.061694 5.105665 5.248490 0
M  V30 65 H 1.075514 2.894906 3.520948 0
M  V30 66 H -2.521881 1.467859 0.735276 0
M  V30 67 H -2.002551 -0.530239 -0.746422 0
M  V30 68 H 0.563024 -7.276256 -2.483038 0
M  V30 69 H -1.057551 -9.000939 -1.572726 0
M  V30 END ATOM
M  V30 BEGIN BOND
M  V30 1 1 1 2
M  V30 2 1 2 3
M  V30 3 2 3 4
M  V30 4 1 4 5
M  V30 5 2 5 6
M  V30 6 1 6 7
M  V30 7 1 7 8
M  V30 8 2 8 9
M  V30 9 1 9 10
M  V30 10 1 10 11
M  V30 11 1 11 12
M  V30 12 2 11 13
M  V30 13 1 13 14
M  V30 14 1 14 15
M  V30 15 2 15 16
M  V30 16 1 16 17
M  V30 17 2 17 18
M  V30 18 1 18 19
M  V30 19 2 19 20
M  V30 20 1 14 21
M  V30 21 1 21 22
M  V30 22 1 22 23
M  V30 23 2 23 24
M  V30 24 1 24 25
M  V30 25 2 25 26
M  V30 26 1 26 27
M  V30 27 2 27 28
M  V30 28 1 28 29
M  V30 29 2 29 30
M  V30 30 1 30 31
M  V30 31 1 31 32
M  V30 32 1 32 33
M  V30 33 2 32 34
M  V30 34 2 31 35
M  V30 35 1 35 36
M  V30 36 2 36 37
M  V30 37 1 37 38
M  V30 38 1 26 39
M  V30 39 2 39 40
M  V30 40 1 6 41
M  V30 41 2 41 42
M  V30 42 1 42 3
M  V30 43 2 21 10
M  V30 44 1 40 23
M  V30 45 1 20 15
M  V30 46 1 38 27
M  V30 47 1 37 29
M  V30 48 1 1 43
M  V30 49 1 1 44
M  V30 50 1 1 45
M  V30 51 1 4 46
M  V30 52 1 5 47
M  V30 53 1 7 48
M  V30 54 1 9 49
M  V30 55 1 12 50
M  V30 56 1 12 51
M  V30 57 1 12 52
M  V30 58 1 16 53
M  V30 59 1 17 54
M  V30 60 1 18 55
M  V30 61 1 19 56
M  V30 62 1 20 57
M  V30 63 1 24 58
M  V30 64 1 25 59
M  V30 65 1 30 60
M  V30 66 1 33 61
M  V30 67 1 33 62
M  V30 68 1 35 63
M  V30 69 1 36 64
M  V30 70 1 38 65
M  V30 71 1 39 66
M  V30 72 1 40 67
M  V30 73 1 41 68
M  V30 74 1 42 69
M  V30 END BOND
M  V30 END CTAB
M  END
>  <Dataset>  (812) 
ChEMBL_Kinases

>  <Ligand_Instance>  (812) 
nan

>  <PDB_ID>  (812) 
nan

>  <Standardized_SMILES>  (812) 
COc1ccc(N/N=C/c2c(C)nn(-c3ccccc3)c2Oc2ccc(-c3nc4cc(C(N)=O)ccc4[nH]3)cc2)cc1

>  <Name>  (812) 
nan

>  <Pocket>  (812) 
nan

>  <ATP_Site>  (812) 
nan

>  <Peripheral>  (812) 
nan

>  <Num_H_Atoms_ProtBoundConf>  (812) 
nan

>  <Num_Resolved_Atoms>  (812) 
nan

>  <Num_Not_Resolved_Atoms>  (812) 
nan

$$$$
CHEMBL4786995
     RDKit          3D

  0  0  0  0  0  0  0  0  0  0999 V3000
M  V30 BEGIN CTAB
M  V30 COUNTS 58 61 0 0 0
M  V30 BEGIN ATOM
M  V30 1 C 4.666097 -1.294455 6.807943 0
M  V30 2 C 3.857295 -0.249194 6.135077 0
M  V30 3 O 3.528979 0.819800 6.727603 0
M  V30 4 N 3.459542 -0.488284 4.792912 0
M  V30 5 C 2.668834 0.466318 4.044775 0 CFG=2
M  V30 6 C 1.329557 -0.091048 3.640073 0
M  V30 7 C 0.518655 1.046244 3.053839 0
M  V30 8 C 1.407589 2.213940 2.664613 0
M  V30 9 C 2.651040 1.755208 1.947867 0 CFG=2
M  V30 10 C 2.225194 0.993172 0.721306 0
M  V30 11 O 2.491076 -0.224987 0.443883 0
M  V30 12 N 1.441819 1.576094 -0.312710 0
M  V30 13 C 1.221013 0.570126 -1.324901 0
M  V30 14 C 0.082112 -0.182295 -1.122005 0
M  V30 15 C -0.264833 -1.183929 -2.004532 0
M  V30 16 C -1.469675 -1.973844 -1.782478 0
M  V30 17 C -1.296534 -3.127373 -1.013289 0
M  V30 18 N -2.516010 -3.715478 -0.922206 0
M  V30 19 N -3.400913 -2.976807 -1.592964 0
M  V30 20 C -2.783895 -1.914210 -2.122747 0
M  V30 21 C -3.194124 -0.757387 -2.948607 0
M  V30 22 C -4.601401 -1.043900 -3.448893 0
M  V30 23 C -4.633988 -2.413496 -4.045792 0
M  V30 24 C -5.251940 -3.448780 -3.144545 0
M  V30 25 C -4.797196 -3.283689 -1.720393 0
M  V30 26 C 0.582102 -1.377931 -3.076656 0
M  V30 27 Cl 0.205771 -2.625343 -4.230704 0
M  V30 28 C 1.723824 -0.602856 -3.254637 0
M  V30 29 N 2.036964 0.377139 -2.365239 0
M  V30 30 C 3.460565 0.832979 2.809271 0
M  V30 31 H 5.011349 -0.977768 7.813214 0
M  V30 32 H 4.016846 -2.196464 7.000805 0
M  V30 33 H 5.552964 -1.615469 6.240810 0
M  V30 34 H 3.706780 -1.353243 4.266218 0
M  V30 35 H 2.475078 1.324291 4.699440 0
M  V30 36 H 0.764785 -0.437810 4.525282 0
M  V30 37 H 1.409903 -0.893305 2.882492 0
M  V30 38 H -0.214942 1.469285 3.790982 0
M  V30 39 H -0.112584 0.735059 2.192408 0
M  V30 40 H 1.627353 2.873577 3.506639 0
M  V30 41 H 0.819070 2.827348 1.939793 0
M  V30 42 H 3.190700 2.636727 1.593897 0
M  V30 43 H 1.140405 2.592035 -0.223007 0
M  V30 44 H -0.591294 -0.024278 -0.264947 0
M  V30 45 H -0.459326 -3.606859 -0.517385 0
M  V30 46 H -3.181299 0.161208 -2.342292 0
M  V30 47 H -2.504596 -0.696630 -3.833535 0
M  V30 48 H -4.931985 -0.256325 -4.171762 0
M  V30 49 H -5.298297 -1.016727 -2.588682 0
M  V30 50 H -5.286480 -2.350069 -4.961876 0
M  V30 51 H -3.620426 -2.757209 -4.341331 0
M  V30 52 H -6.345830 -3.432640 -3.162355 0
M  V30 53 H -4.877682 -4.436091 -3.512555 0
M  V30 54 H -5.016459 -4.229220 -1.152686 0
M  V30 55 H -5.393097 -2.504937 -1.196603 0
M  V30 56 H 2.385478 -0.758773 -4.097545 0
M  V30 57 H 3.730300 -0.112733 2.295942 0
M  V30 58 H 4.400375 1.323438 3.150039 0
M  V30 END ATOM
M  V30 BEGIN BOND
M  V30 1 1 1 2
M  V30 2 2 2 3
M  V30 3 1 2 4
M  V30 4 1 4 5
M  V30 5 1 5 6
M  V30 6 1 6 7
M  V30 7 1 7 8
M  V30 8 1 8 9
M  V30 9 1 9 10
M  V30 10 2 10 11
M  V30 11 1 10 12
M  V30 12 1 12 13
M  V30 13 2 13 14
M  V30 14 1 14 15
M  V30 15 1 15 16
M  V30 16 1 16 17
M  V30 17 2 17 18
M  V30 18 1 18 19
M  V30 19 1 19 20
M  V30 20 1 20 21
M  V30 21 1 21 22
M  V30 22 1 22 23
M  V30 23 1 23 24
M  V30 24 1 24 25
M  V30 25 2 15 26
M  V30 26 1 26 27
M  V30 27 1 26 28
M  V30 28 2 28 29
M  V30 29 1 9 30
M  V30 30 1 30 5
M  V30 31 1 29 13
M  V30 32 2 20 16
M  V30 33 1 25 19
M  V30 34 1 1 31
M  V30 35 1 1 32
M  V30 36 1 1 33
M  V30 37 1 4 34
M  V30 38 1 5 35 CFG=1
M  V30 39 1 6 36
M  V30 40 1 6 37
M  V30 41 1 7 38
M  V30 42 1 7 39
M  V30 43 1 8 40
M  V30 44 1 8 41
M  V30 45 1 9 42 CFG=3
M  V30 46 1 12 43
M  V30 47 1 14 44
M  V30 48 1 17 45
M  V30 49 1 21 46
M  V30 50 1 21 47
M  V30 51 1 22 48
M  V30 52 1 22 49
M  V30 53 1 23 50
M  V30 54 1 23 51
M  V30 55 1 24 52
M  V30 56 1 24 53
M  V30 57 1 25 54
M  V30 58 1 25 55
M  V30 59 1 28 56
M  V30 60 1 30 57
M  V30 61 1 30 58
M  V30 END BOND
M  V30 END CTAB
M  END
>  <Dataset>  (813) 
ChEMBL_Kinases

>  <Ligand_Instance>  (813) 
nan

>  <PDB_ID>  (813) 
nan

>  <Standardized_SMILES>  (813) 
CC(=O)N[C@@H]1CCC[C@H](C(=O)Nc2cc(-c3cnn4c3CCCCC4)c(Cl)cn2)C1

>  <Name>  (813) 
nan

>  <Pocket>  (813) 
nan

>  <ATP_Site>  (813) 
nan

>  <Peripheral>  (813) 
nan

>  <Num_H_Atoms_ProtBoundConf>  (813) 
nan

>  <Num_Resolved_Atoms>  (813) 
nan

>  <Num_Not_Resolved_Atoms>  (813) 
nan

$$$$
CHEMBL4787030
     RDKit          3D

  0  0  0  0  0  0  0  0  0  0999 V3000
M  V30 BEGIN CTAB
M  V30 COUNTS 47 50 0 0 0
M  V30 BEGIN ATOM
M  V30 1 O 2.775129 -0.491467 3.695282 0
M  V30 2 C 2.272999 -0.724926 2.559496 0
M  V30 3 N 3.018449 -0.933469 1.407117 0
M  V30 4 C 2.355506 -1.164164 0.331908 0
M  V30 5 N 2.858729 -1.400431 -0.966180 0
M  V30 6 C 4.028100 -0.713612 -1.416329 0
M  V30 7 C 3.838472 0.762980 -1.613147 0
M  V30 8 C 3.436678 1.507327 -0.415708 0
M  V30 9 C 4.375724 2.002528 0.475436 0
M  V30 10 C 4.073033 2.720722 1.624666 0
M  V30 11 C 2.734508 2.933310 1.858177 0
M  V30 12 O 2.405391 3.652775 3.010814 0
M  V30 13 C 1.688508 2.491951 1.044756 0
M  V30 14 O 0.352337 2.721012 1.305523 0
M  V30 15 C 2.137348 1.793729 -0.059366 0
M  V30 16 S 0.575702 -1.227697 0.686871 0
M  V30 17 C 0.819065 -0.784632 2.427696 0
M  V30 18 C -0.195421 -0.562768 3.240207 0
M  V30 19 C -1.579817 -0.724484 2.760027 0
M  V30 20 C -2.700867 0.072898 2.977690 0
M  V30 21 C -3.725852 -0.552090 2.295621 0
M  V30 22 C -3.224593 -1.682709 1.694477 0
M  V30 23 C -3.918825 -2.673405 0.864948 0
M  V30 24 C -5.262903 -2.491693 0.617235 0
M  V30 25 C -5.945561 -3.437169 -0.162380 0
M  V30 26 C -5.180041 -4.502306 -0.627171 0
M  V30 27 C -3.838535 -4.717259 -0.401103 0
M  V30 28 Cl -2.989693 -6.103621 -1.041780 0
M  V30 29 C -3.218984 -3.753082 0.373169 0
M  V30 30 O -1.951217 -1.709208 2.019088 0
M  V30 31 H 2.325702 -2.100278 -1.560277 0
M  V30 32 H 4.250886 -1.113210 -2.453983 0
M  V30 33 H 4.928792 -0.915823 -0.801953 0
M  V30 34 H 3.138186 0.955167 -2.459516 0
M  V30 35 H 4.822658 1.183670 -1.940001 0
M  V30 36 H 5.441409 1.840250 0.297702 0
M  V30 37 H 4.822505 3.094676 2.298495 0
M  V30 38 H 1.701161 3.285915 3.636792 0
M  V30 39 H -0.126989 3.601021 1.207751 0
M  V30 40 H 1.368333 1.417830 -0.737079 0
M  V30 41 H 0.081164 -0.261970 4.240158 0
M  V30 42 H -2.700345 0.979727 3.567213 0
M  V30 43 H -4.762711 -0.201145 2.246317 0
M  V30 44 H -5.801408 -1.641879 1.006907 0
M  V30 45 H -6.997194 -3.335005 -0.380064 0
M  V30 46 H -5.754830 -5.200677 -1.218367 0
M  V30 47 H -2.160600 -3.841579 0.604463 0
M  V30 END ATOM
M  V30 BEGIN BOND
M  V30 1 2 1 2
M  V30 2 1 2 3
M  V30 3 2 3 4
M  V30 4 1 4 5
M  V30 5 1 5 6
M  V30 6 1 6 7
M  V30 7 1 7 8
M  V30 8 2 8 9
M  V30 9 1 9 10
M  V30 10 2 10 11
M  V30 11 1 11 12
M  V30 12 1 11 13
M  V30 13 1 13 14
M  V30 14 2 13 15
M  V30 15 1 4 16
M  V30 16 1 16 17
M  V30 17 2 17 18
M  V30 18 1 18 19
M  V30 19 2 19 20
M  V30 20 1 20 21
M  V30 21 2 21 22
M  V30 22 1 22 23
M  V30 23 2 23 24
M  V30 24 1 24 25
M  V30 25 2 25 26
M  V30 26 1 26 27
M  V30 27 1 27 28
M  V30 28 2 27 29
M  V30 29 1 22 30
M  V30 30 1 17 2
M  V30 31 1 30 19
M  V30 32 1 15 8
M  V30 33 1 29 23
M  V30 34 1 5 31
M  V30 35 1 6 32
M  V30 36 1 6 33
M  V30 37 1 7 34
M  V30 38 1 7 35
M  V30 39 1 9 36
M  V30 40 1 10 37
M  V30 41 1 12 38
M  V30 42 1 14 39
M  V30 43 1 15 40
M  V30 44 1 18 41
M  V30 45 1 20 42
M  V30 46 1 21 43
M  V30 47 1 24 44
M  V30 48 1 25 45
M  V30 49 1 26 46
M  V30 50 1 29 47
M  V30 END BOND
M  V30 END CTAB
M  END
>  <Dataset>  (814) 
ChEMBL_Kinases

>  <Ligand_Instance>  (814) 
nan

>  <PDB_ID>  (814) 
nan

>  <Standardized_SMILES>  (814) 
O=C1N=C(NCCc2ccc(O)c(O)c2)S/C1=C\c1ccc(-c2cccc(Cl)c2)o1

>  <Name>  (814) 
nan

>  <Pocket>  (814) 
nan

>  <ATP_Site>  (814) 
nan

>  <Peripheral>  (814) 
nan

>  <Num_H_Atoms_ProtBoundConf>  (814) 
nan

>  <Num_Resolved_Atoms>  (814) 
nan

>  <Num_Not_Resolved_Atoms>  (814) 
nan

$$$$
CHEMBL4166474
     RDKit          3D

  0  0  0  0  0  0  0  0  0  0999 V3000
M  V30 BEGIN CTAB
M  V30 COUNTS 25 26 0 0 0
M  V30 BEGIN ATOM
M  V30 1 O -0.908836 1.065133 2.403662 0
M  V30 2 C -1.210353 -0.131578 2.164722 0
M  V30 3 N -0.288974 -0.886684 1.409065 0
M  V30 4 C 0.949892 -0.414773 0.893859 0
M  V30 5 C 2.097515 -0.532589 1.667549 0
M  V30 6 C 3.312255 -0.077285 1.179086 0
M  V30 7 C 3.441541 0.500862 -0.066875 0
M  V30 8 C 2.283899 0.611577 -0.828996 0
M  V30 9 C 2.364999 1.231088 -2.189557 0
M  V30 10 F 1.213061 1.976315 -2.341699 0
M  V30 11 F 3.502533 1.978726 -2.341109 0
M  V30 12 F 2.365715 0.254603 -3.169432 0
M  V30 13 C 1.053938 0.167963 -0.373623 0
M  V30 14 C -2.459478 -0.598300 2.687248 0
M  V30 15 N -3.212629 0.308049 3.402344 0
M  V30 16 S -4.668907 -0.692865 3.857648 0
M  V30 17 N -4.130149 -2.248062 3.040671 0
M  V30 18 C -2.880449 -1.850197 2.494660 0
M  V30 19 O -2.439570 -2.978597 1.874696 0
M  V30 20 H -0.509446 -1.880401 1.194390 0
M  V30 21 H 1.986553 -0.986858 2.642372 0
M  V30 22 H 4.187058 -0.172845 1.781819 0
M  V30 23 H 4.387017 0.857867 -0.452985 0
M  V30 24 H 0.159083 0.261560 -0.980806 0
M  V30 25 H -2.510819 -3.167347 0.881256 0
M  V30 END ATOM
M  V30 BEGIN BOND
M  V30 1 2 1 2
M  V30 2 1 2 3
M  V30 3 1 3 4
M  V30 4 2 4 5
M  V30 5 1 5 6
M  V30 6 2 6 7
M  V30 7 1 7 8
M  V30 8 1 8 9
M  V30 9 1 9 10
M  V30 10 1 9 11
M  V30 11 1 9 12
M  V30 12 2 8 13
M  V30 13 1 2 14
M  V30 14 2 14 15
M  V30 15 1 15 16
M  V30 16 1 16 17
M  V30 17 2 17 18
M  V30 18 1 18 19
M  V30 19 1 13 4
M  V30 20 1 18 14
M  V30 21 1 3 20
M  V30 22 1 5 21
M  V30 23 1 6 22
M  V30 24 1 7 23
M  V30 25 1 13 24
M  V30 26 1 19 25
M  V30 END BOND
M  V30 END CTAB
M  END
>  <Dataset>  (815) 
ChEMBL_Kinases

>  <Ligand_Instance>  (815) 
nan

>  <PDB_ID>  (815) 
nan

>  <Standardized_SMILES>  (815) 
O=C(Nc1cccc(C(F)(F)F)c1)c1nsnc1O

>  <Name>  (815) 
nan

>  <Pocket>  (815) 
nan

>  <ATP_Site>  (815) 
nan

>  <Peripheral>  (815) 
nan

>  <Num_H_Atoms_ProtBoundConf>  (815) 
nan

>  <Num_Resolved_Atoms>  (815) 
nan

>  <Num_Not_Resolved_Atoms>  (815) 
nan

$$$$
CHEMBL4166424
     RDKit          3D

  0  0  0  0  0  0  0  0  0  0999 V3000
M  V30 BEGIN CTAB
M  V30 COUNTS 56 60 0 0 0
M  V30 BEGIN ATOM
M  V30 1 O -3.185512 -4.755105 3.235285 0
M  V30 2 C -2.517614 -3.742357 2.988531 0
M  V30 3 N -2.426538 -2.606516 3.835894 0
M  V30 4 C -1.552112 -1.693667 3.149734 0
M  V30 5 C -1.171639 -0.458036 3.624261 0
M  V30 6 C -0.309009 0.299080 2.860606 0
M  V30 7 C 0.169451 -0.177220 1.632653 0
M  V30 8 C 1.086233 0.624938 0.820419 0
M  V30 9 O 1.550957 0.145012 -0.254927 0
M  V30 10 N 1.484097 1.934576 1.187233 0
M  V30 11 C 2.391487 2.733634 0.393782 0 CFG=2
M  V30 12 C 3.481092 3.391603 1.171442 0
M  V30 13 O 4.317165 4.147265 0.316021 0
M  V30 14 C 1.551164 3.843457 -0.192652 0
M  V30 15 C 0.661777 4.533691 0.604520 0
M  V30 16 C -0.148524 5.564251 0.128708 0
M  V30 17 C -0.057723 5.916262 -1.217947 0
M  V30 18 C 0.839433 5.224917 -2.036955 0
M  V30 19 C 1.622976 4.212533 -1.528826 0
M  V30 20 C -0.268207 -1.424563 1.242111 0
M  V30 21 C -1.126393 -2.225303 1.954205 0
M  V30 22 C -1.720204 -3.542513 1.801181 0
M  V30 23 C -1.460679 -4.314133 0.768606 0
M  V30 24 C -0.647505 -4.024545 -0.400587 0
M  V30 25 C 0.606788 -4.492533 -0.721379 0
M  V30 26 C 1.215364 -4.187308 -1.914651 0
M  V30 27 C 0.504846 -3.376110 -2.797789 0
M  V30 28 Cl 1.244855 -2.963456 -4.327257 0
M  V30 29 C -0.752989 -2.876595 -2.535060 0
M  V30 30 F -1.369796 -2.096829 -3.449780 0
M  V30 31 C -1.338921 -3.207447 -1.313708 0
M  V30 32 C -2.033059 -5.668996 0.760146 0
M  V30 33 N -2.177082 -6.608742 1.676575 0
M  V30 34 C -2.779052 -7.699476 1.190851 0
M  V30 35 C -3.057099 -7.476889 -0.139521 0
M  V30 36 N -2.592192 -6.250587 -0.348311 0
M  V30 37 H -2.911252 -2.495967 4.761368 0
M  V30 38 H -1.513809 -0.056980 4.558913 0
M  V30 39 H -0.018114 1.261242 3.239036 0
M  V30 40 H 1.146338 2.392011 2.044285 0
M  V30 41 H 2.817312 2.215505 -0.473929 0
M  V30 42 H 3.055194 4.154299 1.890466 0
M  V30 43 H 4.095554 2.713249 1.791940 0
M  V30 44 H 3.710126 4.780716 -0.174668 0
M  V30 45 H 0.541389 4.306128 1.674156 0
M  V30 46 H -0.846828 6.090949 0.795756 0
M  V30 47 H -0.664992 6.705440 -1.628681 0
M  V30 48 H 0.950156 5.455528 -3.083501 0
M  V30 49 H 2.335872 3.637786 -2.103392 0
M  V30 50 H 0.168909 -1.712689 0.307370 0
M  V30 51 H 1.050415 -5.117201 0.060956 0
M  V30 52 H 2.200586 -4.580990 -2.116219 0
M  V30 53 H -2.336749 -2.784998 -1.156614 0
M  V30 54 H -3.011378 -8.607108 1.739796 0
M  V30 55 H -3.530981 -8.100844 -0.875022 0
M  V30 56 H -2.650079 -5.764235 -1.292587 0
M  V30 END ATOM
M  V30 BEGIN BOND
M  V30 1 2 1 2
M  V30 2 1 2 3
M  V30 3 1 3 4
M  V30 4 2 4 5
M  V30 5 1 5 6
M  V30 6 2 6 7
M  V30 7 1 7 8
M  V30 8 2 8 9
M  V30 9 1 8 10
M  V30 10 1 10 11
M  V30 11 1 11 12
M  V30 12 1 12 13
M  V30 13 1 11 14
M  V30 14 2 14 15
M  V30 15 1 15 16
M  V30 16 2 16 17
M  V30 17 1 17 18
M  V30 18 2 18 19
M  V30 19 1 7 20
M  V30 20 2 20 21
M  V30 21 1 21 22
M  V30 22 2 22 23
M  V30 23 1 23 24
M  V30 24 2 24 25
M  V30 25 1 25 26
M  V30 26 2 26 27
M  V30 27 1 27 28
M  V30 28 1 27 29
M  V30 29 1 29 30
M  V30 30 2 29 31
M  V30 31 1 23 32
M  V30 32 2 32 33
M  V30 33 1 33 34
M  V30 34 2 34 35
M  V30 35 1 35 36
M  V30 36 1 22 2
M  V30 37 1 31 24
M  V30 38 1 36 32
M  V30 39 1 21 4
M  V30 40 1 19 14
M  V30 41 1 3 37
M  V30 42 1 5 38
M  V30 43 1 6 39
M  V30 44 1 10 40
M  V30 45 1 11 41 CFG=3
M  V30 46 1 12 42
M  V30 47 1 12 43
M  V30 48 1 13 44
M  V30 49 1 15 45
M  V30 50 1 16 46
M  V30 51 1 17 47
M  V30 52 1 18 48
M  V30 53 1 19 49
M  V30 54 1 20 50
M  V30 55 1 25 51
M  V30 56 1 26 52
M  V30 57 1 31 53
M  V30 58 1 34 54
M  V30 59 1 35 55
M  V30 60 1 36 56
M  V30 END BOND
M  V30 END CTAB
M  END
>  <Dataset>  (816) 
ChEMBL_Kinases

>  <Ligand_Instance>  (816) 
nan

>  <PDB_ID>  (816) 
nan

>  <Standardized_SMILES>  (816) 
O=C1Nc2ccc(C(=O)N[C@H](CO)c3ccccc3)cc2/C1=C(\c1ccc(Cl)c(F)c1)c1ncc[nH]1

>  <Name>  (816) 
nan

>  <Pocket>  (816) 
nan

>  <ATP_Site>  (816) 
nan

>  <Peripheral>  (816) 
nan

>  <Num_H_Atoms_ProtBoundConf>  (816) 
nan

>  <Num_Resolved_Atoms>  (816) 
nan

>  <Num_Not_Resolved_Atoms>  (816) 
nan

$$$$
CHEMBL4167265
     RDKit          3D

  0  0  0  0  0  0  0  0  0  0999 V3000
M  V30 BEGIN CTAB
M  V30 COUNTS 43 47 0 0 0
M  V30 BEGIN ATOM
M  V30 1 N 6.017770 -4.036965 4.042046 0
M  V30 2 C 5.047651 -3.694251 3.516251 0
M  V30 3 C 3.838063 -3.266633 2.834633 0
M  V30 4 C 3.787251 -2.130902 2.025093 0
M  V30 5 C 2.588386 -1.809820 1.416862 0
M  V30 6 C 1.465675 -2.588171 1.600818 0
M  V30 7 C 0.202929 -2.233705 0.962549 0
M  V30 8 N 0.103987 -1.143859 0.144262 0
M  V30 9 C -1.042684 -0.786096 -0.442603 0
M  V30 10 N -1.041910 0.344253 -1.299405 0
M  V30 11 C -0.947690 1.649280 -0.702538 0
M  V30 12 C 0.396332 1.845396 -0.426301 0
M  V30 13 C 0.619390 3.088416 0.159666 0
M  V30 14 C 1.822435 3.801833 0.666628 0
M  V30 15 C 2.597140 2.983816 1.756300 0
M  V30 16 C 3.186690 3.206529 0.403319 0
M  V30 17 N -0.633510 3.619818 0.217892 0
M  V30 18 N -1.536606 2.795721 -0.276871 0
M  V30 19 C -2.128280 -1.574503 -0.179965 0
M  V30 20 C -3.357791 -1.270785 -0.761991 0
M  V30 21 C -4.496209 -2.016845 -0.554588 0
M  V30 22 Cl -6.027225 -1.593673 -1.316368 0
M  V30 23 C -4.425319 -3.141220 0.283144 0
M  V30 24 C -3.212366 -3.471599 0.879625 0
M  V30 25 C -2.109567 -2.694666 0.637842 0
M  V30 26 N -0.905004 -2.962892 1.175578 0
M  V30 27 C 1.510271 -3.723773 2.407898 0
M  V30 28 C 2.709370 -4.058128 3.025772 0
M  V30 29 H 4.692242 -1.534998 1.901984 0
M  V30 30 H 2.505649 -0.935091 0.780393 0
M  V30 31 H -1.110918 0.225274 -2.331077 0
M  V30 32 H 1.355953 1.319078 -0.525060 0
M  V30 33 H 1.730594 4.871377 0.896319 0
M  V30 34 H 2.182962 1.964703 1.980890 0
M  V30 35 H 2.927561 3.539503 2.635587 0
M  V30 36 H 3.263250 2.272934 -0.229582 0
M  V30 37 H 4.048907 3.895352 0.332558 0
M  V30 38 H -0.996647 4.545977 0.577401 0
M  V30 39 H -3.404469 -0.413855 -1.395774 0
M  V30 40 H -5.336419 -3.704441 0.417220 0
M  V30 41 H -3.146584 -4.322795 1.515349 0
M  V30 42 H 0.599146 -4.293130 2.514595 0
M  V30 43 H 2.634563 -4.945847 3.622440 0
M  V30 END ATOM
M  V30 BEGIN BOND
M  V30 1 3 1 2
M  V30 2 1 2 3
M  V30 3 2 3 4
M  V30 4 1 4 5
M  V30 5 2 5 6
M  V30 6 1 6 7
M  V30 7 2 7 8
M  V30 8 1 8 9
M  V30 9 1 9 10
M  V30 10 1 10 11
M  V30 11 1 11 12
M  V30 12 2 12 13
M  V30 13 1 13 14
M  V30 14 1 14 15
M  V30 15 1 15 16
M  V30 16 1 13 17
M  V30 17 1 17 18
M  V30 18 2 9 19
M  V30 19 1 19 20
M  V30 20 2 20 21
M  V30 21 1 21 22
M  V30 22 1 21 23
M  V30 23 2 23 24
M  V30 24 1 24 25
M  V30 25 2 25 26
M  V30 26 1 6 27
M  V30 27 2 27 28
M  V30 28 1 28 3
M  V30 29 1 26 7
M  V30 30 2 18 11
M  V30 31 1 25 19
M  V30 32 1 16 14
M  V30 33 1 4 29
M  V30 34 1 5 30
M  V30 35 1 10 31
M  V30 36 1 12 32
M  V30 37 1 14 33
M  V30 38 1 15 34
M  V30 39 1 15 35
M  V30 40 1 16 36
M  V30 41 1 16 37
M  V30 42 1 17 38
M  V30 43 1 20 39
M  V30 44 1 23 40
M  V30 45 1 24 41
M  V30 46 1 27 42
M  V30 47 1 28 43
M  V30 END BOND
M  V30 END CTAB
M  END
>  <Dataset>  (817) 
ChEMBL_Kinases

>  <Ligand_Instance>  (817) 
nan

>  <PDB_ID>  (817) 
nan

>  <Standardized_SMILES>  (817) 
N#Cc1ccc(-c2nc(Nc3cc(C4CC4)[nH]n3)c3cc(Cl)ccc3n2)cc1

>  <Name>  (817) 
nan

>  <Pocket>  (817) 
nan

>  <ATP_Site>  (817) 
nan

>  <Peripheral>  (817) 
nan

>  <Num_H_Atoms_ProtBoundConf>  (817) 
nan

>  <Num_Resolved_Atoms>  (817) 
nan

>  <Num_Not_Resolved_Atoms>  (817) 
nan

$$$$
CHEMBL4174408
     RDKit          3D

  0  0  0  0  0  0  0  0  0  0999 V3000
M  V30 BEGIN CTAB
M  V30 COUNTS 72 78 0 0 0
M  V30 BEGIN ATOM
M  V30 1 C 2.853134 -0.785896 0.361444 0
M  V30 2 C 2.197461 0.508574 -0.021004 0 CFG=2
M  V30 3 C 2.855671 0.977295 -1.315775 0
M  V30 4 C 3.829995 2.087387 -1.116164 0
M  V30 5 C 4.759571 1.882359 0.050668 0 CFG=2
M  V30 6 N 5.649218 0.740248 -0.167967 0
M  V30 7 C 6.249099 -0.123530 0.648047 0
M  V30 8 C 6.985984 -1.013816 -0.106003 0
M  V30 9 N 6.789138 -0.633729 -1.367889 0
M  V30 10 N 5.996492 0.406783 -1.408972 0
M  V30 11 C 3.944335 1.758785 1.302600 0
M  V30 12 C 2.490803 1.596708 0.983780 0 CFG=2
M  V30 13 C 1.669156 1.486466 2.243103 0
M  V30 14 C 0.220280 1.669333 1.784892 0
M  V30 15 C -0.083607 0.390787 1.016545 0 CFG=2
M  V30 16 C 0.739665 0.424800 -0.257581 0 CFG=2
M  V30 17 C 0.368839 -0.692898 -1.201688 0
M  V30 18 C -1.090901 -0.889619 -1.369703 0
M  V30 19 C -1.828685 -0.908906 -0.053762 0 CFG=2
M  V30 20 C -1.356645 -2.034521 0.796413 0
M  V30 21 C -3.318575 -0.793356 -0.202038 0 CFG=1
M  V30 22 C -4.078368 -2.000029 0.122905 0
M  V30 23 C -4.179991 -2.617509 1.351083 0
M  V30 24 C -4.911512 -3.757457 1.605103 0
M  V30 25 C -5.604445 -4.347224 0.572525 0
M  V30 26 C -6.346712 -5.488684 0.790654 0
M  V30 27 C -7.020595 -6.026053 -0.307575 0
M  V30 28 N -6.956409 -5.464614 -1.528663 0
M  V30 29 C -6.240957 -4.347287 -1.783361 0
M  V30 30 C -5.574014 -3.814203 -0.699684 0
M  V30 31 C -4.816110 -2.671014 -0.864489 0
M  V30 32 C -3.702047 0.403085 0.560211 0
M  V30 33 C -2.563557 0.605040 1.533834 0
M  V30 34 C -1.474803 0.454115 0.548687 0 CFG=1
M  V30 35 H 3.475005 -0.670537 1.294331 0
M  V30 36 H 2.150521 -1.600861 0.617667 0
M  V30 37 H 3.534165 -1.192860 -0.416379 0
M  V30 38 H 3.377308 0.137465 -1.832198 0
M  V30 39 H 2.092104 1.351237 -2.053265 0
M  V30 40 H 3.399171 3.091551 -1.035159 0
M  V30 41 H 4.483085 2.115791 -2.025837 0
M  V30 42 H 5.442297 2.766018 0.070647 0
M  V30 43 H 6.096363 -0.026956 1.709179 0
M  V30 44 H 7.563457 -1.814979 0.367501 0
M  V30 45 H 4.347975 1.031866 2.022607 0
M  V30 46 H 4.022629 2.749633 1.836962 0
M  V30 47 H 2.150118 2.547680 0.496846 0
M  V30 48 H 1.980259 2.299568 2.905211 0
M  V30 49 H 1.732007 0.487343 2.703914 0
M  V30 50 H -0.471237 1.827557 2.630551 0
M  V30 51 H 0.231137 2.528390 1.072301 0
M  V30 52 H 0.173203 -0.432050 1.675576 0
M  V30 53 H 0.430356 1.368227 -0.774213 0
M  V30 54 H 0.750251 -0.350313 -2.208437 0
M  V30 55 H 0.927776 -1.634858 -1.018907 0
M  V30 56 H -1.271766 -1.837578 -1.887281 0
M  V30 57 H -1.530025 -0.070721 -1.993452 0
M  V30 58 H -1.321232 -1.805889 1.875298 0
M  V30 59 H -0.295393 -2.252082 0.510764 0
M  V30 60 H -1.888240 -2.964123 0.534028 0
M  V30 61 H -3.501275 -0.558011 -1.301279 0
M  V30 62 H -3.664977 -2.198545 2.170099 0
M  V30 63 H -4.956932 -4.198689 2.583358 0
M  V30 64 H -6.416873 -5.961483 1.759325 0
M  V30 65 H -7.617263 -6.910536 -0.218172 0
M  V30 66 H -6.197497 -3.911727 -2.754112 0
M  V30 67 H -4.789086 -2.242584 -1.877612 0
M  V30 68 H -3.651293 1.306185 -0.116105 0
M  V30 69 H -4.690680 0.432196 1.006751 0
M  V30 70 H -2.636604 1.624817 1.975181 0
M  V30 71 H -2.454192 -0.166801 2.293066 0
M  V30 72 H -1.573262 1.237106 -0.228294 0
M  V30 END ATOM
M  V30 BEGIN BOND
M  V30 1 1 2 1 CFG=1
M  V30 2 1 2 3
M  V30 3 1 3 4
M  V30 4 1 4 5
M  V30 5 1 5 6
M  V30 6 1 6 7
M  V30 7 2 7 8
M  V30 8 1 8 9
M  V30 9 2 9 10
M  V30 10 1 5 11
M  V30 11 1 11 12
M  V30 12 1 12 13
M  V30 13 1 13 14
M  V30 14 1 14 15
M  V30 15 1 15 16
M  V30 16 1 16 17
M  V30 17 1 17 18
M  V30 18 1 18 19
M  V30 19 1 19 20 CFG=1
M  V30 20 1 19 21
M  V30 21 1 21 22
M  V30 22 2 22 23
M  V30 23 1 23 24
M  V30 24 2 24 25
M  V30 25 1 25 26
M  V30 26 2 26 27
M  V30 27 1 27 28
M  V30 28 2 28 29
M  V30 29 1 29 30
M  V30 30 2 30 31
M  V30 31 1 21 32
M  V30 32 1 32 33
M  V30 33 1 33 34
M  V30 34 1 12 2
M  V30 35 1 34 15
M  V30 36 1 16 2
M  V30 37 1 34 19
M  V30 38 1 10 6
M  V30 39 1 31 22
M  V30 40 1 30 25
M  V30 41 1 1 35
M  V30 42 1 1 36
M  V30 43 1 1 37
M  V30 44 1 3 38
M  V30 45 1 3 39
M  V30 46 1 4 40
M  V30 47 1 4 41
M  V30 48 1 5 42 CFG=1
M  V30 49 1 7 43
M  V30 50 1 8 44
M  V30 51 1 11 45
M  V30 52 1 11 46
M  V30 53 1 12 47 CFG=3
M  V30 54 1 13 48
M  V30 55 1 13 49
M  V30 56 1 14 50
M  V30 57 1 14 51
M  V30 58 1 15 52 CFG=1
M  V30 59 1 16 53 CFG=3
M  V30 60 1 17 54
M  V30 61 1 17 55
M  V30 62 1 18 56
M  V30 63 1 18 57
M  V30 64 1 20 58
M  V30 65 1 20 59
M  V30 66 1 20 60
M  V30 67 1 21 61 CFG=3
M  V30 68 1 23 62
M  V30 69 1 24 63
M  V30 70 1 26 64
M  V30 71 1 27 65
M  V30 72 1 29 66
M  V30 73 1 31 67
M  V30 74 1 32 68
M  V30 75 1 32 69
M  V30 76 1 33 70
M  V30 77 1 33 71
M  V30 78 1 34 72 CFG=3
M  V30 END BOND
M  V30 END CTAB
M  END
>  <Dataset>  (818) 
ChEMBL_Kinases

>  <Ligand_Instance>  (818) 
nan

>  <PDB_ID>  (818) 
nan

>  <Standardized_SMILES>  (818) 
C[C@]12CC[C@H](n3ccnn3)C[C@@H]1CC[C@@H]1[C@@H]2CC[C@]2(C)[C@@H](c3ccc4ccncc4c3)CC[C@@H]12

>  <Name>  (818) 
nan

>  <Pocket>  (818) 
nan

>  <ATP_Site>  (818) 
nan

>  <Peripheral>  (818) 
nan

>  <Num_H_Atoms_ProtBoundConf>  (818) 
nan

>  <Num_Resolved_Atoms>  (818) 
nan

>  <Num_Not_Resolved_Atoms>  (818) 
nan

$$$$
CHEMBL4785371
     RDKit          3D

  0  0  0  0  0  0  0  0  0  0999 V3000
M  V30 BEGIN CTAB
M  V30 COUNTS 75 79 0 0 0
M  V30 BEGIN ATOM
M  V30 1 C 3.082014 -2.734934 4.972153 0
M  V30 2 N 3.972773 -3.749727 4.476809 0
M  V30 3 C 3.445786 -4.355128 3.275227 0
M  V30 4 C 3.520114 -3.283573 2.177750 0
M  V30 5 N 4.887344 -2.915344 2.052145 0
M  V30 6 C 5.352063 -2.557084 0.765862 0
M  V30 7 C 4.747155 -1.250573 0.258793 0
M  V30 8 C 5.270183 -0.939051 -1.110065 0
M  V30 9 C 4.706165 0.275000 -1.747200 0
M  V30 10 C 4.947769 1.536905 -0.980586 0
M  V30 11 O 4.411760 1.647227 0.275798 0
M  V30 12 C 3.134892 1.642579 0.745189 0
M  V30 13 C 3.190093 1.779928 2.140698 0
M  V30 14 C 2.024764 1.808383 2.920605 0
M  V30 15 C 0.805640 1.694532 2.254700 0
M  V30 16 C 0.725433 1.560122 0.893855 0
M  V30 17 N -0.547213 1.428764 0.273058 0
M  V30 18 C -1.101629 0.113567 0.015051 0
M  V30 19 O -0.772969 -0.928490 0.642991 0
M  V30 20 S -2.272992 0.445587 -1.339151 0
M  V30 21 C -2.680047 2.105776 -0.725050 0
M  V30 22 C -3.807462 2.793544 -0.767402 0
M  V30 23 C -4.924656 2.083917 -1.430358 0
M  V30 24 C -4.654566 1.439886 -2.621625 0
M  V30 25 C -5.683504 0.742686 -3.241564 0
M  V30 26 C -6.948583 0.682382 -2.699168 0
M  V30 27 O -7.990701 -0.013360 -3.309274 0
M  V30 28 C -8.212977 -1.370201 -3.068279 0
M  V30 29 C -7.455322 -2.178191 -2.249722 0
M  V30 30 C -7.739030 -3.527044 -2.058226 0
M  V30 31 C -8.827636 -4.075480 -2.718509 0
M  V30 32 F -9.129506 -5.391063 -2.552676 0
M  V30 33 C -9.569360 -3.255383 -3.527997 0
M  V30 34 C -9.319887 -1.904786 -3.746318 0
M  V30 35 C -7.161855 1.353913 -1.492548 0
M  V30 36 C -6.162711 2.065894 -0.833701 0
M  V30 37 C -1.411107 2.513131 -0.133039 0
M  V30 38 O -1.037623 3.726296 0.038227 0
M  V30 39 C 1.895975 1.538387 0.174200 0
M  V30 40 C 5.506791 -2.322359 3.181589 0
M  V30 41 C 5.318684 -3.269743 4.359329 0
M  V30 42 H 3.076919 -2.738877 6.086979 0
M  V30 43 H 3.423195 -1.708789 4.663090 0
M  V30 44 H 2.018103 -2.893615 4.632426 0
M  V30 45 H 4.021925 -5.224947 2.947049 0
M  V30 46 H 2.386529 -4.618589 3.481005 0
M  V30 47 H 2.873259 -2.450879 2.582268 0
M  V30 48 H 3.149860 -3.652460 1.210244 0
M  V30 49 H 5.060616 -3.349426 0.037397 0
M  V30 50 H 6.456292 -2.494841 0.775141 0
M  V30 51 H 5.056087 -0.414438 0.926198 0
M  V30 52 H 3.651314 -1.287095 0.235017 0
M  V30 53 H 6.403005 -0.911871 -1.075769 0
M  V30 54 H 5.091614 -1.817443 -1.809328 0
M  V30 55 H 3.594455 0.100166 -1.830095 0
M  V30 56 H 5.021764 0.380708 -2.820674 0
M  V30 57 H 6.076798 1.657348 -0.852823 0
M  V30 58 H 4.637114 2.369407 -1.673570 0
M  V30 59 H 4.050281 1.877342 2.793486 0
M  V30 60 H 1.965361 1.907577 3.988175 0
M  V30 61 H -0.124476 1.709506 2.809142 0
M  V30 62 H -3.765150 3.790571 -0.310005 0
M  V30 63 H -3.715478 1.418296 -3.145347 0
M  V30 64 H -5.519091 0.223739 -4.175487 0
M  V30 65 H -6.601503 -1.695697 -1.745801 0
M  V30 66 H -7.125637 -4.132906 -1.410183 0
M  V30 67 H -10.412768 -3.679022 -4.039827 0
M  V30 68 H -9.965691 -1.333343 -4.407715 0
M  V30 69 H -8.145628 1.339569 -1.014520 0
M  V30 70 H -6.314295 2.584981 0.096229 0
M  V30 71 H 1.922797 1.444348 -0.895393 0
M  V30 72 H 6.607682 -2.269628 2.975949 0
M  V30 73 H 5.205916 -1.300339 3.430650 0
M  V30 74 H 5.577035 -2.716210 5.268865 0
M  V30 75 H 5.983850 -4.151155 4.226507 0
M  V30 END ATOM
M  V30 BEGIN BOND
M  V30 1 1 1 2
M  V30 2 1 2 3
M  V30 3 1 3 4
M  V30 4 1 4 5
M  V30 5 1 5 6
M  V30 6 1 6 7
M  V30 7 1 7 8
M  V30 8 1 8 9
M  V30 9 1 9 10
M  V30 10 1 10 11
M  V30 11 1 11 12
M  V30 12 2 12 13
M  V30 13 1 13 14
M  V30 14 2 14 15
M  V30 15 1 15 16
M  V30 16 1 16 17
M  V30 17 1 17 18
M  V30 18 2 18 19
M  V30 19 1 18 20
M  V30 20 1 20 21
M  V30 21 2 21 22
M  V30 22 1 22 23
M  V30 23 2 23 24
M  V30 24 1 24 25
M  V30 25 2 25 26
M  V30 26 1 26 27
M  V30 27 1 27 28
M  V30 28 2 28 29
M  V30 29 1 29 30
M  V30 30 2 30 31
M  V30 31 1 31 32
M  V30 32 1 31 33
M  V30 33 2 33 34
M  V30 34 1 26 35
M  V30 35 2 35 36
M  V30 36 1 21 37
M  V30 37 2 37 38
M  V30 38 2 16 39
M  V30 39 1 5 40
M  V30 40 1 40 41
M  V30 41 1 41 2
M  V30 42 1 39 12
M  V30 43 1 37 17
M  V30 44 1 36 23
M  V30 45 1 34 28
M  V30 46 1 1 42
M  V30 47 1 1 43
M  V30 48 1 1 44
M  V30 49 1 3 45
M  V30 50 1 3 46
M  V30 51 1 4 47
M  V30 52 1 4 48
M  V30 53 1 6 49
M  V30 54 1 6 50
M  V30 55 1 7 51
M  V30 56 1 7 52
M  V30 57 1 8 53
M  V30 58 1 8 54
M  V30 59 1 9 55
M  V30 60 1 9 56
M  V30 61 1 10 57
M  V30 62 1 10 58
M  V30 63 1 13 59
M  V30 64 1 14 60
M  V30 65 1 15 61
M  V30 66 1 22 62
M  V30 67 1 24 63
M  V30 68 1 25 64
M  V30 69 1 29 65
M  V30 70 1 30 66
M  V30 71 1 33 67
M  V30 72 1 34 68
M  V30 73 1 35 69
M  V30 74 1 36 70
M  V30 75 1 39 71
M  V30 76 1 40 72
M  V30 77 1 40 73
M  V30 78 1 41 74
M  V30 79 1 41 75
M  V30 END BOND
M  V30 END CTAB
M  END
>  <Dataset>  (819) 
ChEMBL_Kinases

>  <Ligand_Instance>  (819) 
nan

>  <PDB_ID>  (819) 
nan

>  <Standardized_SMILES>  (819) 
CN1CCN(CCCCCOc2cccc(N3C(=O)S/C(=C\c4ccc(Oc5ccc(F)cc5)cc4)C3=O)c2)CC1

>  <Name>  (819) 
nan

>  <Pocket>  (819) 
nan

>  <ATP_Site>  (819) 
nan

>  <Peripheral>  (819) 
nan

>  <Num_H_Atoms_ProtBoundConf>  (819) 
nan

>  <Num_Resolved_Atoms>  (819) 
nan

>  <Num_Not_Resolved_Atoms>  (819) 
nan

$$$$
CHEMBL4174355
     RDKit          3D

  0  0  0  0  0  0  0  0  0  0999 V3000
M  V30 BEGIN CTAB
M  V30 COUNTS 24 25 0 0 0
M  V30 BEGIN ATOM
M  V30 1 O -0.669655 -3.226720 4.231978 0
M  V30 2 C -0.226923 -3.412424 3.093551 0
M  V30 3 N 0.563867 -4.302345 2.289524 0
M  V30 4 C 1.103743 -3.707966 1.128801 0
M  V30 5 O 1.823461 -4.437465 0.354983 0
M  V30 6 C 0.795877 -2.311227 0.908914 0
M  V30 7 C 1.457411 -1.425969 0.190751 0
M  V30 8 C 0.853321 -0.073036 0.180615 0
M  V30 9 C -0.509481 0.041233 0.010736 0
M  V30 10 C -1.059373 1.282155 0.021566 0
M  V30 11 C -0.303728 2.402281 0.193967 0
M  V30 12 O -0.895788 3.678912 0.202066 0
M  V30 13 C 1.078857 2.297568 0.365987 0
M  V30 14 N 1.906280 3.433461 0.555946 0 CHG=1 VAL=4
M  V30 15 O 1.311346 4.374544 1.161778 0
M  V30 16 O 3.202970 3.336785 0.060676 0 CHG=-1 VAL=1
M  V30 17 C 1.649527 1.035182 0.356768 0
M  V30 18 S -0.708588 -2.113684 1.912494 0
M  V30 19 H 0.622289 -5.264023 2.687028 0
M  V30 20 H 2.354180 -1.794158 -0.300996 0
M  V30 21 H -1.196004 -0.767669 -0.138863 0
M  V30 22 H -2.124866 1.442488 -0.107029 0
M  V30 23 H -0.896422 4.170876 -0.695663 0
M  V30 24 H 2.719839 0.932947 0.488436 0
M  V30 END ATOM
M  V30 BEGIN BOND
M  V30 1 2 1 2
M  V30 2 1 2 3
M  V30 3 1 3 4
M  V30 4 2 4 5
M  V30 5 1 4 6
M  V30 6 2 6 7
M  V30 7 1 7 8
M  V30 8 2 8 9
M  V30 9 1 9 10
M  V30 10 2 10 11
M  V30 11 1 11 12
M  V30 12 1 11 13
M  V30 13 1 13 14
M  V30 14 2 14 15
M  V30 15 1 14 16
M  V30 16 2 13 17
M  V30 17 1 6 18
M  V30 18 1 18 2
M  V30 19 1 17 8
M  V30 20 1 3 19
M  V30 21 1 7 20
M  V30 22 1 9 21
M  V30 23 1 10 22
M  V30 24 1 12 23
M  V30 25 1 17 24
M  V30 END BOND
M  V30 END CTAB
M  END
>  <Dataset>  (820) 
ChEMBL_Kinases

>  <Ligand_Instance>  (820) 
nan

>  <PDB_ID>  (820) 
nan

>  <Standardized_SMILES>  (820) 
O=C1NC(=O)/C(=C/c2ccc(O)c([N+](=O)[O-])c2)S1

>  <Name>  (820) 
nan

>  <Pocket>  (820) 
nan

>  <ATP_Site>  (820) 
nan

>  <Peripheral>  (820) 
nan

>  <Num_H_Atoms_ProtBoundConf>  (820) 
nan

>  <Num_Resolved_Atoms>  (820) 
nan

>  <Num_Not_Resolved_Atoms>  (820) 
nan

$$$$
CHEMBL4174335
     RDKit          3D

  0  0  0  0  0  0  0  0  0  0999 V3000
M  V30 BEGIN CTAB
M  V30 COUNTS 32 34 0 0 0
M  V30 BEGIN ATOM
M  V30 1 C -0.477958 -4.953899 3.537505 0
M  V30 2 O 0.831921 -4.547932 3.160353 0
M  V30 3 C 0.969548 -3.405734 2.349729 0
M  V30 4 C 2.286563 -3.067307 2.019436 0
M  V30 5 C 2.540795 -1.961658 1.226204 0
M  V30 6 C 1.456207 -1.204030 0.771531 0
M  V30 7 C 0.154011 -1.532923 1.094092 0
M  V30 8 C -0.081749 -2.638998 1.886319 0
M  V30 9 N -0.696594 -0.648939 0.534294 0
M  V30 10 C 0.041345 0.261612 -0.156291 0
M  V30 11 C -0.298070 1.384179 -0.919472 0
M  V30 12 C -1.761758 1.684792 -1.026932 0
M  V30 13 C -2.199692 2.610809 0.103134 0
M  V30 14 O -1.916498 2.426013 -2.215100 0
M  V30 15 N 0.645543 2.136499 -1.513623 0
M  V30 16 C 1.968654 1.829258 -1.391604 0
M  V30 17 C 2.342552 0.729755 -0.647028 0
M  V30 18 C 1.385898 -0.059334 -0.026172 0
M  V30 19 H -0.972956 -5.355614 2.629266 0
M  V30 20 H -0.398528 -5.705688 4.346207 0
M  V30 21 H -1.096590 -4.075428 3.861662 0
M  V30 22 H 3.131969 -3.670265 2.382531 0
M  V30 23 H 3.547401 -1.648600 0.935623 0
M  V30 24 H -1.074780 -2.938817 2.166665 0
M  V30 25 H -1.734123 -0.641783 0.602534 0
M  V30 26 H -2.302426 0.735126 -1.043153 0
M  V30 27 H -3.013798 2.120667 0.690134 0
M  V30 28 H -1.346124 2.895310 0.756779 0
M  V30 29 H -2.631237 3.563213 -0.268722 0
M  V30 30 H -1.636200 3.360565 -1.986622 0
M  V30 31 H 2.656683 2.484018 -1.899303 0
M  V30 32 H 3.377878 0.490835 -0.552600 0
M  V30 END ATOM
M  V30 BEGIN BOND
M  V30 1 1 1 2
M  V30 2 1 2 3
M  V30 3 2 3 4
M  V30 4 1 4 5
M  V30 5 2 5 6
M  V30 6 1 6 7
M  V30 7 2 7 8
M  V30 8 1 7 9
M  V30 9 1 9 10
M  V30 10 2 10 11
M  V30 11 1 11 12
M  V30 12 1 12 13
M  V30 13 1 12 14
M  V30 14 1 11 15
M  V30 15 2 15 16
M  V30 16 1 16 17
M  V30 17 2 17 18
M  V30 18 1 8 3
M  V30 19 1 18 10
M  V30 20 1 18 6
M  V30 21 1 1 19
M  V30 22 1 1 20
M  V30 23 1 1 21
M  V30 24 1 4 22
M  V30 25 1 5 23
M  V30 26 1 8 24
M  V30 27 1 9 25
M  V30 28 1 12 26
M  V30 29 1 13 27
M  V30 30 1 13 28
M  V30 31 1 13 29
M  V30 32 1 14 30
M  V30 33 1 16 31
M  V30 34 1 17 32
M  V30 END BOND
M  V30 END CTAB
M  END
>  <Dataset>  (821) 
ChEMBL_Kinases

>  <Ligand_Instance>  (821) 
nan

>  <PDB_ID>  (821) 
nan

>  <Standardized_SMILES>  (821) 
COc1ccc2c(c1)[nH]c1c(C(C)O)nccc12

>  <Name>  (821) 
nan

>  <Pocket>  (821) 
nan

>  <ATP_Site>  (821) 
nan

>  <Peripheral>  (821) 
nan

>  <Num_H_Atoms_ProtBoundConf>  (821) 
nan

>  <Num_Resolved_Atoms>  (821) 
nan

>  <Num_Not_Resolved_Atoms>  (821) 
nan

$$$$
CHEMBL4785390
     RDKit          3D

  0  0  0  0  0  0  0  0  0  0999 V3000
M  V30 BEGIN CTAB
M  V30 COUNTS 47 49 0 0 0
M  V30 BEGIN ATOM
M  V30 1 C -0.131460 -4.253492 0.459220 0
M  V30 2 C 0.813596 -3.081609 0.124681 0
M  V30 3 C 1.171910 -3.066647 -1.309135 0
M  V30 4 N 2.025203 -2.035809 -1.784567 0
M  V30 5 C 2.509890 -2.459587 -3.143499 0
M  V30 6 C 1.481095 -0.736053 -2.003678 0
M  V30 7 N 0.678981 -0.185958 -0.962048 0
M  V30 8 N 1.266256 0.406204 0.060840 0
M  V30 9 C 0.306966 0.837321 0.933206 0
M  V30 10 N 0.415691 1.480624 2.093594 0
M  V30 11 C 1.701887 1.812646 2.574597 0
M  V30 12 C 2.441135 0.865685 3.412330 0
M  V30 13 C 1.683769 0.545026 4.677540 0
M  V30 14 C -0.683213 1.813170 2.797483 0
M  V30 15 O -0.669713 2.420283 3.897037 0
M  V30 16 C -1.896426 1.452422 2.252666 0
M  V30 17 C -3.037364 1.779349 2.952375 0
M  V30 18 C -4.275044 1.439935 2.449460 0
M  V30 19 C -4.361141 0.763508 1.227818 0
M  V30 20 C -3.190584 0.459977 0.567553 0
M  V30 21 C -1.946052 0.786562 1.046296 0
M  V30 22 N -0.846559 0.460415 0.353108 0
M  V30 23 C -0.684974 -0.172332 -0.813060 0
M  V30 24 S -1.735875 -0.795869 -1.866029 0
M  V30 25 H -0.542186 -4.082639 1.492389 0
M  V30 26 H -0.984749 -4.238667 -0.225131 0
M  V30 27 H 0.444712 -5.188728 0.475449 0
M  V30 28 H 1.750458 -3.314873 0.747336 0
M  V30 29 H 0.394230 -2.220266 0.595527 0
M  V30 30 H 1.660310 -4.065739 -1.544060 0
M  V30 31 H 0.204629 -3.039178 -1.895005 0
M  V30 32 H 1.743499 -3.166267 -3.509584 0
M  V30 33 H 3.461340 -3.006077 -3.031667 0
M  V30 34 H 2.561188 -1.587095 -3.800182 0
M  V30 35 H 2.376643 -0.075791 -2.232474 0
M  V30 36 H 0.893711 -0.687765 -2.962418 0
M  V30 37 H 1.601317 2.784871 3.130245 0
M  V30 38 H 2.328540 2.092484 1.674486 0
M  V30 39 H 2.832854 -0.030459 2.906569 0
M  V30 40 H 3.369687 1.403985 3.772601 0
M  V30 41 H 1.516680 1.494671 5.234833 0
M  V30 42 H 0.677287 0.113125 4.486267 0
M  V30 43 H 2.252813 -0.147713 5.340204 0
M  V30 44 H -3.032391 2.297832 3.895667 0
M  V30 45 H -5.183306 1.700517 3.005597 0
M  V30 46 H -5.369035 0.536939 0.909032 0
M  V30 47 H -3.406120 -0.053206 -0.341874 0
M  V30 END ATOM
M  V30 BEGIN BOND
M  V30 1 1 1 2
M  V30 2 1 2 3
M  V30 3 1 3 4
M  V30 4 1 4 5
M  V30 5 1 4 6
M  V30 6 1 6 7
M  V30 7 1 7 8
M  V30 8 2 8 9
M  V30 9 1 9 10
M  V30 10 1 10 11
M  V30 11 1 11 12
M  V30 12 1 12 13
M  V30 13 1 10 14
M  V30 14 2 14 15
M  V30 15 1 14 16
M  V30 16 2 16 17
M  V30 17 1 17 18
M  V30 18 2 18 19
M  V30 19 1 19 20
M  V30 20 2 20 21
M  V30 21 1 21 22
M  V30 22 1 22 23
M  V30 23 2 23 24
M  V30 24 1 23 7
M  V30 25 1 22 9
M  V30 26 1 21 16
M  V30 27 1 1 25
M  V30 28 1 1 26
M  V30 29 1 1 27
M  V30 30 1 2 28
M  V30 31 1 2 29
M  V30 32 1 3 30
M  V30 33 1 3 31
M  V30 34 1 5 32
M  V30 35 1 5 33
M  V30 36 1 5 34
M  V30 37 1 6 35
M  V30 38 1 6 36
M  V30 39 1 11 37
M  V30 40 1 11 38
M  V30 41 1 12 39
M  V30 42 1 12 40
M  V30 43 1 13 41
M  V30 44 1 13 42
M  V30 45 1 13 43
M  V30 46 1 17 44
M  V30 47 1 18 45
M  V30 48 1 19 46
M  V30 49 1 20 47
M  V30 END BOND
M  V30 END CTAB
M  END
>  <Dataset>  (822) 
ChEMBL_Kinases

>  <Ligand_Instance>  (822) 
nan

>  <PDB_ID>  (822) 
nan

>  <Standardized_SMILES>  (822) 
CCCN(C)Cn1nc2n(CCC)c(=O)c3ccccc3n2c1=S

>  <Name>  (822) 
nan

>  <Pocket>  (822) 
nan

>  <ATP_Site>  (822) 
nan

>  <Peripheral>  (822) 
nan

>  <Num_H_Atoms_ProtBoundConf>  (822) 
nan

>  <Num_Resolved_Atoms>  (822) 
nan

>  <Num_Not_Resolved_Atoms>  (822) 
nan

$$$$
CHEMBL4785429
     RDKit          3D

  0  0  0  0  0  0  0  0  0  0999 V3000
M  V30 BEGIN CTAB
M  V30 COUNTS 47 50 0 0 0
M  V30 BEGIN ATOM
M  V30 1 O 0.694415 2.413986 0.239977 0
M  V30 2 C 0.830145 1.194162 0.090371 0
M  V30 3 N 1.814572 0.595996 -0.716802 0
M  V30 4 C 2.795046 1.302680 -1.476856 0
M  V30 5 C 3.965602 1.536107 -0.763562 0
M  V30 6 C 5.028818 2.219277 -1.366946 0
M  V30 7 C 4.892176 2.650655 -2.668218 0
M  V30 8 C 5.880927 3.384033 -3.489715 0
M  V30 9 F 5.298260 4.469896 -4.125826 0
M  V30 10 F 6.220808 2.505622 -4.528706 0
M  V30 11 F 6.996395 3.781148 -2.797367 0
M  V30 12 C 3.706266 2.398823 -3.350123 0
M  V30 13 C 2.655109 1.734448 -2.782921 0
M  V30 14 N 0.012348 0.218245 0.711297 0
M  V30 15 C -1.102775 0.549856 1.613975 0
M  V30 16 C -2.411083 0.149134 1.018832 0
M  V30 17 C -2.909457 -1.206115 1.422214 0
M  V30 18 N -2.389873 -1.637676 2.709206 0
M  V30 19 C -2.196560 -2.997687 3.077539 0
M  V30 20 N -0.914648 -3.323490 3.386250 0
M  V30 21 C -0.575821 -4.570523 3.752800 0
M  V30 22 N -1.537079 -5.520053 3.814345 0
M  V30 23 C -2.822333 -5.271826 3.524081 0
M  V30 24 N -3.990722 -5.948772 3.481782 0
M  V30 25 N -4.970443 -5.141076 3.108720 0
M  V30 26 C -4.468417 -3.901744 2.894084 0
M  V30 27 C -3.139523 -3.994988 3.154074 0
M  V30 28 C -2.076942 -0.518911 3.611077 0
M  V30 29 C -0.834021 0.098107 3.005610 0
M  V30 30 H 1.981720 -0.425668 -0.884861 0
M  V30 31 H 4.127951 1.220009 0.260830 0
M  V30 32 H 5.962600 2.448534 -0.912253 0
M  V30 33 H 3.505425 2.704019 -4.389417 0
M  V30 34 H 1.717863 1.503683 -3.237555 0
M  V30 35 H 0.071554 -0.818171 0.629044 0
M  V30 36 H -1.102745 1.681115 1.652064 0
M  V30 37 H -3.200417 0.926439 1.105883 0
M  V30 38 H -2.239081 0.076251 -0.089041 0
M  V30 39 H -2.745767 -2.001775 0.665331 0
M  V30 40 H -4.011307 -1.131108 1.545512 0
M  V30 41 H 0.453574 -4.805716 3.994212 0
M  V30 42 H -4.022376 -6.972093 3.727324 0
M  V30 43 H -5.034525 -3.038984 2.581306 0
M  V30 44 H -1.886819 -0.945285 4.612670 0
M  V30 45 H -2.916455 0.172989 3.571160 0
M  V30 46 H -0.525732 0.920424 3.703365 0
M  V30 47 H 0.003434 -0.628249 3.036827 0
M  V30 END ATOM
M  V30 BEGIN BOND
M  V30 1 2 1 2
M  V30 2 1 2 3
M  V30 3 1 3 4
M  V30 4 2 4 5
M  V30 5 1 5 6
M  V30 6 2 6 7
M  V30 7 1 7 8
M  V30 8 1 8 9
M  V30 9 1 8 10
M  V30 10 1 8 11
M  V30 11 1 7 12
M  V30 12 2 12 13
M  V30 13 1 2 14
M  V30 14 1 14 15
M  V30 15 1 15 16
M  V30 16 1 16 17
M  V30 17 1 17 18
M  V30 18 1 18 19
M  V30 19 2 19 20
M  V30 20 1 20 21
M  V30 21 2 21 22
M  V30 22 1 22 23
M  V30 23 1 23 24
M  V30 24 1 24 25
M  V30 25 2 25 26
M  V30 26 1 26 27
M  V30 27 1 18 28
M  V30 28 1 28 29
M  V30 29 1 13 4
M  V30 30 1 29 15
M  V30 31 1 27 19
M  V30 32 2 27 23
M  V30 33 1 3 30
M  V30 34 1 5 31
M  V30 35 1 6 32
M  V30 36 1 12 33
M  V30 37 1 13 34
M  V30 38 1 14 35
M  V30 39 1 15 36
M  V30 40 1 16 37
M  V30 41 1 16 38
M  V30 42 1 17 39
M  V30 43 1 17 40
M  V30 44 1 21 41
M  V30 45 1 24 42
M  V30 46 1 26 43
M  V30 47 1 28 44
M  V30 48 1 28 45
M  V30 49 1 29 46
M  V30 50 1 29 47
M  V30 END BOND
M  V30 END CTAB
M  END
>  <Dataset>  (823) 
ChEMBL_Kinases

>  <Ligand_Instance>  (823) 
nan

>  <PDB_ID>  (823) 
nan

>  <Standardized_SMILES>  (823) 
O=C(Nc1ccc(C(F)(F)F)cc1)NC1CCN(c2ncnc3[nH]ncc23)CC1

>  <Name>  (823) 
nan

>  <Pocket>  (823) 
nan

>  <ATP_Site>  (823) 
nan

>  <Peripheral>  (823) 
nan

>  <Num_H_Atoms_ProtBoundConf>  (823) 
nan

>  <Num_Resolved_Atoms>  (823) 
nan

>  <Num_Not_Resolved_Atoms>  (823) 
nan

$$$$
CHEMBL4785430
     RDKit          3D

  0  0  0  0  0  0  0  0  0  0999 V3000
M  V30 BEGIN CTAB
M  V30 COUNTS 59 62 0 0 0
M  V30 BEGIN ATOM
M  V30 1 C 4.581825 -4.060119 3.976103 0
M  V30 2 C 3.555203 -3.543256 3.034557 0
M  V30 3 N 3.462586 -2.274681 2.624803 0
M  V30 4 C 2.449564 -2.056068 1.772729 0
M  V30 5 C 1.912185 -0.936549 1.019428 0
M  V30 6 C 2.519865 -0.054966 0.248535 0
M  V30 7 C 3.940970 -0.065246 0.005283 0
M  V30 8 O 4.770840 -0.885765 0.458567 0
M  V30 9 N 4.215914 1.033515 -0.849088 0
M  V30 10 C 2.986423 1.695719 -1.118476 0
M  V30 11 C 2.676731 2.819959 -1.887349 0
M  V30 12 C 1.371207 3.301402 -2.008858 0
M  V30 13 C 0.378624 2.641363 -1.349557 0
M  V30 14 C -0.960746 3.181419 -1.501158 0
M  V30 15 O -1.200794 4.186303 -2.180675 0
M  V30 16 N -2.090361 2.602902 -0.886134 0
M  V30 17 C -3.493273 2.853482 -0.815535 0 CFG=2
M  V30 18 C -3.928947 3.107299 0.633276 0
M  V30 19 C -4.277878 1.731406 -1.405096 0
M  V30 20 C -3.778587 1.258750 -2.623264 0
M  V30 21 C -4.459146 0.224862 -3.217636 0
M  V30 22 C -5.592356 -0.324110 -2.631799 0
M  V30 23 C -6.101296 0.140034 -1.413868 0
M  V30 24 C -5.401987 1.174751 -0.840023 0
M  V30 25 C 0.644146 1.528939 -0.581874 0
M  V30 26 C 1.940284 1.068722 -0.474218 0
M  V30 27 C 1.835418 -3.307175 1.625447 0
M  V30 28 C 0.669497 -3.713739 0.821367 0
M  V30 29 C 2.525819 -4.208860 2.405877 0
M  V30 30 N 2.266274 -5.598085 2.569605 0
M  V30 31 C 1.374789 -5.907287 3.631635 0
M  V30 32 O 0.746917 -5.202225 4.482408 0
M  V30 33 C 0.767875 -7.096678 4.245850 0
M  V30 34 Br -0.358073 -6.433843 5.700236 0
M  V30 35 H 4.093909 -4.120248 4.963841 0
M  V30 36 H 5.495342 -3.441316 3.960707 0
M  V30 37 H 4.845467 -5.121219 3.703773 0
M  V30 38 H 4.096505 -1.512353 2.937313 0
M  V30 39 H 0.820982 -0.773228 1.087887 0
M  V30 40 H 5.176329 1.266437 -1.189089 0
M  V30 41 H 3.478413 3.324652 -2.399586 0
M  V30 42 H 1.244407 4.168322 -2.621516 0
M  V30 43 H -2.009134 1.740577 -0.284329 0
M  V30 44 H -3.746315 3.749323 -1.385171 0
M  V30 45 H -3.234174 3.905735 1.005389 0
M  V30 46 H -3.791184 2.214834 1.253433 0
M  V30 47 H -4.978479 3.498672 0.631730 0
M  V30 48 H -2.921419 1.624878 -3.131881 0
M  V30 49 H -4.121065 -0.190909 -4.170887 0
M  V30 50 H -6.160713 -1.145599 -3.071916 0
M  V30 51 H -6.966980 -0.247864 -0.923469 0
M  V30 52 H -5.642953 1.648826 0.078980 0
M  V30 53 H -0.137103 0.999379 -0.055985 0
M  V30 54 H 0.994229 -4.137572 -0.159460 0
M  V30 55 H 0.002218 -2.847895 0.570190 0
M  V30 56 H 0.102362 -4.522394 1.310202 0
M  V30 57 H 2.514296 -6.510568 2.164435 0
M  V30 58 H 0.079023 -7.658747 3.576515 0
M  V30 59 H 1.485390 -7.808835 4.687343 0
M  V30 END ATOM
M  V30 BEGIN BOND
M  V30 1 1 1 2
M  V30 2 1 2 3
M  V30 3 1 3 4
M  V30 4 1 4 5
M  V30 5 2 5 6
M  V30 6 1 6 7
M  V30 7 2 7 8
M  V30 8 1 7 9
M  V30 9 1 9 10
M  V30 10 2 10 11
M  V30 11 1 11 12
M  V30 12 2 12 13
M  V30 13 1 13 14
M  V30 14 2 14 15
M  V30 15 1 14 16
M  V30 16 1 16 17
M  V30 17 1 17 18
M  V30 18 1 17 19
M  V30 19 2 19 20
M  V30 20 1 20 21
M  V30 21 2 21 22
M  V30 22 1 22 23
M  V30 23 2 23 24
M  V30 24 1 13 25
M  V30 25 2 25 26
M  V30 26 2 4 27
M  V30 27 1 27 28
M  V30 28 1 27 29
M  V30 29 1 29 30
M  V30 30 1 30 31
M  V30 31 2 31 32
M  V30 32 1 31 33
M  V30 33 1 33 34
M  V30 34 2 29 2
M  V30 35 1 26 6
M  V30 36 1 26 10
M  V30 37 1 24 19
M  V30 38 1 1 35
M  V30 39 1 1 36
M  V30 40 1 1 37
M  V30 41 1 3 38
M  V30 42 1 5 39
M  V30 43 1 9 40
M  V30 44 1 11 41
M  V30 45 1 12 42
M  V30 46 1 16 43
M  V30 47 1 17 44 CFG=3
M  V30 48 1 18 45
M  V30 49 1 18 46
M  V30 50 1 18 47
M  V30 51 1 20 48
M  V30 52 1 21 49
M  V30 53 1 22 50
M  V30 54 1 23 51
M  V30 55 1 24 52
M  V30 56 1 25 53
M  V30 57 1 28 54
M  V30 58 1 28 55
M  V30 59 1 28 56
M  V30 60 1 30 57
M  V30 61 1 33 58
M  V30 62 1 33 59
M  V30 END BOND
M  V30 END CTAB
M  END
>  <Dataset>  (824) 
ChEMBL_Kinases

>  <Ligand_Instance>  (824) 
nan

>  <PDB_ID>  (824) 
nan

>  <Standardized_SMILES>  (824) 
Cc1[nH]c(/C=C2\C(=O)Nc3ccc(C(=O)N[C@H](C)c4ccccc4)cc32)c(C)c1NC(=O)CBr

>  <Name>  (824) 
nan

>  <Pocket>  (824) 
nan

>  <ATP_Site>  (824) 
nan

>  <Peripheral>  (824) 
nan

>  <Num_H_Atoms_ProtBoundConf>  (824) 
nan

>  <Num_Resolved_Atoms>  (824) 
nan

>  <Num_Not_Resolved_Atoms>  (824) 
nan

$$$$
CHEMBL4174162
     RDKit          3D

  0  0  0  0  0  0  0  0  0  0999 V3000
M  V30 BEGIN CTAB
M  V30 COUNTS 50 53 0 0 0
M  V30 BEGIN ATOM
M  V30 1 C -3.053554 -4.393935 1.471302 0
M  V30 2 C -2.831550 -4.265385 -0.015560 0
M  V30 3 N -1.462263 -3.931034 -0.355205 0
M  V30 4 C -0.920363 -2.711762 -0.497761 0
M  V30 5 C 0.433634 -2.832515 -0.832590 0
M  V30 6 C 1.229563 -1.649974 -1.030161 0
M  V30 7 C 2.500670 -1.491250 -1.493501 0
M  V30 8 C 3.184334 -0.316873 -1.670115 0
M  V30 9 N 2.546642 0.821052 -1.356965 0
M  V30 10 C 1.292365 0.733946 -0.895373 0
M  V30 11 N 0.527309 1.901583 -0.536502 0
M  V30 12 C 0.544046 2.528847 0.742795 0
M  V30 13 C 1.346416 2.015174 1.723924 0
M  V30 14 C 1.337320 2.660700 2.954560 0
M  V30 15 C 0.564452 3.768324 3.198855 0
M  V30 16 O 0.519079 4.446361 4.400960 0
M  V30 17 C 1.286711 4.052073 5.523061 0
M  V30 18 C -0.243737 4.268998 2.179150 0
M  V30 19 C -0.244135 3.637630 0.952832 0
M  V30 20 O -1.035470 4.107076 -0.084795 0
M  V30 21 C -1.882062 5.238729 0.025925 0
M  V30 22 N 0.693705 -0.450493 -0.750930 0
M  V30 23 C 0.597819 -4.173033 -0.863221 0
M  V30 24 C 1.732329 -4.892076 -1.131649 0
M  V30 25 C 1.751067 -6.247039 -1.121149 0
M  V30 26 C 0.610246 -6.970534 -0.834725 0
M  V30 27 C -0.545797 -6.260625 -0.560089 0
M  V30 28 C -0.542937 -4.885117 -0.575958 0
M  V30 29 H -2.830153 -5.419854 1.849500 0
M  V30 30 H -2.527744 -3.605615 2.025530 0
M  V30 31 H -4.151356 -4.237767 1.659185 0
M  V30 32 H -3.131206 -5.193467 -0.517599 0
M  V30 33 H -3.543322 -3.477517 -0.380910 0
M  V30 34 H -1.567629 -1.832917 -0.343441 0
M  V30 35 H 3.053661 -2.365266 -1.770433 0
M  V30 36 H 4.181292 -0.291087 -2.040030 0
M  V30 37 H -0.066872 2.268596 -1.321091 0
M  V30 38 H 1.982283 1.139412 1.591245 0
M  V30 39 H 1.958101 2.275797 3.737836 0
M  V30 40 H 1.358661 2.961695 5.562961 0
M  V30 41 H 2.304874 4.476378 5.442987 0
M  V30 42 H 0.762001 4.437729 6.436386 0
M  V30 43 H -0.879393 5.151211 2.324522 0
M  V30 44 H -2.538976 5.224546 -0.875661 0
M  V30 45 H -1.226282 6.129132 0.065607 0
M  V30 46 H -2.467891 5.100654 0.957330 0
M  V30 47 H 2.657492 -4.431252 -1.353839 0
M  V30 48 H 2.620152 -6.834715 -1.327027 0
M  V30 49 H 0.500081 -8.049394 -0.795243 0
M  V30 50 H -1.482092 -6.776583 -0.325663 0
M  V30 END ATOM
M  V30 BEGIN BOND
M  V30 1 1 1 2
M  V30 2 1 2 3
M  V30 3 1 3 4
M  V30 4 2 4 5
M  V30 5 1 5 6
M  V30 6 2 6 7
M  V30 7 1 7 8
M  V30 8 2 8 9
M  V30 9 1 9 10
M  V30 10 1 10 11
M  V30 11 1 11 12
M  V30 12 2 12 13
M  V30 13 1 13 14
M  V30 14 2 14 15
M  V30 15 1 15 16
M  V30 16 1 16 17
M  V30 17 1 15 18
M  V30 18 2 18 19
M  V30 19 1 19 20
M  V30 20 1 20 21
M  V30 21 2 10 22
M  V30 22 1 5 23
M  V30 23 2 23 24
M  V30 24 1 24 25
M  V30 25 2 25 26
M  V30 26 1 26 27
M  V30 27 2 27 28
M  V30 28 1 28 3
M  V30 29 1 22 6
M  V30 30 1 28 23
M  V30 31 1 19 12
M  V30 32 1 1 29
M  V30 33 1 1 30
M  V30 34 1 1 31
M  V30 35 1 2 32
M  V30 36 1 2 33
M  V30 37 1 4 34
M  V30 38 1 7 35
M  V30 39 1 8 36
M  V30 40 1 11 37
M  V30 41 1 13 38
M  V30 42 1 14 39
M  V30 43 1 17 40
M  V30 44 1 17 41
M  V30 45 1 17 42
M  V30 46 1 18 43
M  V30 47 1 21 44
M  V30 48 1 21 45
M  V30 49 1 21 46
M  V30 50 1 24 47
M  V30 51 1 25 48
M  V30 52 1 26 49
M  V30 53 1 27 50
M  V30 END BOND
M  V30 END CTAB
M  END
>  <Dataset>  (825) 
ChEMBL_Kinases

>  <Ligand_Instance>  (825) 
nan

>  <PDB_ID>  (825) 
nan

>  <Standardized_SMILES>  (825) 
CCn1cc(-c2ccnc(Nc3ccc(OC)cc3OC)n2)c2ccccc21

>  <Name>  (825) 
nan

>  <Pocket>  (825) 
nan

>  <ATP_Site>  (825) 
nan

>  <Peripheral>  (825) 
nan

>  <Num_H_Atoms_ProtBoundConf>  (825) 
nan

>  <Num_Resolved_Atoms>  (825) 
nan

>  <Num_Not_Resolved_Atoms>  (825) 
nan

$$$$
CHEMBL4174082
     RDKit          3D

  0  0  0  0  0  0  0  0  0  0999 V3000
M  V30 BEGIN CTAB
M  V30 COUNTS 43 47 0 0 0
M  V30 BEGIN ATOM
M  V30 1 N -0.837057 -3.500580 6.027137 0
M  V30 2 C -0.138256 -3.621314 5.103714 0
M  V30 3 C 0.719569 -3.777103 3.945519 0
M  V30 4 C 1.846178 -4.571060 3.951219 0
M  V30 5 C 2.632978 -4.671741 2.798003 0
M  V30 6 C 2.283071 -3.970813 1.639007 0
M  V30 7 C 1.154635 -3.180894 1.647737 0
M  V30 8 C 0.711983 -2.408708 0.481009 0
M  V30 9 N -0.417920 -1.688362 0.567475 0
M  V30 10 C -0.897526 -0.934788 -0.437484 0
M  V30 11 N -2.118364 -0.267112 -0.096122 0
M  V30 12 C -1.872486 0.913525 0.660139 0
M  V30 13 C -0.666951 1.442102 1.076403 0
M  V30 14 C -0.848298 2.616961 1.809937 0
M  V30 15 C 0.279849 3.411531 2.392456 0
M  V30 16 C 1.513584 3.446756 1.528989 0
M  V30 17 C 1.504896 2.633544 2.798336 0
M  V30 18 N -2.186800 2.762323 1.812018 0
M  V30 19 N -2.761414 1.777491 1.148177 0
M  V30 20 C -0.211464 -0.880527 -1.633238 0
M  V30 21 C -0.772163 -0.089472 -2.597906 0
M  V30 22 C -0.063065 -0.048074 -3.799881 0
M  V30 23 C 1.105582 -0.758318 -3.970086 0
M  V30 24 C 1.607897 -1.539771 -2.936948 0
M  V30 25 C 0.949508 -1.617396 -1.730546 0
M  V30 26 N 1.385884 -2.363324 -0.676631 0
M  V30 27 C 0.368300 -3.077804 2.792459 0
M  V30 28 H 2.029353 -5.064598 4.883047 0
M  V30 29 H 3.491843 -5.300432 2.859126 0
M  V30 30 H 2.888608 -4.048797 0.749555 0
M  V30 31 H -3.093685 -0.515401 -0.315017 0
M  V30 32 H 0.326449 1.025641 0.878016 0
M  V30 33 H -0.004743 4.303396 2.945331 0
M  V30 34 H 2.110292 4.370867 1.608760 0
M  V30 35 H 1.530497 2.925620 0.545854 0
M  V30 36 H 2.098313 2.978419 3.681603 0
M  V30 37 H 1.513501 1.522385 2.640966 0
M  V30 38 H -2.615453 3.593241 2.311955 0
M  V30 39 H -1.692136 0.458615 -2.437418 0
M  V30 40 H -0.492569 0.581610 -4.593171 0
M  V30 41 H 1.622256 -0.695382 -4.918761 0
M  V30 42 H 2.523988 -2.095617 -3.073483 0
M  V30 43 H -0.533696 -2.456020 2.821536 0
M  V30 END ATOM
M  V30 BEGIN BOND
M  V30 1 3 1 2
M  V30 2 1 2 3
M  V30 3 2 3 4
M  V30 4 1 4 5
M  V30 5 2 5 6
M  V30 6 1 6 7
M  V30 7 1 7 8
M  V30 8 2 8 9
M  V30 9 1 9 10
M  V30 10 1 10 11
M  V30 11 1 11 12
M  V30 12 1 12 13
M  V30 13 2 13 14
M  V30 14 1 14 15
M  V30 15 1 15 16
M  V30 16 1 16 17
M  V30 17 1 14 18
M  V30 18 1 18 19
M  V30 19 2 10 20
M  V30 20 1 20 21
M  V30 21 2 21 22
M  V30 22 1 22 23
M  V30 23 2 23 24
M  V30 24 1 24 25
M  V30 25 2 25 26
M  V30 26 2 7 27
M  V30 27 1 27 3
M  V30 28 1 26 8
M  V30 29 2 19 12
M  V30 30 1 25 20
M  V30 31 1 17 15
M  V30 32 1 4 28
M  V30 33 1 5 29
M  V30 34 1 6 30
M  V30 35 1 11 31
M  V30 36 1 13 32
M  V30 37 1 15 33
M  V30 38 1 16 34
M  V30 39 1 16 35
M  V30 40 1 17 36
M  V30 41 1 17 37
M  V30 42 1 18 38
M  V30 43 1 21 39
M  V30 44 1 22 40
M  V30 45 1 23 41
M  V30 46 1 24 42
M  V30 47 1 27 43
M  V30 END BOND
M  V30 END CTAB
M  END
>  <Dataset>  (826) 
ChEMBL_Kinases

>  <Ligand_Instance>  (826) 
nan

>  <PDB_ID>  (826) 
nan

>  <Standardized_SMILES>  (826) 
N#Cc1cccc(-c2nc(Nc3cc(C4CC4)[nH]n3)c3ccccc3n2)c1

>  <Name>  (826) 
nan

>  <Pocket>  (826) 
nan

>  <ATP_Site>  (826) 
nan

>  <Peripheral>  (826) 
nan

>  <Num_H_Atoms_ProtBoundConf>  (826) 
nan

>  <Num_Resolved_Atoms>  (826) 
nan

>  <Num_Not_Resolved_Atoms>  (826) 
nan

$$$$
CHEMBL4174075
     RDKit          3D

  0  0  0  0  0  0  0  0  0  0999 V3000
M  V30 BEGIN CTAB
M  V30 COUNTS 45 48 0 0 0
M  V30 BEGIN ATOM
M  V30 1 C 0.304489 -6.687840 1.928412 0
M  V30 2 O -0.717500 -6.158683 2.720977 0
M  V30 3 C -1.081876 -4.839941 2.599165 0
M  V30 4 C -0.538161 -3.898719 1.740390 0
M  V30 5 C -1.054112 -2.620419 1.779317 0
M  V30 6 C -0.416722 -1.682439 0.831819 0
M  V30 7 C -0.376454 -0.370334 1.254230 0
M  V30 8 N 0.191534 0.529304 0.432811 0
M  V30 9 C 0.719297 0.239360 -0.764365 0
M  V30 10 C 1.307421 1.121200 -1.638037 0
M  V30 11 N 1.485970 2.528210 -1.455047 0
M  V30 12 C 0.372908 3.344605 -1.893897 0
M  V30 13 C 0.489575 4.694384 -1.228579 0
M  V30 14 O 0.941245 4.512628 0.054483 0
M  V30 15 C 2.304651 4.221666 0.110191 0 CFG=1
M  V30 16 C 2.725501 3.858086 1.496241 0
M  V30 17 C 2.673374 3.133462 -0.878702 0
M  V30 18 S 1.815001 0.259935 -3.017488 0
M  V30 19 N 1.215211 -1.406260 -2.421819 0
M  V30 20 C 0.676324 -1.067855 -1.180029 0
M  V30 21 C 0.109858 -2.042587 -0.390101 0
M  V30 22 C -2.073375 -2.185961 2.603057 0
M  V30 23 C -2.607622 -3.154075 3.462396 0
M  V30 24 C -2.102220 -4.436316 3.435159 0
M  V30 25 N -2.752165 -5.296781 4.369014 0
M  V30 26 H -0.116286 -7.011822 0.956281 0
M  V30 27 H 1.120148 -5.966788 1.727705 0
M  V30 28 H 0.763744 -7.549699 2.456025 0
M  V30 29 H 0.245163 -4.232306 1.106927 0
M  V30 30 H -0.762012 0.020859 2.197090 0
M  V30 31 H 0.313352 3.426076 -3.000224 0
M  V30 32 H -0.606925 2.925875 -1.530172 0
M  V30 33 H -0.532004 5.146186 -1.151729 0
M  V30 34 H 1.130877 5.382054 -1.828983 0
M  V30 35 H 2.845072 5.138705 -0.202014 0
M  V30 36 H 2.070226 4.379149 2.216478 0
M  V30 37 H 3.770565 4.225748 1.645609 0
M  V30 38 H 2.650351 2.748994 1.647593 0
M  V30 39 H 3.289214 3.505585 -1.722801 0
M  V30 40 H 3.226381 2.331338 -0.348745 0
M  V30 41 H 0.029683 -3.077809 -0.624000 0
M  V30 42 H -2.390105 -1.156721 2.539438 0
M  V30 43 H -3.408744 -2.808289 4.109200 0
M  V30 44 H -2.623463 -5.964792 5.158104 0
M  V30 45 H -3.798558 -5.429982 4.418763 0
M  V30 END ATOM
M  V30 BEGIN BOND
M  V30 1 1 1 2
M  V30 2 1 2 3
M  V30 3 2 3 4
M  V30 4 1 4 5
M  V30 5 1 5 6
M  V30 6 1 6 7
M  V30 7 2 7 8
M  V30 8 1 8 9
M  V30 9 2 9 10
M  V30 10 1 10 11
M  V30 11 1 11 12
M  V30 12 1 12 13
M  V30 13 1 13 14
M  V30 14 1 14 15
M  V30 15 1 15 16
M  V30 16 1 15 17
M  V30 17 1 10 18
M  V30 18 1 18 19
M  V30 19 2 19 20
M  V30 20 1 20 21
M  V30 21 2 5 22
M  V30 22 1 22 23
M  V30 23 2 23 24
M  V30 24 1 24 25
M  V30 25 1 24 3
M  V30 26 2 21 6
M  V30 27 1 20 9
M  V30 28 1 17 11
M  V30 29 1 1 26
M  V30 30 1 1 27
M  V30 31 1 1 28
M  V30 32 1 4 29
M  V30 33 1 7 30
M  V30 34 1 12 31
M  V30 35 1 12 32
M  V30 36 1 13 33
M  V30 37 1 13 34
M  V30 38 1 15 35 CFG=3
M  V30 39 1 16 36
M  V30 40 1 16 37
M  V30 41 1 16 38
M  V30 42 1 17 39
M  V30 43 1 17 40
M  V30 44 1 21 41
M  V30 45 1 22 42
M  V30 46 1 23 43
M  V30 47 1 25 44
M  V30 48 1 25 45
M  V30 END BOND
M  V30 END CTAB
M  END
>  <Dataset>  (827) 
ChEMBL_Kinases

>  <Ligand_Instance>  (827) 
nan

>  <PDB_ID>  (827) 
nan

>  <Standardized_SMILES>  (827) 
COc1cc(-c2cnc3c(N4CCO[C@@H](C)C4)snc3c2)ccc1N

>  <Name>  (827) 
nan

>  <Pocket>  (827) 
nan

>  <ATP_Site>  (827) 
nan

>  <Peripheral>  (827) 
nan

>  <Num_H_Atoms_ProtBoundConf>  (827) 
nan

>  <Num_Resolved_Atoms>  (827) 
nan

>  <Num_Not_Resolved_Atoms>  (827) 
nan

$$$$
CHEMBL4174013
     RDKit          3D

  0  0  0  0  0  0  0  0  0  0999 V3000
M  V30 BEGIN CTAB
M  V30 COUNTS 52 55 0 0 0
M  V30 BEGIN ATOM
M  V30 1 C 5.155446 -4.000920 -3.135641 0
M  V30 2 C 5.141724 -2.511098 -3.403131 0
M  V30 3 C 4.956857 -1.703096 -2.169263 0
M  V30 4 N 5.898035 -1.203394 -1.328941 0
M  V30 5 C 5.269570 -0.524664 -0.331536 0
M  V30 6 C 3.915756 -0.574929 -0.511795 0
M  V30 7 C 2.731037 -0.059003 0.140210 0
M  V30 8 C 2.443213 1.153717 0.555973 0
M  V30 9 C 3.341373 2.283209 0.416947 0
M  V30 10 O 4.475340 2.245893 -0.110469 0
M  V30 11 N 2.658407 3.386879 0.991938 0
M  V30 12 C 1.389001 2.953119 1.466081 0
M  V30 13 C 0.350031 3.638881 2.102656 0
M  V30 14 C -0.795962 2.918252 2.451874 0
M  V30 15 C -0.962868 1.572231 2.206191 0
M  V30 16 C -2.211107 0.940751 2.623473 0
M  V30 17 O -3.077046 1.642882 3.161886 0
M  V30 18 N -2.432157 -0.446761 2.419551 0
M  V30 19 C -3.635530 -1.129830 2.807281 0 CFG=2
M  V30 20 C -3.482676 -2.135213 3.894979 0
M  V30 21 O -2.620634 -3.175064 3.627717 0
M  V30 22 C -4.354837 -1.700781 1.658784 0
M  V30 23 C -4.899222 -2.956567 1.506458 0
M  V30 24 C -5.561598 -3.393775 0.382150 0
M  V30 25 C -5.665753 -2.482919 -0.637523 0
M  V30 26 C -5.148691 -1.201949 -0.568518 0
M  V30 27 C -4.483118 -0.801384 0.594399 0
M  V30 28 C 0.066832 0.905518 1.578742 0
M  V30 29 C 1.217223 1.591354 1.218718 0
M  V30 30 N 3.767840 -1.310725 -1.654770 0
M  V30 31 H 5.765855 -4.274326 -2.277861 0
M  V30 32 H 5.449937 -4.492448 -4.079528 0
M  V30 33 H 4.096679 -4.302803 -2.961616 0
M  V30 34 H 4.363627 -2.253171 -4.168036 0
M  V30 35 H 6.111818 -2.258845 -3.898281 0
M  V30 36 H 5.721133 -0.026051 0.490729 0
M  V30 37 H 1.934258 -0.802268 0.327588 0
M  V30 38 H 3.069899 4.338976 1.032847 0
M  V30 39 H 0.416413 4.698059 2.325305 0
M  V30 40 H -1.582584 3.502159 2.948466 0
M  V30 41 H -1.729413 -1.072890 1.969223 0
M  V30 42 H -4.306405 -0.327320 3.237502 0
M  V30 43 H -3.239923 -1.631634 4.879625 0
M  V30 44 H -4.485671 -2.571347 4.085039 0
M  V30 45 H -2.239101 -3.505089 4.503956 0
M  V30 46 H -4.765165 -3.603487 2.362755 0
M  V30 47 H -5.943266 -4.396959 0.382508 0
M  V30 48 H -6.177857 -2.779769 -1.541674 0
M  V30 49 H -5.284291 -0.558498 -1.426890 0
M  V30 50 H -4.091280 0.217757 0.605452 0
M  V30 51 H -0.027645 -0.133682 1.374824 0
M  V30 52 H 2.860840 -1.583523 -2.142665 0
M  V30 END ATOM
M  V30 BEGIN BOND
M  V30 1 1 1 2
M  V30 2 1 2 3
M  V30 3 2 3 4
M  V30 4 1 4 5
M  V30 5 2 5 6
M  V30 6 1 6 7
M  V30 7 2 7 8
M  V30 8 1 8 9
M  V30 9 2 9 10
M  V30 10 1 9 11
M  V30 11 1 11 12
M  V30 12 2 12 13
M  V30 13 1 13 14
M  V30 14 2 14 15
M  V30 15 1 15 16
M  V30 16 2 16 17
M  V30 17 1 16 18
M  V30 18 1 18 19
M  V30 19 1 19 20
M  V30 20 1 20 21
M  V30 21 1 19 22
M  V30 22 2 22 23
M  V30 23 1 23 24
M  V30 24 2 24 25
M  V30 25 1 25 26
M  V30 26 2 26 27
M  V30 27 1 15 28
M  V30 28 2 28 29
M  V30 29 1 6 30
M  V30 30 1 30 3
M  V30 31 1 29 8
M  V30 32 1 29 12
M  V30 33 1 27 22
M  V30 34 1 1 31
M  V30 35 1 1 32
M  V30 36 1 1 33
M  V30 37 1 2 34
M  V30 38 1 2 35
M  V30 39 1 5 36
M  V30 40 1 7 37
M  V30 41 1 11 38
M  V30 42 1 13 39
M  V30 43 1 14 40
M  V30 44 1 18 41
M  V30 45 1 19 42 CFG=1
M  V30 46 1 20 43
M  V30 47 1 20 44
M  V30 48 1 21 45
M  V30 49 1 23 46
M  V30 50 1 24 47
M  V30 51 1 25 48
M  V30 52 1 26 49
M  V30 53 1 27 50
M  V30 54 1 28 51
M  V30 55 1 30 52
M  V30 END BOND
M  V30 END CTAB
M  END
>  <Dataset>  (828) 
ChEMBL_Kinases

>  <Ligand_Instance>  (828) 
nan

>  <PDB_ID>  (828) 
nan

>  <Standardized_SMILES>  (828) 
CCc1ncc(/C=C2\C(=O)Nc3ccc(C(=O)N[C@H](CO)c4ccccc4)cc32)[nH]1

>  <Name>  (828) 
nan

>  <Pocket>  (828) 
nan

>  <ATP_Site>  (828) 
nan

>  <Peripheral>  (828) 
nan

>  <Num_H_Atoms_ProtBoundConf>  (828) 
nan

>  <Num_Resolved_Atoms>  (828) 
nan

>  <Num_Not_Resolved_Atoms>  (828) 
nan

$$$$
CHEMBL478614
     RDKit          3D

  0  0  0  0  0  0  0  0  0  0999 V3000
M  V30 BEGIN CTAB
M  V30 COUNTS 49 52 0 0 0
M  V30 BEGIN ATOM
M  V30 1 C 0.668066 -0.646716 4.705927 0
M  V30 2 C 1.509254 0.103778 3.744315 0
M  V30 3 C 2.460209 1.004737 4.177533 0
M  V30 4 C 3.274841 1.733527 3.303320 0
M  V30 5 C 3.124690 1.546027 1.924460 0
M  V30 6 C 3.984060 2.315963 1.031072 0
M  V30 7 O 4.800022 3.095349 1.575148 0
M  V30 8 N 3.890775 2.180516 -0.366126 0
M  V30 9 C 4.838826 3.041022 -1.033267 0
M  V30 10 N 5.656176 3.812245 -0.766067 0
M  V30 11 C 6.419032 4.493747 -1.614929 0
M  V30 12 C 6.187259 4.228888 -3.014233 0
M  V30 13 S 4.800364 2.939073 -2.928305 0
M  V30 14 C 2.170121 0.642220 1.506128 0
M  V30 15 C 1.372160 -0.071204 2.375736 0
M  V30 16 C 0.391906 -1.003276 1.829906 0
M  V30 17 C -0.328467 -0.485364 0.769902 0
M  V30 18 C -1.295585 -1.243422 0.142954 0
M  V30 19 C -1.580513 -2.531953 0.541752 0
M  V30 20 C -2.577146 -3.416104 -0.048000 0
M  V30 21 O -2.790334 -4.600161 0.371378 0
M  V30 22 N -3.411261 -3.058539 -1.143383 0
M  V30 23 C -4.394347 -3.961362 -1.708250 0
M  V30 24 C -5.398817 -4.346741 -0.655659 0
M  V30 25 C -6.156041 -3.151110 -0.078994 0
M  V30 26 C -6.852657 -4.197565 -0.894169 0
M  V30 27 C -0.853580 -3.030654 1.598315 0
M  V30 28 C 0.118617 -2.292569 2.241674 0
M  V30 29 H -0.340900 -0.883720 4.334422 0
M  V30 30 H 0.486638 0.065521 5.563728 0
M  V30 31 H 1.182108 -1.511767 5.151365 0
M  V30 32 H 2.582402 1.156002 5.261730 0
M  V30 33 H 3.999985 2.423546 3.720612 0
M  V30 34 H 3.223596 1.542305 -0.836965 0
M  V30 35 H 7.124191 5.167379 -1.147179 0
M  V30 36 H 6.927384 4.895435 -3.684468 0
M  V30 37 H 2.042485 0.486660 0.444670 0
M  V30 38 H -0.197965 0.515270 0.362380 0
M  V30 39 H -1.869002 -0.858817 -0.685659 0
M  V30 40 H -3.270339 -2.077571 -1.529355 0
M  V30 41 H -3.936593 -4.830574 -2.206980 0
M  V30 42 H -4.948778 -3.404821 -2.491686 0
M  V30 43 H -5.058678 -5.089584 0.092106 0
M  V30 44 H -6.056952 -2.174774 -0.578264 0
M  V30 45 H -6.308467 -3.127249 1.021255 0
M  V30 46 H -7.511742 -4.864751 -0.300247 0
M  V30 47 H -7.232347 -3.971387 -1.908183 0
M  V30 48 H -0.987144 -4.037313 2.005839 0
M  V30 49 H 0.715389 -2.627596 3.068338 0
M  V30 END ATOM
M  V30 BEGIN BOND
M  V30 1 1 1 2
M  V30 2 2 2 3
M  V30 3 1 3 4
M  V30 4 2 4 5
M  V30 5 1 5 6
M  V30 6 2 6 7
M  V30 7 1 6 8
M  V30 8 1 8 9
M  V30 9 2 9 10
M  V30 10 1 10 11
M  V30 11 2 11 12
M  V30 12 1 12 13
M  V30 13 1 5 14
M  V30 14 2 14 15
M  V30 15 1 15 16
M  V30 16 2 16 17
M  V30 17 1 17 18
M  V30 18 2 18 19
M  V30 19 1 19 20
M  V30 20 2 20 21
M  V30 21 1 20 22
M  V30 22 1 22 23
M  V30 23 1 23 24
M  V30 24 1 24 25
M  V30 25 1 25 26
M  V30 26 1 19 27
M  V30 27 2 27 28
M  V30 28 1 15 2
M  V30 29 1 28 16
M  V30 30 1 13 9
M  V30 31 1 26 24
M  V30 32 1 1 29
M  V30 33 1 1 30
M  V30 34 1 1 31
M  V30 35 1 3 32
M  V30 36 1 4 33
M  V30 37 1 8 34
M  V30 38 1 11 35
M  V30 39 1 12 36
M  V30 40 1 14 37
M  V30 41 1 17 38
M  V30 42 1 18 39
M  V30 43 1 22 40
M  V30 44 1 23 41
M  V30 45 1 23 42
M  V30 46 1 24 43
M  V30 47 1 25 44
M  V30 48 1 25 45
M  V30 49 1 26 46
M  V30 50 1 26 47
M  V30 51 1 27 48
M  V30 52 1 28 49
M  V30 END BOND
M  V30 END CTAB
M  END
>  <Dataset>  (829) 
ChEMBL_Kinases

>  <Ligand_Instance>  (829) 
nan

>  <PDB_ID>  (829) 
nan

>  <Standardized_SMILES>  (829) 
Cc1ccc(C(=O)Nc2nccs2)cc1-c1ccc(C(=O)NCC2CC2)cc1

>  <Name>  (829) 
nan

>  <Pocket>  (829) 
nan

>  <ATP_Site>  (829) 
nan

>  <Peripheral>  (829) 
nan

>  <Num_H_Atoms_ProtBoundConf>  (829) 
nan

>  <Num_Resolved_Atoms>  (829) 
nan

>  <Num_Not_Resolved_Atoms>  (829) 
nan

$$$$
CHEMBL4173916
     RDKit          3D

  0  0  0  0  0  0  0  0  0  0999 V3000
M  V30 BEGIN CTAB
M  V30 COUNTS 54 58 0 0 0
M  V30 BEGIN ATOM
M  V30 1 O -1.469483 -1.965501 1.689983 0
M  V30 2 C -2.222385 -2.039834 0.646984 0
M  V30 3 N -2.865300 -0.782004 0.496512 0
M  V30 4 C -2.398069 0.051851 1.587039 0
M  V30 5 C -2.984855 0.107087 2.835018 0
M  V30 6 C -2.402439 0.981997 3.759589 0
M  V30 7 C -1.303237 1.732845 3.409078 0
M  V30 8 N -0.559256 2.645593 4.094651 0
M  V30 9 N 0.400405 3.098662 3.304943 0
M  V30 10 C 0.331323 2.507895 2.076211 0
M  V30 11 N 1.207161 2.772978 0.967165 0
M  V30 12 C 2.572286 2.532754 0.692097 0
M  V30 13 C 3.206797 3.740644 0.464518 0
M  V30 14 C 4.572062 3.800401 0.175996 0
M  V30 15 C 5.279996 2.597208 0.124594 0
M  V30 16 C 4.647630 1.385791 0.352665 0
M  V30 17 C 5.276137 0.159498 0.320723 0
M  V30 18 C 4.547649 -1.008155 0.565319 0
M  V30 19 C 3.190383 -0.986667 0.844525 0
M  V30 20 C 2.562782 0.240612 0.876222 0
M  V30 21 C 3.304370 1.367554 0.632772 0
M  V30 22 C -0.748529 1.648616 2.154866 0
M  V30 23 C -1.301479 0.786010 1.204491 0
M  V30 24 C -2.308281 -3.254040 -0.145578 0
M  V30 25 C -3.673768 -3.840364 -0.316484 0
M  V30 26 C -3.864406 -4.480561 -1.688334 0
M  V30 27 C -2.688184 -5.319760 -2.110999 0
M  V30 28 C -1.364547 -4.598687 -1.963981 0
M  V30 29 O -0.591597 -5.161740 -0.946306 0
M  V30 30 C -1.681049 -3.182695 -1.525541 0
M  V30 31 H -3.517717 -0.731197 -0.344649 0
M  V30 32 H -3.845738 -0.524139 3.008795 0
M  V30 33 H -2.854724 1.024598 4.729919 0
M  V30 34 H -0.736182 2.934178 5.100772 0
M  V30 35 H 0.616340 3.240171 0.262543 0
M  V30 36 H 2.789889 4.750928 0.470920 0
M  V30 37 H 5.137624 4.709426 -0.012516 0
M  V30 38 H 6.329155 2.506494 -0.084489 0
M  V30 39 H 6.349346 0.133262 0.101847 0
M  V30 40 H 5.040227 -1.967049 0.540399 0
M  V30 41 H 2.623844 -1.886000 1.035281 0
M  V30 42 H 1.522632 0.257377 1.091297 0
M  V30 43 H -0.817932 0.769846 0.242159 0
M  V30 44 H -1.686081 -4.036824 0.391364 0
M  V30 45 H -4.482095 -3.079614 -0.229885 0
M  V30 46 H -3.907657 -4.617194 0.437785 0
M  V30 47 H -4.136327 -3.753645 -2.468340 0
M  V30 48 H -4.727507 -5.178475 -1.580654 0
M  V30 49 H -2.662827 -6.305763 -1.584509 0
M  V30 50 H -2.791423 -5.543463 -3.187116 0
M  V30 51 H -0.761140 -4.581917 -2.886455 0
M  V30 52 H -1.106339 -5.952868 -0.606218 0
M  V30 53 H -2.391367 -2.662193 -2.183072 0
M  V30 54 H -0.765161 -2.567383 -1.415220 0
M  V30 END ATOM
M  V30 BEGIN BOND
M  V30 1 2 1 2
M  V30 2 1 2 3
M  V30 3 1 3 4
M  V30 4 2 4 5
M  V30 5 1 5 6
M  V30 6 2 6 7
M  V30 7 1 7 8
M  V30 8 1 8 9
M  V30 9 2 9 10
M  V30 10 1 10 11
M  V30 11 1 11 12
M  V30 12 2 12 13
M  V30 13 1 13 14
M  V30 14 2 14 15
M  V30 15 1 15 16
M  V30 16 2 16 17
M  V30 17 1 17 18
M  V30 18 2 18 19
M  V30 19 1 19 20
M  V30 20 2 20 21
M  V30 21 1 10 22
M  V30 22 2 22 23
M  V30 23 1 2 24
M  V30 24 1 24 25
M  V30 25 1 25 26
M  V30 26 1 26 27
M  V30 27 1 27 28
M  V30 28 1 28 29
M  V30 29 1 28 30
M  V30 30 1 23 4
M  V30 31 1 30 24
M  V30 32 1 22 7
M  V30 33 1 21 12
M  V30 34 1 21 16
M  V30 35 1 3 31
M  V30 36 1 5 32
M  V30 37 1 6 33
M  V30 38 1 8 34
M  V30 39 1 11 35
M  V30 40 1 13 36
M  V30 41 1 14 37
M  V30 42 1 15 38
M  V30 43 1 17 39
M  V30 44 1 18 40
M  V30 45 1 19 41
M  V30 46 1 20 42
M  V30 47 1 23 43
M  V30 48 1 24 44
M  V30 49 1 25 45
M  V30 50 1 25 46
M  V30 51 1 26 47
M  V30 52 1 26 48
M  V30 53 1 27 49
M  V30 54 1 27 50
M  V30 55 1 28 51
M  V30 56 1 29 52
M  V30 57 1 30 53
M  V30 58 1 30 54
M  V30 END BOND
M  V30 END CTAB
M  END
>  <Dataset>  (830) 
ChEMBL_Kinases

>  <Ligand_Instance>  (830) 
nan

>  <PDB_ID>  (830) 
nan

>  <Standardized_SMILES>  (830) 
O=C(Nc1ccc2[nH]nc(Nc3cccc4ccccc34)c2c1)C1CCCC(O)C1

>  <Name>  (830) 
nan

>  <Pocket>  (830) 
nan

>  <ATP_Site>  (830) 
nan

>  <Peripheral>  (830) 
nan

>  <Num_H_Atoms_ProtBoundConf>  (830) 
nan

>  <Num_Resolved_Atoms>  (830) 
nan

>  <Num_Not_Resolved_Atoms>  (830) 
nan

$$$$
CHEMBL4173827
     RDKit          3D

  0  0  0  0  0  0  0  0  0  0999 V3000
M  V30 BEGIN CTAB
M  V30 COUNTS 65 70 0 0 0
M  V30 BEGIN ATOM
M  V30 1 C -0.543980 -2.037682 -0.225691 0
M  V30 2 C -0.256480 -1.490267 1.128569 0 CFG=2
M  V30 3 C -0.947822 -0.170493 1.326282 0
M  V30 4 C -0.431065 0.776610 0.270996 0
M  V30 5 C 1.041478 0.799593 0.118323 0 CFG=1
M  V30 6 C 1.747931 -0.519014 0.218310 0 CFG=1
M  V30 7 C 3.231557 -0.232574 0.326455 0
M  V30 8 C 3.666612 0.887061 -0.514925 0
M  V30 9 C 2.866688 1.710090 -1.175781 0
M  V30 10 C 3.521097 2.762458 -1.957319 0
M  V30 11 C 2.696074 3.975478 -2.194462 0 CFG=1
M  V30 12 O 3.051166 4.459913 -3.473216 0
M  V30 13 C 1.227573 3.751865 -2.210425 0
M  V30 14 C 0.755420 2.942494 -0.998925 0
M  V30 15 C 1.385565 1.576500 -1.129727 0 CFG=2
M  V30 16 C 0.885654 0.959585 -2.394680 0
M  V30 17 C 1.211581 -1.242255 1.405940 0 CFG=2
M  V30 18 C 1.716372 -2.648949 1.571553 0
M  V30 19 C 0.549337 -3.450294 2.131913 0
M  V30 20 C -0.572573 -2.491668 2.207681 0 CFG=2
M  V30 21 C -1.925600 -3.034158 2.145104 0
M  V30 22 C -2.370635 -3.998134 1.256422 0
M  V30 23 C -3.658110 -4.494365 1.208688 0
M  V30 24 C -4.584185 -4.003876 2.107431 0
M  V30 25 C -5.880492 -4.474742 2.091041 0
M  V30 26 C -6.753022 -3.932229 3.026356 0
M  V30 27 N -6.388573 -2.990115 3.922551 0
M  V30 28 C -5.114093 -2.501336 3.967116 0
M  V30 29 C -4.249082 -3.041189 3.037645 0
M  V30 30 C -2.940254 -2.604825 3.011001 0
M  V30 31 H -0.042934 -2.986965 -0.418129 0
M  V30 32 H -1.649621 -2.180429 -0.281384 0
M  V30 33 H -0.354874 -1.284220 -1.041774 0
M  V30 34 H -2.047521 -0.213648 1.169223 0
M  V30 35 H -0.768836 0.238003 2.323400 0
M  V30 36 H -0.995778 0.679362 -0.695289 0
M  V30 37 H -0.751206 1.796024 0.642022 0
M  V30 38 H 1.447870 1.424046 0.966577 0
M  V30 39 H 1.642009 -1.170854 -0.668038 0
M  V30 40 H 3.780786 -1.150253 0.032532 0
M  V30 41 H 3.488407 -0.088752 1.410208 0
M  V30 42 H 4.763499 0.989995 -0.552331 0
M  V30 43 H 3.859060 2.305584 -2.924289 0
M  V30 44 H 4.457216 3.089992 -1.461288 0
M  V30 45 H 2.930539 4.816315 -1.507608 0
M  V30 46 H 2.280698 4.935532 -3.884554 0
M  V30 47 H 0.744783 4.761488 -2.059722 0
M  V30 48 H 0.802041 3.384912 -3.157649 0
M  V30 49 H -0.348992 2.857219 -1.051169 0
M  V30 50 H 1.094179 3.508455 -0.110204 0
M  V30 51 H 1.153903 -0.114917 -2.495433 0
M  V30 52 H 1.458724 1.455462 -3.231914 0
M  V30 53 H -0.184452 1.175140 -2.515349 0
M  V30 54 H 1.280961 -0.649451 2.339672 0
M  V30 55 H 2.095246 -3.013988 0.618657 0
M  V30 56 H 2.571133 -2.647599 2.299671 0
M  V30 57 H 0.408346 -4.303589 1.472513 0
M  V30 58 H 0.822324 -3.766447 3.180631 0
M  V30 59 H -0.504287 -1.904916 3.168938 0
M  V30 60 H -1.693689 -4.409325 0.550122 0
M  V30 61 H -3.954300 -5.244671 0.497246 0
M  V30 62 H -6.185797 -5.229084 1.378721 0
M  V30 63 H -7.764604 -4.326001 2.984614 0
M  V30 64 H -4.803840 -1.746967 4.677566 0
M  V30 65 H -2.650199 -1.836739 3.744374 0
M  V30 END ATOM
M  V30 BEGIN BOND
M  V30 1 1 2 1 CFG=3
M  V30 2 1 2 3
M  V30 3 1 3 4
M  V30 4 1 4 5
M  V30 5 1 5 6
M  V30 6 1 6 7
M  V30 7 1 7 8
M  V30 8 2 8 9
M  V30 9 1 9 10
M  V30 10 1 10 11
M  V30 11 1 11 12
M  V30 12 1 11 13
M  V30 13 1 13 14
M  V30 14 1 14 15
M  V30 15 1 15 16 CFG=3
M  V30 16 1 6 17
M  V30 17 1 17 18
M  V30 18 1 18 19
M  V30 19 1 19 20
M  V30 20 1 20 21
M  V30 21 2 21 22
M  V30 22 1 22 23
M  V30 23 2 23 24
M  V30 24 1 24 25
M  V30 25 2 25 26
M  V30 26 1 26 27
M  V30 27 2 27 28
M  V30 28 1 28 29
M  V30 29 2 29 30
M  V30 30 1 17 2
M  V30 31 1 30 21
M  V30 32 1 20 2
M  V30 33 1 29 24
M  V30 34 1 15 5
M  V30 35 1 15 9
M  V30 36 1 1 31
M  V30 37 1 1 32
M  V30 38 1 1 33
M  V30 39 1 3 34
M  V30 40 1 3 35
M  V30 41 1 4 36
M  V30 42 1 4 37
M  V30 43 1 5 38 CFG=1
M  V30 44 1 6 39 CFG=3
M  V30 45 1 7 40
M  V30 46 1 7 41
M  V30 47 1 8 42
M  V30 48 1 10 43
M  V30 49 1 10 44
M  V30 50 1 11 45 CFG=1
M  V30 51 1 12 46
M  V30 52 1 13 47
M  V30 53 1 13 48
M  V30 54 1 14 49
M  V30 55 1 14 50
M  V30 56 1 16 51
M  V30 57 1 16 52
M  V30 58 1 16 53
M  V30 59 1 17 54 CFG=1
M  V30 60 1 18 55
M  V30 61 1 18 56
M  V30 62 1 19 57
M  V30 63 1 19 58
M  V30 64 1 20 59 CFG=1
M  V30 65 1 22 60
M  V30 66 1 23 61
M  V30 67 1 25 62
M  V30 68 1 26 63
M  V30 69 1 28 64
M  V30 70 1 30 65
M  V30 END BOND
M  V30 END CTAB
M  END
>  <Dataset>  (831) 
ChEMBL_Kinases

>  <Ligand_Instance>  (831) 
nan

>  <PDB_ID>  (831) 
nan

>  <Standardized_SMILES>  (831) 
C[C@]12CC[C@H]3[C@@H](CC=C4C[C@@H](O)CC[C@@]43C)[C@@H]1CC[C@@H]2c1ccc2ccncc2c1

>  <Name>  (831) 
nan

>  <Pocket>  (831) 
nan

>  <ATP_Site>  (831) 
nan

>  <Peripheral>  (831) 
nan

>  <Num_H_Atoms_ProtBoundConf>  (831) 
nan

>  <Num_Resolved_Atoms>  (831) 
nan

>  <Num_Not_Resolved_Atoms>  (831) 
nan

$$$$
CHEMBL4173672
     RDKit          3D

  0  0  0  0  0  0  0  0  0  0999 V3000
M  V30 BEGIN CTAB
M  V30 COUNTS 62 67 0 0 0
M  V30 BEGIN ATOM
M  V30 1 O 2.337543 -2.152965 4.785846 0
M  V30 2 C 2.539139 -2.023121 3.558959 0
M  V30 3 N 3.757751 -2.318805 2.837301 0
M  V30 4 C 3.560719 -2.025336 1.456089 0
M  V30 5 C 4.440481 -2.140178 0.368571 0
M  V30 6 C 3.977026 -1.767535 -0.898846 0
M  V30 7 C 2.703402 -1.292765 -1.139508 0
M  V30 8 C 2.288665 -0.949043 -2.494485 0
M  V30 9 O 3.006253 -1.391162 -3.433782 0
M  V30 10 N 1.138948 -0.155752 -2.788088 0
M  V30 11 C 0.720036 0.170921 -4.142078 0 CFG=2
M  V30 12 C 1.178093 1.618253 -4.445940 0
M  V30 13 O 0.732445 1.828444 -5.769470 0
M  V30 14 C -0.752660 0.146225 -4.294930 0
M  V30 15 C -1.549163 -0.473503 -5.203107 0
M  V30 16 C -2.922202 -0.373455 -5.202405 0
M  V30 17 C -3.534431 0.404167 -4.220159 0
M  V30 18 C -2.731189 1.045439 -3.282838 0
M  V30 19 C -1.338712 0.931857 -3.299523 0
M  V30 20 C 1.874497 -1.197047 -0.043437 0
M  V30 21 C 2.263844 -1.546278 1.224303 0
M  V30 22 C 1.646228 -1.553699 2.535548 0
M  V30 23 C 0.407884 -1.170127 2.763006 0
M  V30 24 C -0.563811 -0.684824 1.787366 0
M  V30 25 C -0.993630 0.580788 1.458904 0
M  V30 26 C -2.001707 0.747685 0.540711 0
M  V30 27 C -2.590071 -0.346340 -0.058936 0
M  V30 28 C -2.181713 -1.640822 0.247009 0
M  V30 29 C -1.152650 -1.813581 1.184721 0
M  V30 30 C -0.303745 -1.207184 4.049205 0
M  V30 31 N -1.011083 -0.243017 4.697143 0
M  V30 32 C -1.538067 -0.714029 5.832544 0
M  V30 33 C -2.317374 -0.054116 6.766606 0
M  V30 34 C -2.755910 -0.746560 7.874773 0
M  V30 35 C -2.407403 -2.076741 8.022580 0
M  V30 36 C -1.633952 -2.695557 7.074476 0
M  V30 37 C -1.161976 -2.055487 5.940447 0
M  V30 38 N -0.412203 -2.294987 4.824674 0
M  V30 39 H 4.638298 -2.686297 3.260340 0
M  V30 40 H 5.444290 -2.508137 0.536478 0
M  V30 41 H 4.714997 -1.884633 -1.679519 0
M  V30 42 H 0.557561 0.219186 -1.999471 0
M  V30 43 H 1.258158 -0.503644 -4.826532 0
M  V30 44 H 2.261788 1.733016 -4.362479 0
M  V30 45 H 0.613775 2.300761 -3.792465 0
M  V30 46 H 0.252331 2.680559 -5.819835 0
M  V30 47 H -0.970300 -1.059267 -5.932514 0
M  V30 48 H -3.491381 -0.890737 -5.951335 0
M  V30 49 H -4.625903 0.491004 -4.211279 0
M  V30 50 H -3.321979 1.628441 -2.557343 0
M  V30 51 H -0.932325 1.516110 -2.481123 0
M  V30 52 H 0.905909 -0.807214 -0.284860 0
M  V30 53 H -0.436130 1.325164 2.012044 0
M  V30 54 H -2.282536 1.764512 0.337253 0
M  V30 55 H -3.392352 -0.210265 -0.781292 0
M  V30 56 H -2.694075 -2.438975 -0.268627 0
M  V30 57 H -0.950173 -2.865584 1.314866 0
M  V30 58 H -2.587701 0.993202 6.643725 0
M  V30 59 H -3.368301 -0.283397 8.640816 0
M  V30 60 H -2.702580 -2.703836 8.857229 0
M  V30 61 H -1.343282 -3.721924 7.150028 0
M  V30 62 H -0.068572 -3.280048 4.766351 0
M  V30 END ATOM
M  V30 BEGIN BOND
M  V30 1 2 1 2
M  V30 2 1 2 3
M  V30 3 1 3 4
M  V30 4 2 4 5
M  V30 5 1 5 6
M  V30 6 2 6 7
M  V30 7 1 7 8
M  V30 8 2 8 9
M  V30 9 1 8 10
M  V30 10 1 10 11
M  V30 11 1 11 12
M  V30 12 1 12 13
M  V30 13 1 11 14
M  V30 14 2 14 15
M  V30 15 1 15 16
M  V30 16 2 16 17
M  V30 17 1 17 18
M  V30 18 2 18 19
M  V30 19 1 7 20
M  V30 20 2 20 21
M  V30 21 1 21 22
M  V30 22 2 22 23
M  V30 23 1 23 24
M  V30 24 2 24 25
M  V30 25 1 25 26
M  V30 26 2 26 27
M  V30 27 1 27 28
M  V30 28 2 28 29
M  V30 29 1 23 30
M  V30 30 2 30 31
M  V30 31 1 31 32
M  V30 32 2 32 33
M  V30 33 1 33 34
M  V30 34 2 34 35
M  V30 35 1 35 36
M  V30 36 2 36 37
M  V30 37 1 37 38
M  V30 38 1 22 2
M  V30 39 1 29 24
M  V30 40 1 38 30
M  V30 41 1 21 4
M  V30 42 1 37 32
M  V30 43 1 19 14
M  V30 44 1 3 39
M  V30 45 1 5 40
M  V30 46 1 6 41
M  V30 47 1 10 42
M  V30 48 1 11 43 CFG=3
M  V30 49 1 12 44
M  V30 50 1 12 45
M  V30 51 1 13 46
M  V30 52 1 15 47
M  V30 53 1 16 48
M  V30 54 1 17 49
M  V30 55 1 18 50
M  V30 56 1 19 51
M  V30 57 1 20 52
M  V30 58 1 25 53
M  V30 59 1 26 54
M  V30 60 1 27 55
M  V30 61 1 28 56
M  V30 62 1 29 57
M  V30 63 1 33 58
M  V30 64 1 34 59
M  V30 65 1 35 60
M  V30 66 1 36 61
M  V30 67 1 38 62
M  V30 END BOND
M  V30 END CTAB
M  END
>  <Dataset>  (832) 
ChEMBL_Kinases

>  <Ligand_Instance>  (832) 
nan

>  <PDB_ID>  (832) 
nan

>  <Standardized_SMILES>  (832) 
O=C1Nc2ccc(C(=O)N[C@H](CO)c3ccccc3)cc2/C1=C(\c1ccccc1)c1nc2ccccc2[nH]1

>  <Name>  (832) 
nan

>  <Pocket>  (832) 
nan

>  <ATP_Site>  (832) 
nan

>  <Peripheral>  (832) 
nan

>  <Num_H_Atoms_ProtBoundConf>  (832) 
nan

>  <Num_Resolved_Atoms>  (832) 
nan

>  <Num_Not_Resolved_Atoms>  (832) 
nan

$$$$
CHEMBL4173655
     RDKit          3D

  0  0  0  0  0  0  0  0  0  0999 V3000
M  V30 BEGIN CTAB
M  V30 COUNTS 58 62 0 0 0
M  V30 BEGIN ATOM
M  V30 1 C 5.595154 -2.076264 0.834263 0
M  V30 2 C 4.781966 -0.937662 1.332284 0
M  V30 3 N 5.085821 0.094425 2.112946 0
M  V30 4 N 4.060037 0.899133 2.322155 0
M  V30 5 C 4.247398 2.061193 3.152143 0
M  V30 6 C 3.855216 3.319311 2.701022 0
M  V30 7 C 4.082857 4.359852 3.580618 0
M  V30 8 C 4.647817 4.216177 4.812473 0
M  V30 9 C 5.019167 2.945177 5.211671 0
M  V30 10 C 4.829208 1.850575 4.398757 0
M  V30 11 C 3.015211 0.379377 1.646840 0
M  V30 12 O 1.804535 1.059424 1.715237 0
M  V30 13 C 0.643956 0.644761 1.073389 0
M  V30 14 C -0.107334 -0.210977 1.888389 0
M  V30 15 C -1.323271 -0.764117 1.464858 0
M  V30 16 C -1.743557 -0.418326 0.193605 0
M  V30 17 C -3.008367 -0.979551 -0.275533 0
M  V30 18 N -3.625537 -0.793606 -1.457990 0
M  V30 19 C -4.779623 -1.487792 -1.505429 0
M  V30 20 C -5.718815 -1.581911 -2.522272 0
M  V30 21 C -6.812167 -2.388910 -2.257740 0
M  V30 22 C -7.816846 -2.508746 -3.306822 0
M  V30 23 O -7.635754 -1.873621 -4.393216 0
M  V30 24 O -8.959501 -3.284874 -3.169587 0
M  V30 25 C -6.976877 -3.060987 -1.074609 0
M  V30 26 C -6.006151 -2.923832 -0.106356 0
M  V30 27 C -4.885576 -2.137961 -0.292034 0
M  V30 28 N -3.793260 -1.802705 0.421154 0
M  V30 29 C -1.012920 0.424230 -0.620697 0
M  V30 30 C 0.184790 0.962824 -0.190326 0
M  V30 31 C 3.449155 -0.773044 1.019669 0
M  V30 32 C 2.529128 -1.562721 0.207579 0
M  V30 33 N 1.677805 -2.513952 0.314180 0
M  V30 34 N 0.951698 -3.023409 -0.767966 0
M  V30 35 C 1.111390 -3.269602 -2.159412 0
M  V30 36 N 0.125602 -3.825429 -3.016804 0
M  V30 37 S 2.571373 -2.857864 -2.760855 0
M  V30 38 H 5.333713 -2.387954 -0.196807 0
M  V30 39 H 5.374751 -2.947212 1.493031 0
M  V30 40 H 6.682740 -1.883536 0.935576 0
M  V30 41 H 3.414598 3.400180 1.727971 0
M  V30 42 H 3.788551 5.360463 3.261572 0
M  V30 43 H 4.800858 5.072106 5.457496 0
M  V30 44 H 5.477382 2.760422 6.186207 0
M  V30 45 H 5.122292 0.854260 4.716174 0
M  V30 46 H 0.168166 -0.522481 2.899493 0
M  V30 47 H -1.907580 -1.418207 2.074404 0
M  V30 48 H -5.573413 -1.046051 -3.447063 0
M  V30 49 H -9.414059 -3.714015 -3.978670 0
M  V30 50 H -7.842481 -3.691596 -0.882137 0
M  V30 51 H -6.103471 -3.438774 0.837908 0
M  V30 52 H -3.688606 -2.198374 1.378325 0
M  V30 53 H -1.330267 0.703421 -1.618020 0
M  V30 54 H 0.841472 1.628667 -0.730172 0
M  V30 55 H 2.635652 -1.187946 -0.802296 0
M  V30 56 H 0.349269 -3.062217 0.081590 0
M  V30 57 H -0.848070 -3.849254 -3.388652 0
M  V30 58 H 0.399383 -4.628352 -3.644248 0
M  V30 END ATOM
M  V30 BEGIN BOND
M  V30 1 1 1 2
M  V30 2 2 2 3
M  V30 3 1 3 4
M  V30 4 1 4 5
M  V30 5 2 5 6
M  V30 6 1 6 7
M  V30 7 2 7 8
M  V30 8 1 8 9
M  V30 9 2 9 10
M  V30 10 1 4 11
M  V30 11 1 11 12
M  V30 12 1 12 13
M  V30 13 2 13 14
M  V30 14 1 14 15
M  V30 15 2 15 16
M  V30 16 1 16 17
M  V30 17 2 17 18
M  V30 18 1 18 19
M  V30 19 2 19 20
M  V30 20 1 20 21
M  V30 21 1 21 22
M  V30 22 2 22 23
M  V30 23 1 22 24
M  V30 24 2 21 25
M  V30 25 1 25 26
M  V30 26 2 26 27
M  V30 27 1 27 28
M  V30 28 1 16 29
M  V30 29 2 29 30
M  V30 30 2 11 31
M  V30 31 1 31 32
M  V30 32 2 32 33
M  V30 33 1 33 34
M  V30 34 1 34 35
M  V30 35 1 35 36
M  V30 36 2 35 37
M  V30 37 1 31 2
M  V30 38 1 10 5
M  V30 39 1 30 13
M  V30 40 1 28 17
M  V30 41 1 27 19
M  V30 42 1 1 38
M  V30 43 1 1 39
M  V30 44 1 1 40
M  V30 45 1 6 41
M  V30 46 1 7 42
M  V30 47 1 8 43
M  V30 48 1 9 44
M  V30 49 1 10 45
M  V30 50 1 14 46
M  V30 51 1 15 47
M  V30 52 1 20 48
M  V30 53 1 24 49
M  V30 54 1 25 50
M  V30 55 1 26 51
M  V30 56 1 28 52
M  V30 57 1 29 53
M  V30 58 1 30 54
M  V30 59 1 32 55
M  V30 60 1 34 56
M  V30 61 1 36 57
M  V30 62 1 36 58
M  V30 END BOND
M  V30 END CTAB
M  END
>  <Dataset>  (833) 
ChEMBL_Kinases

>  <Ligand_Instance>  (833) 
nan

>  <PDB_ID>  (833) 
nan

>  <Standardized_SMILES>  (833) 
Cc1nn(-c2ccccc2)c(Oc2ccc(-c3nc4cc(C(=O)O)ccc4[nH]3)cc2)c1/C=N/NC(N)=S

>  <Name>  (833) 
nan

>  <Pocket>  (833) 
nan

>  <ATP_Site>  (833) 
nan

>  <Peripheral>  (833) 
nan

>  <Num_H_Atoms_ProtBoundConf>  (833) 
nan

>  <Num_Resolved_Atoms>  (833) 
nan

>  <Num_Not_Resolved_Atoms>  (833) 
nan

$$$$
CHEMBL4785443
     RDKit          3D

  0  0  0  0  0  0  0  0  0  0999 V3000
M  V30 BEGIN CTAB
M  V30 COUNTS 72 75 0 0 0
M  V30 BEGIN ATOM
M  V30 1 C 7.021285 1.087871 4.250333 0
M  V30 2 C 6.164870 2.332265 4.171667 0
M  V30 3 N 5.488491 2.348305 2.914838 0
M  V30 4 C 4.633895 3.469361 2.684016 0
M  V30 5 C 3.404672 3.503828 3.567354 0
M  V30 6 C 4.989425 1.081662 2.481241 0
M  V30 7 C 4.277526 1.127446 1.178341 0
M  V30 8 C 4.532355 0.513561 0.037348 0
M  V30 9 C 3.876385 0.522230 -1.253091 0
M  V30 10 O 4.505413 -0.242908 -2.076027 0
M  V30 11 N 2.715597 1.168308 -1.819477 0
M  V30 12 C 1.652013 2.094992 -1.392606 0
M  V30 13 C 0.366317 1.339129 -1.578962 0
M  V30 14 C 0.194956 0.343186 -2.436883 0
M  V30 15 C -1.086331 -0.361834 -2.576632 0
M  V30 16 C -2.225121 -0.082187 -1.851530 0
M  V30 17 C -3.410014 -0.771158 -2.007318 0
M  V30 18 C -3.490483 -1.796560 -2.927096 0
M  V30 19 C -4.832351 -2.481496 -2.995793 0 CFG=2
M  V30 20 C -5.843775 -1.476991 -3.472388 0
M  V30 21 C -5.153351 -3.114062 -1.710819 0
M  V30 22 O -4.120235 -2.811352 -1.066613 0
M  V30 23 N -6.234142 -3.855838 -1.213893 0
M  V30 24 C -6.250499 -4.348281 0.113302 0
M  V30 25 C -5.283706 -4.202803 1.082629 0
M  V30 26 C -5.771121 -4.871211 2.218069 0
M  V30 27 C -4.997064 -4.943852 3.510763 0
M  V30 28 C -4.095162 -3.771727 3.768104 0
M  V30 29 C -3.468578 -5.041016 3.336220 0
M  V30 30 N -6.968039 -5.376185 1.905371 0
M  V30 31 N -7.258489 -5.062693 0.638386 0
M  V30 32 C -2.379982 -2.114367 -3.677106 0
M  V30 33 C -1.219419 -1.395153 -3.483125 0
M  V30 34 C 1.305018 -0.122180 -3.315332 0
M  V30 35 C 2.396794 0.913868 -3.216096 0
M  V30 36 H 7.590604 1.039298 3.275478 0
M  V30 37 H 6.425152 0.179589 4.382986 0
M  V30 38 H 7.781574 1.168568 5.064193 0
M  V30 39 H 5.493367 2.437398 5.045848 0
M  V30 40 H 6.904718 3.187276 4.161745 0
M  V30 41 H 4.363515 3.499979 1.611890 0
M  V30 42 H 5.252830 4.391086 2.843655 0
M  V30 43 H 2.998989 2.492284 3.737195 0
M  V30 44 H 2.606270 4.111179 3.090057 0
M  V30 45 H 3.694427 4.017592 4.506520 0
M  V30 46 H 5.862815 0.370553 2.435137 0
M  V30 47 H 4.332944 0.622920 3.279116 0
M  V30 48 H 3.408954 1.767173 1.155368 0
M  V30 49 H 5.429231 -0.079077 0.236956 0
M  V30 50 H 1.708490 3.000800 -2.028518 0
M  V30 51 H 1.717216 2.319985 -0.331247 0
M  V30 52 H -0.455048 1.649421 -0.964772 0
M  V30 53 H -2.208849 0.704101 -1.125426 0
M  V30 54 H -4.274833 -0.484620 -1.387677 0
M  V30 55 H -4.736391 -3.248552 -3.817893 0
M  V30 56 H -6.847858 -1.932797 -3.326068 0
M  V30 57 H -5.738727 -1.384087 -4.580546 0
M  V30 58 H -5.744566 -0.496725 -2.963697 0
M  V30 59 H -6.957374 -3.966402 -1.940673 0
M  V30 60 H -4.349683 -3.706311 1.045376 0
M  V30 61 H -5.431535 -5.508946 4.337205 0
M  V30 62 H -3.983042 -3.408636 4.803079 0
M  V30 63 H -4.118890 -2.934794 3.025261 0
M  V30 64 H -3.076051 -5.065206 2.277787 0
M  V30 65 H -2.892578 -5.675446 4.016324 0
M  V30 66 H -7.516010 -5.917896 2.612070 0
M  V30 67 H -2.492736 -2.914112 -4.373524 0
M  V30 68 H -0.399057 -1.702415 -4.104277 0
M  V30 69 H 0.920983 -0.166814 -4.377169 0
M  V30 70 H 1.671430 -1.129279 -3.075304 0
M  V30 71 H 3.309572 0.414343 -3.656528 0
M  V30 72 H 2.195269 1.828282 -3.806488 0
M  V30 END ATOM
M  V30 BEGIN BOND
M  V30 1 1 1 2
M  V30 2 1 2 3
M  V30 3 1 3 4
M  V30 4 1 4 5
M  V30 5 1 3 6
M  V30 6 1 6 7
M  V30 7 2 7 8
M  V30 8 1 8 9
M  V30 9 2 9 10
M  V30 10 1 9 11
M  V30 11 1 11 12
M  V30 12 1 12 13
M  V30 13 2 13 14
M  V30 14 1 14 15
M  V30 15 2 15 16
M  V30 16 1 16 17
M  V30 17 2 17 18
M  V30 18 1 18 19
M  V30 19 1 19 20
M  V30 20 1 19 21
M  V30 21 2 21 22
M  V30 22 1 21 23
M  V30 23 1 23 24
M  V30 24 1 24 25
M  V30 25 2 25 26
M  V30 26 1 26 27
M  V30 27 1 27 28
M  V30 28 1 28 29
M  V30 29 1 26 30
M  V30 30 1 30 31
M  V30 31 1 18 32
M  V30 32 2 32 33
M  V30 33 1 14 34
M  V30 34 1 34 35
M  V30 35 1 35 11
M  V30 36 1 33 15
M  V30 37 2 31 24
M  V30 38 1 29 27
M  V30 39 1 1 36
M  V30 40 1 1 37
M  V30 41 1 1 38
M  V30 42 1 2 39
M  V30 43 1 2 40
M  V30 44 1 4 41
M  V30 45 1 4 42
M  V30 46 1 5 43
M  V30 47 1 5 44
M  V30 48 1 5 45
M  V30 49 1 6 46
M  V30 50 1 6 47
M  V30 51 1 7 48
M  V30 52 1 8 49
M  V30 53 1 12 50
M  V30 54 1 12 51
M  V30 55 1 13 52
M  V30 56 1 16 53
M  V30 57 1 17 54
M  V30 58 1 19 55 CFG=3
M  V30 59 1 20 56
M  V30 60 1 20 57
M  V30 61 1 20 58
M  V30 62 1 23 59
M  V30 63 1 25 60
M  V30 64 1 27 61
M  V30 65 1 28 62
M  V30 66 1 28 63
M  V30 67 1 29 64
M  V30 68 1 29 65
M  V30 69 1 30 66
M  V30 70 1 32 67
M  V30 71 1 33 68
M  V30 72 1 34 69
M  V30 73 1 34 70
M  V30 74 1 35 71
M  V30 75 1 35 72
M  V30 END BOND
M  V30 END CTAB
M  END
>  <Dataset>  (834) 
ChEMBL_Kinases

>  <Ligand_Instance>  (834) 
nan

>  <PDB_ID>  (834) 
nan

>  <Standardized_SMILES>  (834) 
CCN(CC)C/C=C/C(=O)N1CC=C(c2ccc([C@H](C)C(=O)Nc3cc(C4CC4)[nH]n3)cc2)CC1

>  <Name>  (834) 
nan

>  <Pocket>  (834) 
nan

>  <ATP_Site>  (834) 
nan

>  <Peripheral>  (834) 
nan

>  <Num_H_Atoms_ProtBoundConf>  (834) 
nan

>  <Num_Resolved_Atoms>  (834) 
nan

>  <Num_Not_Resolved_Atoms>  (834) 
nan

$$$$
CHEMBL4785527
     RDKit          3D

  0  0  0  0  0  0  0  0  0  0999 V3000
M  V30 BEGIN CTAB
M  V30 COUNTS 32 35 0 0 0
M  V30 BEGIN ATOM
M  V30 1 C -1.426980 -5.552644 2.948866 0
M  V30 2 C -1.510049 -4.366901 2.732738 0
M  V30 3 C -1.593017 -2.964245 2.457167 0
M  V30 4 N -0.463365 -2.354009 2.059072 0
M  V30 5 C -0.425121 -1.045947 1.765756 0
M  V30 6 N 0.614358 -0.175647 1.352825 0
M  V30 7 C 1.157134 -0.111806 0.043048 0
M  V30 8 C 0.704020 -0.992738 -0.913431 0
M  V30 9 C 1.269610 -0.900358 -2.153234 0
M  V30 10 C 2.262071 0.024170 -2.489829 0
M  V30 11 C 2.675099 0.879227 -1.495904 0
M  V30 12 C 2.132803 0.829330 -0.209903 0
M  V30 13 N 2.779419 1.831877 0.583762 0
M  V30 14 C 3.740072 2.526469 -0.195634 0
M  V30 15 O 4.500363 3.447459 0.206706 0
M  V30 16 C 3.682930 1.963869 -1.580389 0
M  V30 17 N -1.581703 -0.386493 1.894312 0
M  V30 18 C -2.742154 -0.937382 2.287738 0
M  V30 19 N -4.004561 -0.509105 2.499440 0
M  V30 20 C -4.784645 -1.537969 2.910437 0
M  V30 21 N -4.023400 -2.644955 2.966699 0
M  V30 22 C -2.789307 -2.300892 2.595187 0
M  V30 23 H -1.351502 -6.581493 3.133005 0
M  V30 24 H 0.954594 0.440240 2.127860 0
M  V30 25 H -0.072383 -1.730636 -0.690525 0
M  V30 26 H 0.898973 -1.612141 -2.907714 0
M  V30 27 H 2.619603 -0.014569 -3.504360 0
M  V30 28 H 2.600311 2.053884 1.596476 0
M  V30 29 H 4.691799 1.643034 -1.848517 0
M  V30 30 H 3.363982 2.765220 -2.291861 0
M  V30 31 H -4.335604 0.480003 2.365073 0
M  V30 32 H -5.845462 -1.509152 3.162510 0
M  V30 END ATOM
M  V30 BEGIN BOND
M  V30 1 3 1 2
M  V30 2 1 2 3
M  V30 3 2 3 4
M  V30 4 1 4 5
M  V30 5 1 5 6
M  V30 6 1 6 7
M  V30 7 2 7 8
M  V30 8 1 8 9
M  V30 9 2 9 10
M  V30 10 1 10 11
M  V30 11 2 11 12
M  V30 12 1 12 13
M  V30 13 1 13 14
M  V30 14 2 14 15
M  V30 15 1 14 16
M  V30 16 2 5 17
M  V30 17 1 17 18
M  V30 18 1 18 19
M  V30 19 1 19 20
M  V30 20 2 20 21
M  V30 21 1 21 22
M  V30 22 1 22 3
M  V30 23 1 12 7
M  V30 24 2 22 18
M  V30 25 1 16 11
M  V30 26 1 1 23
M  V30 27 1 6 24
M  V30 28 1 8 25
M  V30 29 1 9 26
M  V30 30 1 10 27
M  V30 31 1 13 28
M  V30 32 1 16 29
M  V30 33 1 16 30
M  V30 34 1 19 31
M  V30 35 1 20 32
M  V30 END BOND
M  V30 END CTAB
M  END
>  <Dataset>  (835) 
ChEMBL_Kinases

>  <Ligand_Instance>  (835) 
nan

>  <PDB_ID>  (835) 
nan

>  <Standardized_SMILES>  (835) 
C#Cc1nc(Nc2cccc3c2NC(=O)C3)nc2[nH]cnc12

>  <Name>  (835) 
nan

>  <Pocket>  (835) 
nan

>  <ATP_Site>  (835) 
nan

>  <Peripheral>  (835) 
nan

>  <Num_H_Atoms_ProtBoundConf>  (835) 
nan

>  <Num_Resolved_Atoms>  (835) 
nan

>  <Num_Not_Resolved_Atoms>  (835) 
nan

$$$$
CHEMBL4785551
     RDKit          3D

  0  0  0  0  0  0  0  0  0  0999 V3000
M  V30 BEGIN CTAB
M  V30 COUNTS 67 71 0 0 0
M  V30 BEGIN ATOM
M  V30 1 C -0.199933 -3.487184 6.308820 0
M  V30 2 N 0.055028 -2.534874 5.246416 0
M  V30 3 C 0.653477 -3.088259 4.108898 0
M  V30 4 O 0.922296 -4.299578 4.066245 0
M  V30 5 C 0.997632 -2.257141 2.895597 0
M  V30 6 S 0.606840 -0.486379 2.952782 0
M  V30 7 C 1.295931 -0.231534 1.208522 0
M  V30 8 C 1.311079 1.117970 0.514945 0
M  V30 9 C 1.825283 1.206479 -0.736000 0
M  V30 10 C 1.782355 2.481054 -1.257637 0
M  V30 11 N 1.281444 3.533206 -0.594959 0
M  V30 12 C 0.772417 3.454067 0.639232 0
M  V30 13 N 0.268742 4.626565 1.248803 0
M  V30 14 C -0.308651 4.804333 2.518035 0
M  V30 15 O -0.423147 3.810114 3.273854 0
M  V30 16 C -0.802220 6.101027 3.042303 0
M  V30 17 C -0.706637 6.384503 4.524560 0
M  V30 18 C -2.037097 6.097330 3.905280 0
M  V30 19 C 0.798303 2.197334 1.192200 0
M  V30 20 N 1.597380 -1.278832 1.009392 0
M  V30 21 C 1.560155 -2.414122 1.649338 0
M  V30 22 O 1.871095 -3.724635 1.558771 0
M  V30 23 C 2.424399 -4.573505 0.663582 0
M  V30 24 C 1.663544 -4.698402 -0.621989 0
M  V30 25 C 0.242652 -5.186083 -0.353011 0
M  V30 26 C -0.438507 -5.206126 -1.701983 0
M  V30 27 N -0.596030 -3.891053 -2.248758 0
M  V30 28 C -1.946839 -3.416144 -2.264113 0
M  V30 29 C -2.063073 -2.064128 -2.841387 0
M  V30 30 C -2.257063 -2.024369 -4.216123 0
M  V30 31 C -2.392808 -0.870353 -4.955213 0
M  V30 32 C -2.330562 0.339419 -4.272140 0
M  V30 33 C -2.138667 0.324911 -2.907081 0
M  V30 34 Br -2.032936 1.902355 -1.841383 0
M  V30 35 C -2.005907 -0.849580 -2.193072 0
M  V30 36 C 0.326199 -2.904233 -1.719030 0
M  V30 37 C 1.703718 -3.519835 -1.523084 0
M  V30 38 H 0.664745 -3.467847 7.018495 0
M  V30 39 H -0.442016 -4.486134 5.921777 0
M  V30 40 H -1.070120 -3.072507 6.896388 0
M  V30 41 H -0.172651 -1.517578 5.286809 0
M  V30 42 H 2.198170 0.304666 -1.171412 0
M  V30 43 H 2.180758 2.606200 -2.254469 0
M  V30 44 H 0.308364 5.516619 0.720168 0
M  V30 45 H -0.711945 6.998895 2.391562 0
M  V30 46 H -0.477956 7.408893 4.885648 0
M  V30 47 H -0.276579 5.598807 5.190720 0
M  V30 48 H -2.780436 6.902998 3.767392 0
M  V30 49 H -2.543459 5.117689 4.136510 0
M  V30 50 H 0.415530 2.028451 2.174113 0
M  V30 51 H 3.514400 -4.382417 0.447265 0
M  V30 52 H 2.430297 -5.639651 1.083802 0
M  V30 53 H 2.126026 -5.577674 -1.185282 0
M  V30 54 H 0.260279 -6.221216 0.045509 0
M  V30 55 H -0.326713 -4.491985 0.292268 0
M  V30 56 H 0.186309 -5.797143 -2.428001 0
M  V30 57 H -1.438141 -5.675353 -1.661359 0
M  V30 58 H -2.395544 -3.356395 -1.244387 0
M  V30 59 H -2.566199 -4.144321 -2.833281 0
M  V30 60 H -2.317440 -2.932989 -4.826440 0
M  V30 61 H -2.542151 -0.861200 -6.017189 0
M  V30 62 H -2.426283 1.295262 -4.765715 0
M  V30 63 H -1.856025 -0.910279 -1.127380 0
M  V30 64 H -0.100252 -2.497901 -0.793533 0
M  V30 65 H 0.439525 -2.086026 -2.454354 0
M  V30 66 H 2.079390 -3.781385 -2.544583 0
M  V30 67 H 2.370984 -2.753009 -1.126878 0
M  V30 END ATOM
M  V30 BEGIN BOND
M  V30 1 1 1 2
M  V30 2 1 2 3
M  V30 3 2 3 4
M  V30 4 1 3 5
M  V30 5 1 5 6
M  V30 6 1 6 7
M  V30 7 1 7 8
M  V30 8 2 8 9
M  V30 9 1 9 10
M  V30 10 2 10 11
M  V30 11 1 11 12
M  V30 12 1 12 13
M  V30 13 1 13 14
M  V30 14 2 14 15
M  V30 15 1 14 16
M  V30 16 1 16 17
M  V30 17 1 17 18
M  V30 18 2 12 19
M  V30 19 2 7 20
M  V30 20 1 20 21
M  V30 21 1 21 22
M  V30 22 1 22 23
M  V30 23 1 23 24
M  V30 24 1 24 25
M  V30 25 1 25 26
M  V30 26 1 26 27
M  V30 27 1 27 28
M  V30 28 1 28 29
M  V30 29 2 29 30
M  V30 30 1 30 31
M  V30 31 2 31 32
M  V30 32 1 32 33
M  V30 33 1 33 34
M  V30 34 2 33 35
M  V30 35 1 27 36
M  V30 36 1 36 37
M  V30 37 2 21 5
M  V30 38 1 37 24
M  V30 39 1 19 8
M  V30 40 1 35 29
M  V30 41 1 18 16
M  V30 42 1 1 38
M  V30 43 1 1 39
M  V30 44 1 1 40
M  V30 45 1 2 41
M  V30 46 1 9 42
M  V30 47 1 10 43
M  V30 48 1 13 44
M  V30 49 1 16 45
M  V30 50 1 17 46
M  V30 51 1 17 47
M  V30 52 1 18 48
M  V30 53 1 18 49
M  V30 54 1 19 50
M  V30 55 1 23 51
M  V30 56 1 23 52
M  V30 57 1 24 53
M  V30 58 1 25 54
M  V30 59 1 25 55
M  V30 60 1 26 56
M  V30 61 1 26 57
M  V30 62 1 28 58
M  V30 63 1 28 59
M  V30 64 1 30 60
M  V30 65 1 31 61
M  V30 66 1 32 62
M  V30 67 1 35 63
M  V30 68 1 36 64
M  V30 69 1 36 65
M  V30 70 1 37 66
M  V30 71 1 37 67
M  V30 END BOND
M  V30 END CTAB
M  END
>  <Dataset>  (836) 
ChEMBL_Kinases

>  <Ligand_Instance>  (836) 
nan

>  <PDB_ID>  (836) 
nan

>  <Standardized_SMILES>  (836) 
CNC(=O)c1sc(-c2ccnc(NC(=O)C3CC3)c2)nc1OCC1CCN(Cc2cccc(Br)c2)CC1

>  <Name>  (836) 
nan

>  <Pocket>  (836) 
nan

>  <ATP_Site>  (836) 
nan

>  <Peripheral>  (836) 
nan

>  <Num_H_Atoms_ProtBoundConf>  (836) 
nan

>  <Num_Resolved_Atoms>  (836) 
nan

>  <Num_Not_Resolved_Atoms>  (836) 
nan

$$$$
CHEMBL4173598
     RDKit          3D

  0  0  0  0  0  0  0  0  0  0999 V3000
M  V30 BEGIN CTAB
M  V30 COUNTS 26 28 0 0 0
M  V30 BEGIN ATOM
M  V30 1 O 0.827533 -4.525475 4.601773 0
M  V30 2 C 1.399000 -3.503237 4.154643 0
M  V30 3 N 2.772298 -3.204259 3.986705 0
M  V30 4 C 3.129027 -2.151134 3.150990 0
M  V30 5 O 4.304569 -1.746475 2.886535 0
M  V30 6 C 2.008383 -1.477760 2.541514 0
M  V30 7 C 1.826796 -0.693940 1.523786 0
M  V30 8 C 0.637544 -0.057281 0.989377 0
M  V30 9 C 0.439069 -0.148122 -0.383227 0
M  V30 10 C -0.642736 0.425699 -1.026907 0
M  V30 11 C -0.829690 0.323517 -2.413597 0
M  V30 12 C -1.917826 0.898806 -3.052312 0
M  V30 13 C -2.750836 1.554275 -2.179410 0
M  V30 14 C -2.700286 1.736583 -0.831312 0
M  V30 15 C -1.583939 1.131669 -0.265877 0
M  V30 16 N -1.398996 1.226554 1.072628 0
M  V30 17 C -0.326366 0.650964 1.667026 0
M  V30 18 Cl -0.166059 0.862583 3.383441 0
M  V30 19 S 0.592656 -2.004080 3.550182 0
M  V30 20 H 3.516773 -3.774590 4.493673 0
M  V30 21 H 2.779513 -0.504704 0.998937 0
M  V30 22 H 1.103229 -0.669060 -1.057750 0
M  V30 23 H -0.093067 -0.228479 -3.001055 0
M  V30 24 H -2.090507 0.838587 -4.113928 0
M  V30 25 H -3.626474 2.021707 -2.669453 0
M  V30 26 H -3.433653 2.280725 -0.288237 0
M  V30 END ATOM
M  V30 BEGIN BOND
M  V30 1 2 1 2
M  V30 2 1 2 3
M  V30 3 1 3 4
M  V30 4 2 4 5
M  V30 5 1 4 6
M  V30 6 2 6 7
M  V30 7 1 7 8
M  V30 8 2 8 9
M  V30 9 1 9 10
M  V30 10 2 10 11
M  V30 11 1 11 12
M  V30 12 2 12 13
M  V30 13 1 13 14
M  V30 14 2 14 15
M  V30 15 1 15 16
M  V30 16 2 16 17
M  V30 17 1 17 18
M  V30 18 1 6 19
M  V30 19 1 19 2
M  V30 20 1 17 8
M  V30 21 1 15 10
M  V30 22 1 3 20
M  V30 23 1 7 21
M  V30 24 1 9 22
M  V30 25 1 11 23
M  V30 26 1 12 24
M  V30 27 1 13 25
M  V30 28 1 14 26
M  V30 END BOND
M  V30 END CTAB
M  END
>  <Dataset>  (837) 
ChEMBL_Kinases

>  <Ligand_Instance>  (837) 
nan

>  <PDB_ID>  (837) 
nan

>  <Standardized_SMILES>  (837) 
O=C1NC(=O)/C(=C/c2cc3ccccc3nc2Cl)S1

>  <Name>  (837) 
nan

>  <Pocket>  (837) 
nan

>  <ATP_Site>  (837) 
nan

>  <Peripheral>  (837) 
nan

>  <Num_H_Atoms_ProtBoundConf>  (837) 
nan

>  <Num_Resolved_Atoms>  (837) 
nan

>  <Num_Not_Resolved_Atoms>  (837) 
nan

$$$$
CHEMBL4173488
     RDKit          3D

  0  0  0  0  0  0  0  0  0  0999 V3000
M  V30 BEGIN CTAB
M  V30 COUNTS 58 63 0 0 0
M  V30 BEGIN ATOM
M  V30 1 C 3.442275 -1.063124 0.440587 0
M  V30 2 O 3.187918 0.351267 0.415591 0
M  V30 3 C 1.914896 0.786926 0.748585 0
M  V30 4 C 0.905081 -0.119283 1.095219 0
M  V30 5 C -0.372264 0.251681 1.433752 0
M  V30 6 C -0.691930 1.605641 1.435821 0
M  V30 7 C 0.304348 2.495397 1.094584 0
M  V30 8 C 1.575370 2.140372 0.756662 0
M  V30 9 C 2.600633 3.058349 0.387659 0
M  V30 10 C 2.989090 3.638686 -0.828587 0
M  V30 11 C 2.241743 3.345334 -2.105372 0
M  V30 12 N 4.048701 4.444677 -0.697675 0
M  V30 13 O 4.406080 4.437247 0.584979 0
M  V30 14 C 3.554516 3.622529 1.219458 0
M  V30 15 C 3.749616 3.444224 2.682316 0
M  V30 16 N -1.983061 1.670465 1.795963 0
M  V30 17 C -2.501147 0.442946 2.022081 0
M  V30 18 N -3.714397 0.003969 2.396922 0
M  V30 19 C -3.925981 -1.314604 2.545961 0
M  V30 20 C -5.311244 -1.719199 2.951210 0
M  V30 21 N -2.945077 -2.223134 2.328959 0
M  V30 22 C -1.691242 -1.836276 1.946359 0
M  V30 23 N -0.658438 -2.807973 1.731579 0
M  V30 24 C -0.638948 -3.531738 0.513941 0
M  V30 25 C -1.501866 -3.488264 -0.554038 0
M  V30 26 C -1.159014 -4.342606 -1.560400 0
M  V30 27 C -1.882705 -4.547427 -2.835498 0
M  V30 28 C -3.395702 -4.636302 -2.796924 0
M  V30 29 C -2.793779 -3.371499 -3.243018 0
M  V30 30 N -0.018780 -4.962128 -1.110443 0
M  V30 31 N 0.245765 -4.454883 0.106740 0
M  V30 32 C 1.416651 -4.940728 0.842596 0
M  V30 33 C -1.484723 -0.462381 1.794044 0
M  V30 34 H 2.816517 -1.501366 -0.360986 0
M  V30 35 H 4.523367 -1.242275 0.338491 0
M  V30 36 H 3.129770 -1.391321 1.465921 0
M  V30 37 H 1.139335 -1.163091 1.096744 0
M  V30 38 H 0.094601 3.541838 1.086427 0
M  V30 39 H 2.840842 2.824933 -2.848776 0
M  V30 40 H 2.020455 4.353367 -2.567687 0
M  V30 41 H 1.243364 2.925304 -1.898658 0
M  V30 42 H 4.821614 3.245390 2.928627 0
M  V30 43 H 3.030958 2.755594 3.129736 0
M  V30 44 H 3.569520 4.435959 3.147958 0
M  V30 45 H -2.472336 2.577887 1.870912 0
M  V30 46 H -5.355271 -2.743087 3.371115 0
M  V30 47 H -5.801451 -0.943201 3.533861 0
M  V30 48 H -5.860796 -1.807500 1.971234 0
M  V30 49 H 0.070419 -2.982761 2.454013 0
M  V30 50 H -2.380534 -2.826529 -0.592340 0
M  V30 51 H -1.412937 -5.140172 -3.635653 0
M  V30 52 H -3.883434 -5.246151 -3.600123 0
M  V30 53 H -3.808246 -4.808801 -1.783862 0
M  V30 54 H -2.836921 -3.091613 -4.295936 0
M  V30 55 H -2.809981 -2.492115 -2.561496 0
M  V30 56 H 2.317402 -4.950486 0.179759 0
M  V30 57 H 1.642312 -4.304949 1.717009 0
M  V30 58 H 1.193654 -5.980864 1.201361 0
M  V30 END ATOM
M  V30 BEGIN BOND
M  V30 1 1 1 2
M  V30 2 1 2 3
M  V30 3 2 3 4
M  V30 4 1 4 5
M  V30 5 2 5 6
M  V30 6 1 6 7
M  V30 7 2 7 8
M  V30 8 1 8 9
M  V30 9 1 9 10
M  V30 10 1 10 11
M  V30 11 2 10 12
M  V30 12 1 12 13
M  V30 13 1 13 14
M  V30 14 1 14 15
M  V30 15 1 6 16
M  V30 16 1 16 17
M  V30 17 2 17 18
M  V30 18 1 18 19
M  V30 19 1 19 20
M  V30 20 2 19 21
M  V30 21 1 21 22
M  V30 22 1 22 23
M  V30 23 1 23 24
M  V30 24 2 24 25
M  V30 25 1 25 26
M  V30 26 1 26 27
M  V30 27 1 27 28
M  V30 28 1 28 29
M  V30 29 2 26 30
M  V30 30 1 30 31
M  V30 31 1 31 32
M  V30 32 2 22 33
M  V30 33 1 8 3
M  V30 34 2 14 9
M  V30 35 1 33 17
M  V30 36 1 33 5
M  V30 37 1 31 24
M  V30 38 1 29 27
M  V30 39 1 1 34
M  V30 40 1 1 35
M  V30 41 1 1 36
M  V30 42 1 4 37
M  V30 43 1 7 38
M  V30 44 1 11 39
M  V30 45 1 11 40
M  V30 46 1 11 41
M  V30 47 1 15 42
M  V30 48 1 15 43
M  V30 49 1 15 44
M  V30 50 1 16 45
M  V30 51 1 20 46
M  V30 52 1 20 47
M  V30 53 1 20 48
M  V30 54 1 23 49
M  V30 55 1 25 50
M  V30 56 1 27 51
M  V30 57 1 28 52
M  V30 58 1 28 53
M  V30 59 1 29 54
M  V30 60 1 29 55
M  V30 61 1 32 56
M  V30 62 1 32 57
M  V30 63 1 32 58
M  V30 END BOND
M  V30 END CTAB
M  END
>  <Dataset>  (838) 
ChEMBL_Kinases

>  <Ligand_Instance>  (838) 
nan

>  <PDB_ID>  (838) 
nan

>  <Standardized_SMILES>  (838) 
COc1cc2c(cc1-c1c(C)noc1C)[nH]c1nc(C)nc(Nc3cc(C4CC4)nn3C)c12

>  <Name>  (838) 
nan

>  <Pocket>  (838) 
nan

>  <ATP_Site>  (838) 
nan

>  <Peripheral>  (838) 
nan

>  <Num_H_Atoms_ProtBoundConf>  (838) 
nan

>  <Num_Resolved_Atoms>  (838) 
nan

>  <Num_Not_Resolved_Atoms>  (838) 
nan

$$$$
CHEMBL4173438
     RDKit          3D

  0  0  0  0  0  0  0  0  0  0999 V3000
M  V30 BEGIN CTAB
M  V30 COUNTS 47 50 0 0 0
M  V30 BEGIN ATOM
M  V30 1 C 3.235488 -3.055304 8.161674 0
M  V30 2 N 3.587552 -2.317550 6.968638 0
M  V30 3 C 4.769021 -1.772978 6.697342 0
M  V30 4 C 4.728944 -1.141339 5.450096 0
M  V30 5 C 3.447833 -1.355353 5.016651 0
M  V30 6 C 2.768832 -0.987104 3.856006 0
M  V30 7 O 3.432974 -0.244686 2.860281 0
M  V30 8 C 2.740522 0.124112 1.689761 0
M  V30 9 C 2.053933 1.331273 1.656143 0
M  V30 10 C 1.364901 1.708458 0.505073 0
M  V30 11 C 1.398554 0.837846 -0.580044 0
M  V30 12 N 0.716026 1.138225 -1.818402 0
M  V30 13 C -0.613742 0.660129 -1.852573 0
M  V30 14 O -0.975801 0.061481 -0.813898 0
M  V30 15 N -1.509438 0.800763 -2.910570 0
M  V30 16 C -2.849929 0.364621 -3.047437 0
M  V30 17 C -3.570213 -0.325835 -2.100397 0
M  V30 18 C -4.875901 -0.738360 -2.261249 0
M  V30 19 C -5.528005 -0.453015 -3.441108 0
M  V30 20 Cl -7.184697 -0.965156 -3.670452 0
M  V30 21 C -4.824153 0.236382 -4.399421 0
M  V30 22 C -5.473632 0.572982 -5.691867 0
M  V30 23 F -5.888499 -0.544872 -6.388798 0
M  V30 24 F -4.651326 1.343933 -6.475050 0
M  V30 25 F -6.605296 1.331032 -5.438356 0
M  V30 26 C -3.522939 0.630026 -4.200033 0
M  V30 27 C 2.077145 -0.366959 -0.562493 0
M  V30 28 C 2.759021 -0.726424 0.595110 0
M  V30 29 N 1.479519 -1.335636 3.677130 0
M  V30 30 C 0.819209 -2.046015 4.613463 0
M  V30 31 N 1.428109 -2.432833 5.763644 0
M  V30 32 C 2.729562 -2.082861 5.947767 0
M  V30 33 H 3.451918 -2.410925 9.047559 0
M  V30 34 H 3.839203 -3.995967 8.220328 0
M  V30 35 H 2.174629 -3.314564 8.197842 0
M  V30 36 H 5.685513 -1.772592 7.302576 0
M  V30 37 H 5.492860 -0.603825 4.916352 0
M  V30 38 H 2.033750 2.001594 2.505391 0
M  V30 39 H 0.814317 2.640111 0.429386 0
M  V30 40 H 1.078115 1.653869 -2.671349 0
M  V30 41 H -1.065285 1.321584 -3.707046 0
M  V30 42 H -3.128259 -0.579894 -1.165003 0
M  V30 43 H -5.402040 -1.282013 -1.481518 0
M  V30 44 H -3.019998 1.170283 -4.991412 0
M  V30 45 H 2.093507 -1.033153 -1.415378 0
M  V30 46 H 3.312351 -1.662799 0.671075 0
M  V30 47 H -0.234069 -2.324963 4.456163 0
M  V30 END ATOM
M  V30 BEGIN BOND
M  V30 1 1 1 2
M  V30 2 1 2 3
M  V30 3 2 3 4
M  V30 4 1 4 5
M  V30 5 2 5 6
M  V30 6 1 6 7
M  V30 7 1 7 8
M  V30 8 2 8 9
M  V30 9 1 9 10
M  V30 10 2 10 11
M  V30 11 1 11 12
M  V30 12 1 12 13
M  V30 13 2 13 14
M  V30 14 1 13 15
M  V30 15 1 15 16
M  V30 16 2 16 17
M  V30 17 1 17 18
M  V30 18 2 18 19
M  V30 19 1 19 20
M  V30 20 1 19 21
M  V30 21 1 21 22
M  V30 22 1 22 23
M  V30 23 1 22 24
M  V30 24 1 22 25
M  V30 25 2 21 26
M  V30 26 1 11 27
M  V30 27 2 27 28
M  V30 28 1 6 29
M  V30 29 2 29 30
M  V30 30 1 30 31
M  V30 31 2 31 32
M  V30 32 1 32 2
M  V30 33 1 32 5
M  V30 34 1 28 8
M  V30 35 1 26 16
M  V30 36 1 1 33
M  V30 37 1 1 34
M  V30 38 1 1 35
M  V30 39 1 3 36
M  V30 40 1 4 37
M  V30 41 1 9 38
M  V30 42 1 10 39
M  V30 43 1 12 40
M  V30 44 1 15 41
M  V30 45 1 17 42
M  V30 46 1 18 43
M  V30 47 1 26 44
M  V30 48 1 27 45
M  V30 49 1 28 46
M  V30 50 1 30 47
M  V30 END BOND
M  V30 END CTAB
M  END
>  <Dataset>  (839) 
ChEMBL_Kinases

>  <Ligand_Instance>  (839) 
nan

>  <PDB_ID>  (839) 
nan

>  <Standardized_SMILES>  (839) 
Cn1ccc2c(Oc3ccc(NC(=O)Nc4ccc(Cl)c(C(F)(F)F)c4)cc3)ncnc21

>  <Name>  (839) 
nan

>  <Pocket>  (839) 
nan

>  <ATP_Site>  (839) 
nan

>  <Peripheral>  (839) 
nan

>  <Num_H_Atoms_ProtBoundConf>  (839) 
nan

>  <Num_Resolved_Atoms>  (839) 
nan

>  <Num_Not_Resolved_Atoms>  (839) 
nan

$$$$
CHEMBL4785567
     RDKit          3D

  0  0  0  0  0  0  0  0  0  0999 V3000
M  V30 BEGIN CTAB
M  V30 COUNTS 71 75 0 0 0
M  V30 BEGIN ATOM
M  V30 1 C 5.213819 -0.470384 5.476394 0
M  V30 2 O 4.974777 0.208123 4.250279 0
M  V30 3 C 5.717344 -0.156316 3.167201 0
M  V30 4 O 6.589578 -1.059597 3.226158 0
M  V30 5 C 5.494687 0.512978 1.924041 0
M  V30 6 S 6.462767 0.078119 0.401268 0
M  V30 7 C 5.622806 1.296537 -0.625553 0
M  V30 8 C 4.718942 1.918401 0.193679 0
M  V30 9 C 4.645349 1.524164 1.502174 0
M  V30 10 N 3.723507 2.143829 2.374524 0
M  V30 11 C 2.844267 3.187150 1.978108 0
M  V30 12 N 1.674445 2.824488 1.439489 0
M  V30 13 C 0.710481 3.639496 1.007056 0
M  V30 14 N -0.532119 3.269419 0.433243 0
M  V30 15 C -1.031462 1.971783 0.177791 0
M  V30 16 C -0.347644 0.809688 0.454553 0
M  V30 17 C -0.793523 -0.473887 0.221446 0
M  V30 18 C -2.042090 -0.636043 -0.342382 0
M  V30 19 N -2.645006 -1.900656 -0.649376 0
M  V30 20 C -3.960044 -2.184139 -1.155954 0
M  V30 21 C -3.937240 -2.942802 -2.467755 0
M  V30 22 C -3.118137 -4.203038 -2.371261 0
M  V30 23 N -3.548909 -5.117101 -1.378182 0
M  V30 24 C -2.673254 -6.274237 -1.412610 0
M  V30 25 C -3.490494 -7.330244 -0.697577 0
M  V30 26 C -4.873695 -7.071090 -1.201196 0
M  V30 27 C -4.889464 -5.563300 -1.406245 0
M  V30 28 C -1.733744 -3.710461 -1.918783 0
M  V30 29 C -1.995706 -3.187035 -0.499209 0
M  V30 30 C -2.763350 0.501028 -0.636569 0
M  V30 31 C -2.290895 1.771132 -0.392203 0
M  V30 32 O -3.027675 2.918159 -0.693403 0
M  V30 33 C -4.303589 2.768100 -1.270034 0
M  V30 34 N 0.988426 4.943205 1.147620 0
M  V30 35 C 2.113564 5.444466 1.667279 0
M  V30 36 C 3.061920 4.541510 2.091722 0
M  V30 37 C 4.354021 4.964718 2.692002 0
M  V30 38 F 4.365808 4.413521 3.971682 0
M  V30 39 F 5.389366 4.497961 1.941216 0
M  V30 40 F 4.387053 6.336081 2.859007 0
M  V30 41 H 6.096799 -0.025124 5.994335 0
M  V30 42 H 4.360274 -0.402641 6.160789 0
M  V30 43 H 5.495501 -1.549502 5.302362 0
M  V30 44 H 5.889956 1.398763 -1.664481 0
M  V30 45 H 4.141504 2.681132 -0.302677 0
M  V30 46 H 3.622650 1.879580 3.372244 0
M  V30 47 H -1.180282 4.060574 0.155159 0
M  V30 48 H 0.636587 0.839106 0.896144 0
M  V30 49 H -0.210065 -1.337149 0.461130 0
M  V30 50 H -4.565177 -1.282331 -1.347282 0
M  V30 51 H -4.565077 -2.764502 -0.400590 0
M  V30 52 H -4.950742 -3.085876 -2.827654 0
M  V30 53 H -3.417989 -2.279811 -3.191808 0
M  V30 54 H -2.996050 -4.618567 -3.369712 0
M  V30 55 H -1.711009 -6.090703 -0.900625 0
M  V30 56 H -2.561208 -6.526341 -2.487133 0
M  V30 57 H -3.114484 -8.338558 -0.913970 0
M  V30 58 H -3.395228 -7.075334 0.394185 0
M  V30 59 H -5.009025 -7.632921 -2.145886 0
M  V30 60 H -5.615851 -7.399813 -0.459055 0
M  V30 61 H -5.469246 -5.378507 -2.321253 0
M  V30 62 H -5.395165 -5.154911 -0.482764 0
M  V30 63 H -1.455673 -2.870427 -2.592996 0
M  V30 64 H -0.977880 -4.490403 -1.913650 0
M  V30 65 H -1.008062 -3.096500 0.008274 0
M  V30 66 H -2.631613 -3.949908 -0.002744 0
M  V30 67 H -3.750140 0.515841 -1.079548 0
M  V30 68 H -4.257814 2.139599 -2.205836 0
M  V30 69 H -4.956669 2.243316 -0.559172 0
M  V30 70 H -4.750225 3.751582 -1.542209 0
M  V30 71 H 2.283795 6.507183 1.756381 0
M  V30 END ATOM
M  V30 BEGIN BOND
M  V30 1 1 1 2
M  V30 2 1 2 3
M  V30 3 2 3 4
M  V30 4 1 3 5
M  V30 5 1 5 6
M  V30 6 1 6 7
M  V30 7 2 7 8
M  V30 8 1 8 9
M  V30 9 1 9 10
M  V30 10 1 10 11
M  V30 11 2 11 12
M  V30 12 1 12 13
M  V30 13 1 13 14
M  V30 14 1 14 15
M  V30 15 2 15 16
M  V30 16 1 16 17
M  V30 17 2 17 18
M  V30 18 1 18 19
M  V30 19 1 19 20
M  V30 20 1 20 21
M  V30 21 1 21 22
M  V30 22 1 22 23
M  V30 23 1 23 24
M  V30 24 1 24 25
M  V30 25 1 25 26
M  V30 26 1 26 27
M  V30 27 1 22 28
M  V30 28 1 28 29
M  V30 29 1 18 30
M  V30 30 2 30 31
M  V30 31 1 31 32
M  V30 32 1 32 33
M  V30 33 2 13 34
M  V30 34 1 34 35
M  V30 35 2 35 36
M  V30 36 1 36 37
M  V30 37 1 37 38
M  V30 38 1 37 39
M  V30 39 1 37 40
M  V30 40 2 9 5
M  V30 41 1 36 11
M  V30 42 1 31 15
M  V30 43 1 29 19
M  V30 44 1 27 23
M  V30 45 1 1 41
M  V30 46 1 1 42
M  V30 47 1 1 43
M  V30 48 1 7 44
M  V30 49 1 8 45
M  V30 50 1 10 46
M  V30 51 1 14 47
M  V30 52 1 16 48
M  V30 53 1 17 49
M  V30 54 1 20 50
M  V30 55 1 20 51
M  V30 56 1 21 52
M  V30 57 1 21 53
M  V30 58 1 22 54
M  V30 59 1 24 55
M  V30 60 1 24 56
M  V30 61 1 25 57
M  V30 62 1 25 58
M  V30 63 1 26 59
M  V30 64 1 26 60
M  V30 65 1 27 61
M  V30 66 1 27 62
M  V30 67 1 28 63
M  V30 68 1 28 64
M  V30 69 1 29 65
M  V30 70 1 29 66
M  V30 71 1 30 67
M  V30 72 1 33 68
M  V30 73 1 33 69
M  V30 74 1 33 70
M  V30 75 1 35 71
M  V30 END BOND
M  V30 END CTAB
M  END
>  <Dataset>  (840) 
ChEMBL_Kinases

>  <Ligand_Instance>  (840) 
nan

>  <PDB_ID>  (840) 
nan

>  <Standardized_SMILES>  (840) 
COC(=O)c1sccc1Nc1nc(Nc2ccc(N3CCC(N4CCCC4)CC3)cc2OC)ncc1C(F)(F)F

>  <Name>  (840) 
nan

>  <Pocket>  (840) 
nan

>  <ATP_Site>  (840) 
nan

>  <Peripheral>  (840) 
nan

>  <Num_H_Atoms_ProtBoundConf>  (840) 
nan

>  <Num_Resolved_Atoms>  (840) 
nan

>  <Num_Not_Resolved_Atoms>  (840) 
nan

$$$$
CHEMBL4173942
     RDKit          3D

  0  0  0  0  0  0  0  0  0  0999 V3000
M  V30 BEGIN CTAB
M  V30 COUNTS 57 61 0 0 0
M  V30 BEGIN ATOM
M  V30 1 C 4.617772 -1.865015 -0.018275 0
M  V30 2 C 4.091325 -0.551741 0.450878 0
M  V30 3 N 4.720476 0.539527 0.892534 0
M  V30 4 N 3.880235 1.504792 1.217363 0
M  V30 5 C 4.410732 2.721786 1.714826 0
M  V30 6 C 3.940931 3.334370 2.861974 0
M  V30 7 C 4.489571 4.511957 3.360940 0
M  V30 8 C 5.526491 5.054352 2.666763 0
M  V30 9 C 6.013157 4.472429 1.525866 0
M  V30 10 C 5.481037 3.285608 1.001469 0
M  V30 11 C 2.621727 1.119719 1.010089 0
M  V30 12 S 1.093225 2.049040 1.266969 0
M  V30 13 C -0.308742 0.974557 0.883110 0
M  V30 14 C -0.778583 0.307357 2.029447 0
M  V30 15 C -1.832618 -0.605953 1.883234 0
M  V30 16 C -2.426191 -0.872370 0.645155 0
M  V30 17 C -3.501635 -1.851144 0.574124 0
M  V30 18 N -4.094763 -2.367359 -0.529266 0
M  V30 19 C -5.014208 -3.283266 -0.225016 0
M  V30 20 C -5.895981 -4.115188 -0.879471 0
M  V30 21 C -6.752117 -4.991378 -0.237066 0
M  V30 22 N -7.651149 -5.858709 -0.897358 0 CHG=1 VAL=4
M  V30 23 O -7.929865 -6.060367 -2.086712 0
M  V30 24 O -8.448024 -6.715981 -0.136876 0 CHG=-1 VAL=1
M  V30 25 C -6.675832 -4.990282 1.125904 0
M  V30 26 C -5.822766 -4.192270 1.839833 0
M  V30 27 C -4.972076 -3.318541 1.148841 0
M  V30 28 N -4.066367 -2.461471 1.649232 0
M  V30 29 C -1.921171 -0.183477 -0.432191 0
M  V30 30 C -0.886790 0.724085 -0.337943 0
M  V30 31 C 2.756064 -0.185651 0.524083 0
M  V30 32 C 1.663269 -1.102437 0.125793 0
M  V30 33 N 1.594513 -1.152784 -1.140050 0
M  V30 34 N 0.705947 -1.893889 -1.908766 0
M  V30 35 C 0.933748 -1.565070 -3.295847 0
M  V30 36 N 0.223079 -2.120434 -4.396569 0
M  V30 37 O 1.823273 -0.720784 -3.658160 0
M  V30 38 H 3.784179 -2.506116 -0.409659 0
M  V30 39 H 5.460581 -1.765622 -0.736735 0
M  V30 40 H 5.032281 -2.392822 0.858928 0
M  V30 41 H 3.114454 2.826069 3.346178 0
M  V30 42 H 4.108668 4.964748 4.252300 0
M  V30 43 H 6.041171 5.980888 2.969493 0
M  V30 44 H 6.835342 4.844236 0.919521 0
M  V30 45 H 5.822978 2.790279 0.108493 0
M  V30 46 H -0.383407 0.444852 3.042091 0
M  V30 47 H -2.198927 -1.112679 2.772049 0
M  V30 48 H -5.913187 -4.076907 -1.965137 0
M  V30 49 H -7.320736 -5.653560 1.678514 0
M  V30 50 H -5.796129 -4.220292 2.909528 0
M  V30 51 H -3.853656 -2.304931 2.654611 0
M  V30 52 H -2.356900 -0.359732 -1.407765 0
M  V30 53 H -0.453883 1.279323 -1.136654 0
M  V30 54 H 0.899170 -1.751972 0.573758 0
M  V30 55 H -0.077858 -2.618458 -1.819574 0
M  V30 56 H -0.032704 -1.561039 -5.235149 0
M  V30 57 H -0.257118 -2.894037 -4.902563 0
M  V30 END ATOM
M  V30 BEGIN BOND
M  V30 1 1 1 2
M  V30 2 2 2 3
M  V30 3 1 3 4
M  V30 4 1 4 5
M  V30 5 2 5 6
M  V30 6 1 6 7
M  V30 7 2 7 8
M  V30 8 1 8 9
M  V30 9 2 9 10
M  V30 10 1 4 11
M  V30 11 1 11 12
M  V30 12 1 12 13
M  V30 13 2 13 14
M  V30 14 1 14 15
M  V30 15 2 15 16
M  V30 16 1 16 17
M  V30 17 2 17 18
M  V30 18 1 18 19
M  V30 19 2 19 20
M  V30 20 1 20 21
M  V30 21 1 21 22
M  V30 22 2 22 23
M  V30 23 1 22 24
M  V30 24 2 21 25
M  V30 25 1 25 26
M  V30 26 2 26 27
M  V30 27 1 27 28
M  V30 28 1 16 29
M  V30 29 2 29 30
M  V30 30 2 11 31
M  V30 31 1 31 32
M  V30 32 2 32 33
M  V30 33 1 33 34
M  V30 34 1 34 35
M  V30 35 1 35 36
M  V30 36 2 35 37
M  V30 37 1 31 2
M  V30 38 1 10 5
M  V30 39 1 30 13
M  V30 40 1 28 17
M  V30 41 1 27 19
M  V30 42 1 1 38
M  V30 43 1 1 39
M  V30 44 1 1 40
M  V30 45 1 6 41
M  V30 46 1 7 42
M  V30 47 1 8 43
M  V30 48 1 9 44
M  V30 49 1 10 45
M  V30 50 1 14 46
M  V30 51 1 15 47
M  V30 52 1 20 48
M  V30 53 1 25 49
M  V30 54 1 26 50
M  V30 55 1 28 51
M  V30 56 1 29 52
M  V30 57 1 30 53
M  V30 58 1 32 54
M  V30 59 1 34 55
M  V30 60 1 36 56
M  V30 61 1 36 57
M  V30 END BOND
M  V30 END CTAB
M  END
>  <Dataset>  (841) 
ChEMBL_Kinases

>  <Ligand_Instance>  (841) 
nan

>  <PDB_ID>  (841) 
nan

>  <Standardized_SMILES>  (841) 
Cc1nn(-c2ccccc2)c(Sc2ccc(-c3nc4cc([N+](=O)[O-])ccc4[nH]3)cc2)c1/C=N/NC(N)=O

>  <Name>  (841) 
nan

>  <Pocket>  (841) 
nan

>  <ATP_Site>  (841) 
nan

>  <Peripheral>  (841) 
nan

>  <Num_H_Atoms_ProtBoundConf>  (841) 
nan

>  <Num_Resolved_Atoms>  (841) 
nan

>  <Num_Not_Resolved_Atoms>  (841) 
nan

$$$$
CHEMBL4785004
     RDKit          3D

  0  0  0  0  0  0  0  0  0  0999 V3000
M  V30 BEGIN CTAB
M  V30 COUNTS 81 86 0 0 0
M  V30 BEGIN ATOM
M  V30 1 C 2.346203 -2.631240 5.951739 0
M  V30 2 N 2.448611 -1.583723 4.957913 0
M  V30 3 C 3.672260 -1.239059 4.354455 0
M  V30 4 O 4.756868 -1.817414 4.638221 0
M  V30 5 C 3.719676 -0.166837 3.350478 0
M  V30 6 S 2.228272 0.757870 2.840699 0
M  V30 7 C 3.191628 1.794515 1.653627 0
M  V30 8 C 2.519409 2.844536 0.825692 0
M  V30 9 C 3.230560 3.632634 -0.049666 0
M  V30 10 C 2.517094 4.565687 -0.779295 0
M  V30 11 N 1.178426 4.704697 -0.644993 0
M  V30 12 C 0.461851 3.951438 0.199030 0
M  V30 13 N -0.975009 4.060078 0.357019 0
M  V30 14 C -1.544650 3.101170 -0.575797 0
M  V30 15 O -0.438805 2.668074 -1.042593 0
M  V30 16 C -3.032938 3.105292 -0.520478 0
M  V30 17 N -3.694827 2.193772 -1.363574 0
M  V30 18 C -3.673043 0.810075 -1.070354 0
M  V30 19 C -2.380550 0.084274 -1.150545 0
M  V30 20 N -2.535382 -1.366739 -0.885808 0
M  V30 21 C -3.205678 -2.441561 -1.517367 0
M  V30 22 C -2.386657 -3.030259 -2.469290 0
M  V30 23 C -2.812885 -4.112349 -3.235213 0
M  V30 24 N -4.068136 -4.608029 -3.046572 0
M  V30 25 C -4.869517 -4.047200 -2.127742 0
M  V30 26 C -6.159826 -4.473958 -1.851315 0
M  V30 27 C -6.954757 -3.868230 -0.888775 0
M  V30 28 C -6.482046 -2.794013 -0.152636 0
M  V30 29 O -7.338132 -2.246120 0.789079 0
M  V30 30 C -6.881594 -1.135804 1.565210 0
M  V30 31 C -5.204849 -2.348218 -0.405475 0
M  V30 32 C -4.462342 -2.976548 -1.362112 0
M  V30 33 C -1.912080 -4.737984 -4.256383 0
M  V30 34 C -1.455718 -3.627826 -5.176581 0
M  V30 35 C -1.076256 -2.399679 -4.395838 0
M  V30 36 C -0.982402 -2.708965 -2.900947 0
M  V30 37 C 1.155698 3.015903 0.935401 0
M  V30 38 N 4.283258 1.379202 1.784328 0
M  V30 39 C 4.672526 0.411898 2.590880 0
M  V30 40 O 5.935195 -0.124828 2.792898 0
M  V30 41 C 7.093926 0.296102 2.130345 0
M  V30 42 C 8.315892 -0.479075 2.557161 0
M  V30 43 C 9.626629 -0.068317 1.866879 0
M  V30 44 C 9.410255 0.132075 3.319687 0
M  V30 45 H 3.027832 -3.476056 5.745046 0
M  V30 46 H 1.303667 -3.026439 5.953823 0
M  V30 47 H 2.525298 -2.204366 6.948119 0
M  V30 48 H 1.571887 -1.068918 4.684132 0
M  V30 49 H 4.272759 3.439384 -0.074925 0
M  V30 50 H 3.082325 5.180814 -1.465145 0
M  V30 51 H -1.403262 4.737534 1.044604 0
M  V30 52 H -3.355180 4.135628 -0.768865 0
M  V30 53 H -3.382294 2.930748 0.528994 0
M  V30 54 H -3.895836 2.476136 -2.329306 0
M  V30 55 H -4.371840 0.297096 -1.799158 0
M  V30 56 H -4.068767 0.652664 -0.031303 0
M  V30 57 H -1.644558 0.430629 -0.377802 0
M  V30 58 H -1.867167 0.169808 -2.126624 0
M  V30 59 H -2.092683 -1.855725 -0.058865 0
M  V30 60 H -6.522415 -5.326130 -2.442347 0
M  V30 61 H -7.954553 -4.320841 -0.786310 0
M  V30 62 H -7.537999 -0.974729 2.454448 0
M  V30 63 H -5.858709 -1.308853 1.946617 0
M  V30 64 H -6.921374 -0.249939 0.912604 0
M  V30 65 H -4.851798 -1.528689 0.171658 0
M  V30 66 H -2.478722 -5.485940 -4.852387 0
M  V30 67 H -1.016017 -5.215064 -3.791677 0
M  V30 68 H -0.548373 -3.921739 -5.750516 0
M  V30 69 H -2.305310 -3.380981 -5.834497 0
M  V30 70 H -1.914047 -1.671169 -4.474002 0
M  V30 71 H -0.125943 -1.941709 -4.737089 0
M  V30 72 H -0.355074 -3.605762 -2.733502 0
M  V30 73 H -0.587353 -1.849256 -2.339580 0
M  V30 74 H 0.554899 2.403659 1.625907 0
M  V30 75 H 6.999678 0.285967 1.015803 0
M  V30 76 H 7.272389 1.368481 2.432940 0
M  V30 77 H 8.141350 -1.577505 2.687939 0
M  V30 78 H 9.650739 0.837301 1.250450 0
M  V30 79 H 10.264046 -0.890634 1.504269 0
M  V30 80 H 10.022093 -0.525419 3.984708 0
M  V30 81 H 9.294640 1.157760 3.721622 0
M  V30 END ATOM
M  V30 BEGIN BOND
M  V30 1 1 1 2
M  V30 2 1 2 3
M  V30 3 2 3 4
M  V30 4 1 3 5
M  V30 5 1 5 6
M  V30 6 1 6 7
M  V30 7 1 7 8
M  V30 8 2 8 9
M  V30 9 1 9 10
M  V30 10 2 10 11
M  V30 11 1 11 12
M  V30 12 1 12 13
M  V30 13 1 13 14
M  V30 14 2 14 15
M  V30 15 1 14 16
M  V30 16 1 16 17
M  V30 17 1 17 18
M  V30 18 1 18 19
M  V30 19 1 19 20
M  V30 20 1 20 21
M  V30 21 2 21 22
M  V30 22 1 22 23
M  V30 23 2 23 24
M  V30 24 1 24 25
M  V30 25 2 25 26
M  V30 26 1 26 27
M  V30 27 2 27 28
M  V30 28 1 28 29
M  V30 29 1 29 30
M  V30 30 1 28 31
M  V30 31 2 31 32
M  V30 32 1 23 33
M  V30 33 1 33 34
M  V30 34 1 34 35
M  V30 35 1 35 36
M  V30 36 2 12 37
M  V30 37 2 7 38
M  V30 38 1 38 39
M  V30 39 1 39 40
M  V30 40 1 40 41
M  V30 41 1 41 42
M  V30 42 1 42 43
M  V30 43 1 43 44
M  V30 44 2 39 5
M  V30 45 1 44 42
M  V30 46 1 37 8
M  V30 47 1 32 21
M  V30 48 1 36 22
M  V30 49 1 32 25
M  V30 50 1 1 45
M  V30 51 1 1 46
M  V30 52 1 1 47
M  V30 53 1 2 48
M  V30 54 1 9 49
M  V30 55 1 10 50
M  V30 56 1 13 51
M  V30 57 1 16 52
M  V30 58 1 16 53
M  V30 59 1 17 54
M  V30 60 1 18 55
M  V30 61 1 18 56
M  V30 62 1 19 57
M  V30 63 1 19 58
M  V30 64 1 20 59
M  V30 65 1 26 60
M  V30 66 1 27 61
M  V30 67 1 30 62
M  V30 68 1 30 63
M  V30 69 1 30 64
M  V30 70 1 31 65
M  V30 71 1 33 66
M  V30 72 1 33 67
M  V30 73 1 34 68
M  V30 74 1 34 69
M  V30 75 1 35 70
M  V30 76 1 35 71
M  V30 77 1 36 72
M  V30 78 1 36 73
M  V30 79 1 37 74
M  V30 80 1 41 75
M  V30 81 1 41 76
M  V30 82 1 42 77
M  V30 83 1 43 78
M  V30 84 1 43 79
M  V30 85 1 44 80
M  V30 86 1 44 81
M  V30 END BOND
M  V30 END CTAB
M  END
>  <Dataset>  (842) 
ChEMBL_Kinases

>  <Ligand_Instance>  (842) 
nan

>  <PDB_ID>  (842) 
nan

>  <Standardized_SMILES>  (842) 
CNC(=O)c1sc(-c2ccnc(NC(=O)CNCCNc3c4c(nc5ccc(OC)cc35)CCCC4)c2)nc1OCC1CC1

>  <Name>  (842) 
nan

>  <Pocket>  (842) 
nan

>  <ATP_Site>  (842) 
nan

>  <Peripheral>  (842) 
nan

>  <Num_H_Atoms_ProtBoundConf>  (842) 
nan

>  <Num_Resolved_Atoms>  (842) 
nan

>  <Num_Not_Resolved_Atoms>  (842) 
nan

$$$$
CHEMBL4175894
     RDKit          3D

  0  0  0  0  0  0  0  0  0  0999 V3000
M  V30 BEGIN CTAB
M  V30 COUNTS 50 54 0 0 0
M  V30 BEGIN ATOM
M  V30 1 N -0.692124 -2.106290 0.750715 0
M  V30 2 C -0.107214 -3.120490 0.803182 0
M  V30 3 C 0.583603 -4.367238 0.872079 0
M  V30 4 C 1.947479 -4.282319 0.694844 0
M  V30 5 O 2.756301 -3.188926 0.461522 0
M  V30 6 C 2.374830 -1.878245 0.347137 0
M  V30 7 C 2.044613 -1.408545 -0.929494 0
M  V30 8 C 1.661389 -0.085605 -1.036748 0
M  V30 9 C 1.621569 0.700380 0.097938 0
M  V30 10 C 1.214679 2.098448 -0.027391 0
M  V30 11 N 1.112272 3.017517 0.941792 0
M  V30 12 C 0.704004 4.200197 0.427428 0
M  V30 13 C 0.469016 5.406644 1.058990 0
M  V30 14 C 0.055600 6.427778 0.226778 0
M  V30 15 C -0.213961 7.734768 0.815271 0
M  V30 16 N -0.091732 8.070328 2.184794 0
M  V30 17 O -0.589338 8.831009 0.358758 0
M  V30 18 C -0.132414 6.333287 -1.137813 0
M  V30 19 C 0.124221 5.089204 -1.697883 0
M  V30 20 C 0.540533 4.018965 -0.933866 0
M  V30 21 N 0.860856 2.732302 -1.163271 0
M  V30 22 C 1.952400 0.213042 1.347314 0
M  V30 23 C 2.343745 -1.105458 1.514222 0
M  V30 24 N 2.670942 -5.425481 0.746892 0
M  V30 25 C 2.057998 -6.611103 0.967597 0
M  V30 26 S 2.987620 -8.151981 1.043347 0
M  V30 27 N 0.714492 -6.718787 1.145137 0
M  V30 28 C -0.030310 -5.581614 1.096436 0
M  V30 29 C -1.473227 -5.597084 1.274748 0
M  V30 30 C -2.237410 -4.748631 2.045853 0
M  V30 31 C -3.607675 -4.888652 2.116055 0
M  V30 32 C -4.262521 -5.893268 1.408836 0
M  V30 33 C -3.497389 -6.749316 0.631606 0
M  V30 34 C -2.124906 -6.600595 0.567984 0
M  V30 35 H 2.102642 -2.090364 -1.763920 0
M  V30 36 H 1.404519 0.294954 -2.002990 0
M  V30 37 H 0.590902 5.569979 2.123713 0
M  V30 38 H -0.564529 7.836749 3.093690 0
M  V30 39 H -0.583630 7.818324 3.077983 0
M  V30 40 H -0.459581 7.182926 -1.723039 0
M  V30 41 H -0.002115 4.950738 -2.747124 0
M  V30 42 H 0.829373 2.304275 -2.119100 0
M  V30 43 H 1.920754 0.837221 2.248369 0
M  V30 44 H 2.619493 -1.571649 2.449584 0
M  V30 45 H 2.175490 -9.209168 0.629339 0
M  V30 46 H -1.680086 -3.987050 2.574041 0
M  V30 47 H -4.136709 -4.188887 2.738678 0
M  V30 48 H -5.332988 -5.909689 1.537114 0
M  V30 49 H -4.073942 -7.504226 0.111323 0
M  V30 50 H -1.646011 -7.339815 -0.079183 0
M  V30 END ATOM
M  V30 BEGIN BOND
M  V30 1 3 1 2
M  V30 2 1 2 3
M  V30 3 2 3 4
M  V30 4 1 4 5
M  V30 5 1 5 6
M  V30 6 2 6 7
M  V30 7 1 7 8
M  V30 8 2 8 9
M  V30 9 1 9 10
M  V30 10 2 10 11
M  V30 11 1 11 12
M  V30 12 2 12 13
M  V30 13 1 13 14
M  V30 14 1 14 15
M  V30 15 1 15 16
M  V30 16 2 15 17
M  V30 17 2 14 18
M  V30 18 1 18 19
M  V30 19 2 19 20
M  V30 20 1 20 21
M  V30 21 1 9 22
M  V30 22 2 22 23
M  V30 23 1 4 24
M  V30 24 2 24 25
M  V30 25 1 25 26
M  V30 26 1 25 27
M  V30 27 2 27 28
M  V30 28 1 28 29
M  V30 29 2 29 30
M  V30 30 1 30 31
M  V30 31 2 31 32
M  V30 32 1 32 33
M  V30 33 2 33 34
M  V30 34 1 28 3
M  V30 35 1 34 29
M  V30 36 1 23 6
M  V30 37 1 21 10
M  V30 38 1 20 12
M  V30 39 1 7 35
M  V30 40 1 8 36
M  V30 41 1 13 37
M  V30 42 1 16 38
M  V30 43 1 16 39
M  V30 44 1 18 40
M  V30 45 1 19 41
M  V30 46 1 21 42
M  V30 47 1 22 43
M  V30 48 1 23 44
M  V30 49 1 26 45
M  V30 50 1 30 46
M  V30 51 1 31 47
M  V30 52 1 32 48
M  V30 53 1 33 49
M  V30 54 1 34 50
M  V30 END BOND
M  V30 END CTAB
M  END
>  <Dataset>  (843) 
ChEMBL_Kinases

>  <Ligand_Instance>  (843) 
nan

>  <PDB_ID>  (843) 
nan

>  <Standardized_SMILES>  (843) 
N#Cc1c(Oc2ccc(-c3nc4cc(C(N)=O)ccc4[nH]3)cc2)nc(S)nc1-c1ccccc1

>  <Name>  (843) 
nan

>  <Pocket>  (843) 
nan

>  <ATP_Site>  (843) 
nan

>  <Peripheral>  (843) 
nan

>  <Num_H_Atoms_ProtBoundConf>  (843) 
nan

>  <Num_Resolved_Atoms>  (843) 
nan

>  <Num_Not_Resolved_Atoms>  (843) 
nan

$$$$
CHEMBL4175850
     RDKit          3D

  0  0  0  0  0  0  0  0  0  0999 V3000
M  V30 BEGIN CTAB
M  V30 COUNTS 59 63 0 0 0
M  V30 BEGIN ATOM
M  V30 1 C 4.592163 -2.106508 3.356453 0
M  V30 2 C 4.236485 -0.704837 3.047582 0
M  V30 3 N 4.731725 0.528042 3.223117 0
M  V30 4 N 3.933029 1.445463 2.709850 0
M  V30 5 C 4.308011 2.833423 2.805662 0
M  V30 6 C 3.619394 3.789410 3.490252 0
M  V30 7 C 4.056978 5.106858 3.526263 0
M  V30 8 C 5.221014 5.493158 2.859142 0
M  V30 9 C 5.941708 4.529859 2.151893 0
M  V30 10 C 5.454272 3.240450 2.155301 0
M  V30 11 C 2.862230 0.834780 2.167629 0
M  V30 12 S 1.630004 1.857434 1.409181 0
M  V30 13 C 0.276692 0.915230 0.736895 0
M  V30 14 C -0.749788 0.704384 1.636879 0
M  V30 15 C -1.874339 -0.021384 1.232907 0
M  V30 16 C -1.940529 -0.514135 -0.055024 0
M  V30 17 C -3.122623 -1.269722 -0.463762 0
M  V30 18 N -3.376790 -1.828057 -1.660207 0
M  V30 19 C -4.591371 -2.444954 -1.636666 0
M  V30 20 C -5.268108 -3.142495 -2.616401 0
M  V30 21 C -6.489771 -3.629210 -2.220264 0
M  V30 22 C -7.300831 -4.384565 -3.165555 0
M  V30 23 N -6.862638 -4.634663 -4.484608 0
M  V30 24 O -8.422896 -4.899490 -3.000047 0
M  V30 25 C -7.055723 -3.475054 -0.973042 0
M  V30 26 C -6.297641 -2.754588 -0.046438 0
M  V30 27 C -5.041610 -2.218550 -0.353725 0
M  V30 28 N -4.155853 -1.506486 0.363035 0
M  V30 29 C -0.891129 -0.279129 -0.920754 0
M  V30 30 C 0.234114 0.433133 -0.555593 0
M  V30 31 C 3.032319 -0.526269 2.369193 0
M  V30 32 C 2.012143 -1.448725 1.878678 0
M  V30 33 N 2.322852 -1.786110 0.693582 0
M  V30 34 N 1.557507 -2.678277 -0.105752 0
M  V30 35 C 2.550349 -3.210194 -1.007701 0
M  V30 36 N 2.616388 -4.145224 -2.100327 0
M  V30 37 O 3.801154 -2.990676 -1.122777 0
M  V30 38 H 4.511343 -2.774606 2.453479 0
M  V30 39 H 5.635236 -2.240840 3.701283 0
M  V30 40 H 3.850955 -2.546374 4.085353 0
M  V30 41 H 2.716923 3.479090 4.005293 0
M  V30 42 H 3.475626 5.845722 4.087888 0
M  V30 43 H 5.576423 6.509506 2.874114 0
M  V30 44 H 6.840871 4.805306 1.631084 0
M  V30 45 H 6.058022 2.526461 1.585512 0
M  V30 46 H -0.764714 1.061043 2.660052 0
M  V30 47 H -2.685579 -0.186477 1.948757 0
M  V30 48 H -4.878919 -3.291865 -3.595490 0
M  V30 49 H -6.688507 -3.731373 -4.985917 0
M  V30 50 H -6.746328 -5.598016 -4.852712 0
M  V30 51 H -8.022054 -3.877129 -0.707628 0
M  V30 52 H -6.682561 -2.590554 0.966851 0
M  V30 53 H -4.329511 -1.241946 1.355321 0
M  V30 54 H -0.915543 -0.655136 -1.940326 0
M  V30 55 H 1.077856 0.638054 -1.206558 0
M  V30 56 H 1.096900 -1.907460 2.234740 0
M  V30 57 H 0.695738 -3.194485 -0.446857 0
M  V30 58 H 2.488342 -3.974348 -3.116093 0
M  V30 59 H 2.809462 -5.181828 -2.053449 0
M  V30 END ATOM
M  V30 BEGIN BOND
M  V30 1 1 1 2
M  V30 2 2 2 3
M  V30 3 1 3 4
M  V30 4 1 4 5
M  V30 5 2 5 6
M  V30 6 1 6 7
M  V30 7 2 7 8
M  V30 8 1 8 9
M  V30 9 2 9 10
M  V30 10 1 4 11
M  V30 11 1 11 12
M  V30 12 1 12 13
M  V30 13 2 13 14
M  V30 14 1 14 15
M  V30 15 2 15 16
M  V30 16 1 16 17
M  V30 17 2 17 18
M  V30 18 1 18 19
M  V30 19 2 19 20
M  V30 20 1 20 21
M  V30 21 1 21 22
M  V30 22 1 22 23
M  V30 23 2 22 24
M  V30 24 2 21 25
M  V30 25 1 25 26
M  V30 26 2 26 27
M  V30 27 1 27 28
M  V30 28 1 16 29
M  V30 29 2 29 30
M  V30 30 2 11 31
M  V30 31 1 31 32
M  V30 32 2 32 33
M  V30 33 1 33 34
M  V30 34 1 34 35
M  V30 35 1 35 36
M  V30 36 2 35 37
M  V30 37 1 31 2
M  V30 38 1 10 5
M  V30 39 1 30 13
M  V30 40 1 28 17
M  V30 41 1 27 19
M  V30 42 1 1 38
M  V30 43 1 1 39
M  V30 44 1 1 40
M  V30 45 1 6 41
M  V30 46 1 7 42
M  V30 47 1 8 43
M  V30 48 1 9 44
M  V30 49 1 10 45
M  V30 50 1 14 46
M  V30 51 1 15 47
M  V30 52 1 20 48
M  V30 53 1 23 49
M  V30 54 1 23 50
M  V30 55 1 25 51
M  V30 56 1 26 52
M  V30 57 1 28 53
M  V30 58 1 29 54
M  V30 59 1 30 55
M  V30 60 1 32 56
M  V30 61 1 34 57
M  V30 62 1 36 58
M  V30 63 1 36 59
M  V30 END BOND
M  V30 END CTAB
M  END
>  <Dataset>  (844) 
ChEMBL_Kinases

>  <Ligand_Instance>  (844) 
nan

>  <PDB_ID>  (844) 
nan

>  <Standardized_SMILES>  (844) 
Cc1nn(-c2ccccc2)c(Sc2ccc(-c3nc4cc(C(N)=O)ccc4[nH]3)cc2)c1/C=N/NC(N)=O

>  <Name>  (844) 
nan

>  <Pocket>  (844) 
nan

>  <ATP_Site>  (844) 
nan

>  <Peripheral>  (844) 
nan

>  <Num_H_Atoms_ProtBoundConf>  (844) 
nan

>  <Num_Resolved_Atoms>  (844) 
nan

>  <Num_Not_Resolved_Atoms>  (844) 
nan

$$$$
CHEMBL4175809
     RDKit          3D

  0  0  0  0  0  0  0  0  0  0999 V3000
M  V30 BEGIN CTAB
M  V30 COUNTS 26 27 0 0 0
M  V30 BEGIN ATOM
M  V30 1 C -2.754593 -3.514538 3.425989 0
M  V30 2 O -2.615024 -2.889553 2.166889 0
M  V30 3 C -1.506761 -2.147722 1.792808 0
M  V30 4 C -0.385958 -1.896998 2.553826 0
M  V30 5 C 0.649495 -1.136534 2.051988 0
M  V30 6 C 0.633292 -0.582140 0.768228 0
M  V30 7 C 1.826060 0.178396 0.431671 0
M  V30 8 C 1.824588 1.327510 -0.224964 0
M  V30 9 S 0.484829 2.336008 -0.911270 0
M  V30 10 C 1.537041 2.976572 -2.242159 0
M  V30 11 O 1.291843 3.364872 -3.436431 0
M  V30 12 N 2.829397 2.967495 -1.651183 0
M  V30 13 C 3.013393 2.094272 -0.568874 0
M  V30 14 O 4.123553 1.978395 0.061830 0
M  V30 15 C -0.496686 -0.845608 0.024925 0
M  V30 16 O -0.480451 -0.283291 -1.241831 0
M  V30 17 C -1.530889 -1.602408 0.520817 0
M  V30 18 H -2.159135 -3.048961 4.227066 0
M  V30 19 H -3.855345 -3.493272 3.659847 0
M  V30 20 H -2.457635 -4.579782 3.272086 0
M  V30 21 H -0.375777 -2.328379 3.544431 0
M  V30 22 H 1.485342 -0.999610 2.736131 0
M  V30 23 H 2.802777 -0.222335 0.739569 0
M  V30 24 H 3.598789 3.602894 -2.033044 0
M  V30 25 H -1.361386 -0.284003 -1.744576 0
M  V30 26 H -2.344801 -1.708209 -0.205626 0
M  V30 END ATOM
M  V30 BEGIN BOND
M  V30 1 1 1 2
M  V30 2 1 2 3
M  V30 3 2 3 4
M  V30 4 1 4 5
M  V30 5 2 5 6
M  V30 6 1 6 7
M  V30 7 2 7 8
M  V30 8 1 8 9
M  V30 9 1 9 10
M  V30 10 2 10 11
M  V30 11 1 10 12
M  V30 12 1 12 13
M  V30 13 2 13 14
M  V30 14 1 6 15
M  V30 15 1 15 16
M  V30 16 2 15 17
M  V30 17 1 17 3
M  V30 18 1 13 8
M  V30 19 1 1 18
M  V30 20 1 1 19
M  V30 21 1 1 20
M  V30 22 1 4 21
M  V30 23 1 5 22
M  V30 24 1 7 23
M  V30 25 1 12 24
M  V30 26 1 16 25
M  V30 27 1 17 26
M  V30 END BOND
M  V30 END CTAB
M  END
>  <Dataset>  (845) 
ChEMBL_Kinases

>  <Ligand_Instance>  (845) 
nan

>  <PDB_ID>  (845) 
nan

>  <Standardized_SMILES>  (845) 
COc1ccc(/C=C2\SC(=O)NC2=O)c(O)c1

>  <Name>  (845) 
nan

>  <Pocket>  (845) 
nan

>  <ATP_Site>  (845) 
nan

>  <Peripheral>  (845) 
nan

>  <Num_H_Atoms_ProtBoundConf>  (845) 
nan

>  <Num_Resolved_Atoms>  (845) 
nan

>  <Num_Not_Resolved_Atoms>  (845) 
nan

$$$$
CHEMBL4175786
     RDKit          3D

  0  0  0  0  0  0  0  0  0  0999 V3000
M  V30 BEGIN CTAB
M  V30 COUNTS 36 38 0 0 0
M  V30 BEGIN ATOM
M  V30 1 C -0.381800 -2.280575 4.185198 0
M  V30 2 C -0.516010 -3.581374 3.401394 0
M  V30 3 C -0.348359 -3.245699 1.915600 0
M  V30 4 N 0.960132 -2.655607 1.697970 0
M  V30 5 C 1.155419 -2.327416 0.313807 0
M  V30 6 C 1.697457 -3.151755 -0.658497 0
M  V30 7 C 1.809070 -2.665447 -1.945246 0
M  V30 8 C 1.384634 -1.377898 -2.247208 0
M  V30 9 N 1.378113 -0.670762 -3.390456 0
M  V30 10 C 0.851314 0.550988 -3.142176 0
M  V30 11 C 0.543648 0.542343 -1.800917 0
M  V30 12 C -0.060935 1.648769 -1.026819 0
M  V30 13 C -1.143259 2.429856 -1.427863 0
M  V30 14 C -1.581297 3.425141 -0.578598 0
M  V30 15 C -0.998878 3.674047 0.634008 0
M  V30 16 C 0.064605 2.910441 1.033821 0
M  V30 17 O 0.680941 3.141607 2.268907 0
M  V30 18 C 0.531885 1.902260 0.207623 0
M  V30 19 N 0.869164 -0.650446 -1.229013 0
M  V30 20 N 0.746730 -1.082621 0.014789 0
M  V30 21 H -0.431014 -2.515625 5.266507 0
M  V30 22 H -1.221298 -1.600031 3.888605 0
M  V30 23 H 0.600129 -1.833462 3.892475 0
M  V30 24 H 0.324906 -4.236913 3.702585 0
M  V30 25 H -1.510979 -4.026562 3.554497 0
M  V30 26 H -1.167040 -2.587331 1.578156 0
M  V30 27 H -0.404930 -4.218637 1.362890 0
M  V30 28 H 1.792695 -2.406171 2.268528 0
M  V30 29 H 1.994435 -4.130620 -0.317534 0
M  V30 30 H 2.237700 -3.329402 -2.694183 0
M  V30 31 H 0.695692 1.373263 -3.832871 0
M  V30 32 H -1.555959 2.177868 -2.399452 0
M  V30 33 H -2.426353 4.006547 -0.934036 0
M  V30 34 H -1.374160 4.471448 1.279327 0
M  V30 35 H 1.646174 2.856377 2.374964 0
M  V30 36 H 1.371095 1.336526 0.578203 0
M  V30 END ATOM
M  V30 BEGIN BOND
M  V30 1 1 1 2
M  V30 2 1 2 3
M  V30 3 1 3 4
M  V30 4 1 4 5
M  V30 5 1 5 6
M  V30 6 2 6 7
M  V30 7 1 7 8
M  V30 8 2 8 9
M  V30 9 1 9 10
M  V30 10 2 10 11
M  V30 11 1 11 12
M  V30 12 2 12 13
M  V30 13 1 13 14
M  V30 14 2 14 15
M  V30 15 1 15 16
M  V30 16 1 16 17
M  V30 17 2 16 18
M  V30 18 1 11 19
M  V30 19 1 19 20
M  V30 20 2 20 5
M  V30 21 1 19 8
M  V30 22 1 18 12
M  V30 23 1 1 21
M  V30 24 1 1 22
M  V30 25 1 1 23
M  V30 26 1 2 24
M  V30 27 1 2 25
M  V30 28 1 3 26
M  V30 29 1 3 27
M  V30 30 1 4 28
M  V30 31 1 6 29
M  V30 32 1 7 30
M  V30 33 1 10 31
M  V30 34 1 13 32
M  V30 35 1 14 33
M  V30 36 1 15 34
M  V30 37 1 17 35
M  V30 38 1 18 36
M  V30 END BOND
M  V30 END CTAB
M  END
>  <Dataset>  (846) 
ChEMBL_Kinases

>  <Ligand_Instance>  (846) 
nan

>  <PDB_ID>  (846) 
nan

>  <Standardized_SMILES>  (846) 
CCCNc1ccc2ncc(-c3cccc(O)c3)n2n1

>  <Name>  (846) 
nan

>  <Pocket>  (846) 
nan

>  <ATP_Site>  (846) 
nan

>  <Peripheral>  (846) 
nan

>  <Num_H_Atoms_ProtBoundConf>  (846) 
nan

>  <Num_Resolved_Atoms>  (846) 
nan

>  <Num_Not_Resolved_Atoms>  (846) 
nan

$$$$
CHEMBL4785015
     RDKit          3D

  0  0  0  0  0  0  0  0  0  0999 V3000
M  V30 BEGIN CTAB
M  V30 COUNTS 52 55 0 0 0
M  V30 BEGIN ATOM
M  V30 1 C 2.712616 -2.480823 3.552670 0
M  V30 2 C 2.952747 -2.214260 2.088159 0
M  V30 3 C 4.080400 -1.203520 1.898456 0
M  V30 4 S 4.356483 -0.900086 0.171177 0
M  V30 5 O 4.818149 -2.152588 -0.506787 0
M  V30 6 O 5.459905 0.104787 0.033227 0
M  V30 7 N 2.956842 -0.268201 -0.606041 0
M  V30 8 C 2.367178 0.969684 -0.242460 0
M  V30 9 C 3.008732 1.851743 0.595210 0
M  V30 10 C 2.444490 3.057455 0.950214 0
M  V30 11 C 1.182810 3.393105 0.443715 0
M  V30 12 F 0.719176 4.598163 0.854402 0
M  V30 13 C 0.492238 2.548834 -0.398997 0
M  V30 14 C -0.769226 2.989957 -0.891756 0
M  V30 15 O -0.844036 4.276485 -0.896389 0
M  V30 16 C -1.989729 2.420560 -1.388697 0
M  V30 17 N -2.820490 3.065256 -2.224482 0
M  V30 18 N -3.876030 2.312848 -2.484271 0
M  V30 19 C -3.828279 1.129546 -1.849316 0
M  V30 20 N -4.631487 0.055849 -1.772278 0
M  V30 21 C -4.329865 -1.020530 -1.015404 0
M  V30 22 C -3.138430 -0.955616 -0.317441 0
M  V30 23 C -2.837646 -2.137444 0.495510 0
M  V30 24 C -3.815512 -2.905389 1.091209 0
M  V30 25 C -3.437581 -4.004263 1.838354 0
M  V30 26 C -2.086060 -4.263203 1.939929 0
M  V30 27 N -1.669109 -5.388763 2.702680 0
M  V30 28 C -1.077419 -3.519168 1.359347 0
M  V30 29 C -1.479223 -2.411407 0.607204 0
M  V30 30 C -2.297692 0.133645 -0.380371 0
M  V30 31 C -2.631604 1.219188 -1.164210 0
M  V30 32 C 1.122954 1.344897 -0.718446 0
M  V30 33 F 0.557529 0.479824 -1.560596 0
M  V30 34 H 2.205152 -3.469062 3.677085 0
M  V30 35 H 3.724716 -2.608717 4.025236 0
M  V30 36 H 2.173954 -1.652287 4.052718 0
M  V30 37 H 2.024433 -1.839849 1.648699 0
M  V30 38 H 3.182112 -3.175515 1.581988 0
M  V30 39 H 4.981461 -1.612139 2.387418 0
M  V30 40 H 3.754886 -0.277035 2.394154 0
M  V30 41 H 2.521959 -0.816941 -1.377408 0
M  V30 42 H 3.980613 1.634132 1.003249 0
M  V30 43 H 2.985288 3.726906 1.614087 0
M  V30 44 H -4.629215 2.654787 -3.120241 0
M  V30 45 H -5.012992 -1.864912 -0.988252 0
M  V30 46 H -4.856344 -2.611666 0.947465 0
M  V30 47 H -4.189527 -4.614582 2.309356 0
M  V30 48 H -1.314793 -5.754705 3.602298 0
M  V30 49 H -1.701967 -6.306431 2.213497 0
M  V30 50 H -0.040977 -3.788062 1.487063 0
M  V30 51 H -0.714093 -1.805097 0.137882 0
M  V30 52 H -1.383155 0.158068 0.183873 0
M  V30 END ATOM
M  V30 BEGIN BOND
M  V30 1 1 1 2
M  V30 2 1 2 3
M  V30 3 1 3 4
M  V30 4 2 4 5
M  V30 5 2 4 6
M  V30 6 1 4 7
M  V30 7 1 7 8
M  V30 8 2 8 9
M  V30 9 1 9 10
M  V30 10 2 10 11
M  V30 11 1 11 12
M  V30 12 1 11 13
M  V30 13 1 13 14
M  V30 14 2 14 15
M  V30 15 1 14 16
M  V30 16 2 16 17
M  V30 17 1 17 18
M  V30 18 1 18 19
M  V30 19 2 19 20
M  V30 20 1 20 21
M  V30 21 2 21 22
M  V30 22 1 22 23
M  V30 23 2 23 24
M  V30 24 1 24 25
M  V30 25 2 25 26
M  V30 26 1 26 27
M  V30 27 1 26 28
M  V30 28 2 28 29
M  V30 29 1 22 30
M  V30 30 2 30 31
M  V30 31 2 13 32
M  V30 32 1 32 33
M  V30 33 1 32 8
M  V30 34 1 31 16
M  V30 35 1 31 19
M  V30 36 1 29 23
M  V30 37 1 1 34
M  V30 38 1 1 35
M  V30 39 1 1 36
M  V30 40 1 2 37
M  V30 41 1 2 38
M  V30 42 1 3 39
M  V30 43 1 3 40
M  V30 44 1 7 41
M  V30 45 1 9 42
M  V30 46 1 10 43
M  V30 47 1 18 44
M  V30 48 1 21 45
M  V30 49 1 24 46
M  V30 50 1 25 47
M  V30 51 1 27 48
M  V30 52 1 27 49
M  V30 53 1 28 50
M  V30 54 1 29 51
M  V30 55 1 30 52
M  V30 END BOND
M  V30 END CTAB
M  END
>  <Dataset>  (847) 
ChEMBL_Kinases

>  <Ligand_Instance>  (847) 
nan

>  <PDB_ID>  (847) 
nan

>  <Standardized_SMILES>  (847) 
CCCS(=O)(=O)Nc1ccc(F)c(C(=O)c2n[nH]c3ncc(-c4ccc(N)cc4)cc23)c1F

>  <Name>  (847) 
nan

>  <Pocket>  (847) 
nan

>  <ATP_Site>  (847) 
nan

>  <Peripheral>  (847) 
nan

>  <Num_H_Atoms_ProtBoundConf>  (847) 
nan

>  <Num_Resolved_Atoms>  (847) 
nan

>  <Num_Not_Resolved_Atoms>  (847) 
nan

$$$$
CHEMBL478510
     RDKit          3D

  0  0  0  0  0  0  0  0  0  0999 V3000
M  V30 BEGIN CTAB
M  V30 COUNTS 53 56 0 0 0
M  V30 BEGIN ATOM
M  V30 1 C 1.243552 -5.509229 0.498732 0
M  V30 2 C 2.519437 -4.696839 0.702420 0
M  V30 3 C 2.183879 -3.230418 0.768430 0
M  V30 4 C 2.130603 -2.364727 -0.300555 0
M  V30 5 C 1.807449 -1.038816 -0.093106 0
M  V30 6 C 1.530883 -0.514847 1.126711 0
M  V30 7 C 1.179483 0.869890 1.437882 0
M  V30 8 C 2.332180 1.803364 1.185060 0
M  V30 9 C 3.575561 1.512089 1.902152 0
M  V30 10 C 4.828927 2.324085 1.779659 0
M  V30 11 O 3.790032 0.553320 2.721120 0
M  V30 12 C 2.072932 2.782831 0.334614 0
M  V30 13 O 2.952480 3.773035 -0.072796 0
M  V30 14 C 0.674412 2.613068 -0.086611 0
M  V30 15 O 0.150253 3.411381 -0.905936 0
M  V30 16 N 0.157076 1.453000 0.599897 0
M  V30 17 C -1.223847 1.121343 0.346523 0
M  V30 18 C -1.456389 0.201796 -0.806104 0
M  V30 19 C -2.925671 -0.017054 -0.909914 0
M  V30 20 C -3.869468 0.508522 -1.790276 0
M  V30 21 N -5.060195 0.002434 -1.464321 0
M  V30 22 C -4.990025 -0.840610 -0.411224 0
M  V30 23 C -5.905455 -1.601700 0.295010 0
M  V30 24 C -5.517335 -2.389478 1.357579 0
M  V30 25 C -4.181633 -2.419534 1.725898 0
M  V30 26 C -3.288076 -1.643291 0.995803 0
M  V30 27 C -3.658161 -0.848495 -0.070678 0
M  V30 28 C 1.598245 -1.433648 2.178810 0
M  V30 29 C 1.911877 -2.770306 2.061535 0
M  V30 30 H 1.270093 -6.464461 1.078781 0
M  V30 31 H 1.018377 -5.665576 -0.577741 0
M  V30 32 H 0.412675 -4.852493 0.890761 0
M  V30 33 H 3.064346 -5.012381 1.612585 0
M  V30 34 H 3.180742 -4.903856 -0.163464 0
M  V30 35 H 2.351594 -2.789559 -1.267977 0
M  V30 36 H 1.768702 -0.364014 -0.945928 0
M  V30 37 H 0.876214 0.983138 2.487056 0
M  V30 38 H 4.879755 3.070371 2.620524 0
M  V30 39 H 5.743477 1.696579 1.820068 0
M  V30 40 H 4.882521 2.906245 0.848664 0
M  V30 41 H 2.693012 4.752829 -0.020599 0
M  V30 42 H -1.883030 2.008176 0.226962 0
M  V30 43 H -1.554700 0.550983 1.265519 0
M  V30 44 H -1.085725 0.609171 -1.767040 0
M  V30 45 H -1.008393 -0.793293 -0.552146 0
M  V30 46 H -3.607683 1.201361 -2.576520 0
M  V30 47 H -5.967992 0.224666 -1.962929 0
M  V30 48 H -6.953452 -1.556265 -0.019744 0
M  V30 49 H -6.221208 -2.989532 1.918276 0
M  V30 50 H -3.881743 -3.039173 2.560085 0
M  V30 51 H -2.275877 -1.728967 1.350724 0
M  V30 52 H 1.384835 -1.072934 3.191499 0
M  V30 53 H 1.936519 -3.396162 2.943872 0
M  V30 END ATOM
M  V30 BEGIN BOND
M  V30 1 1 1 2
M  V30 2 1 2 3
M  V30 3 2 3 4
M  V30 4 1 4 5
M  V30 5 2 5 6
M  V30 6 1 6 7
M  V30 7 1 7 8
M  V30 8 1 8 9
M  V30 9 1 9 10
M  V30 10 2 9 11
M  V30 11 2 8 12
M  V30 12 1 12 13
M  V30 13 1 12 14
M  V30 14 2 14 15
M  V30 15 1 14 16
M  V30 16 1 16 17
M  V30 17 1 17 18
M  V30 18 1 18 19
M  V30 19 2 19 20
M  V30 20 1 20 21
M  V30 21 1 21 22
M  V30 22 2 22 23
M  V30 23 1 23 24
M  V30 24 2 24 25
M  V30 25 1 25 26
M  V30 26 2 26 27
M  V30 27 1 6 28
M  V30 28 2 28 29
M  V30 29 1 29 3
M  V30 30 1 16 7
M  V30 31 1 27 19
M  V30 32 1 27 22
M  V30 33 1 1 30
M  V30 34 1 1 31
M  V30 35 1 1 32
M  V30 36 1 2 33
M  V30 37 1 2 34
M  V30 38 1 4 35
M  V30 39 1 5 36
M  V30 40 1 7 37
M  V30 41 1 10 38
M  V30 42 1 10 39
M  V30 43 1 10 40
M  V30 44 1 13 41
M  V30 45 1 17 42
M  V30 46 1 17 43
M  V30 47 1 18 44
M  V30 48 1 18 45
M  V30 49 1 20 46
M  V30 50 1 21 47
M  V30 51 1 23 48
M  V30 52 1 24 49
M  V30 53 1 25 50
M  V30 54 1 26 51
M  V30 55 1 28 52
M  V30 56 1 29 53
M  V30 END BOND
M  V30 END CTAB
M  END
>  <Dataset>  (848) 
ChEMBL_Kinases

>  <Ligand_Instance>  (848) 
nan

>  <PDB_ID>  (848) 
nan

>  <Standardized_SMILES>  (848) 
CCc1ccc(C2C(C(C)=O)=C(O)C(=O)N2CCc2c[nH]c3ccccc23)cc1

>  <Name>  (848) 
nan

>  <Pocket>  (848) 
nan

>  <ATP_Site>  (848) 
nan

>  <Peripheral>  (848) 
nan

>  <Num_H_Atoms_ProtBoundConf>  (848) 
nan

>  <Num_Resolved_Atoms>  (848) 
nan

>  <Num_Not_Resolved_Atoms>  (848) 
nan

$$$$
CHEMBL4785118
     RDKit          3D

  0  0  0  0  0  0  0  0  0  0999 V3000
M  V30 BEGIN CTAB
M  V30 COUNTS 35 37 0 0 0
M  V30 BEGIN ATOM
M  V30 1 C -1.290010 -3.630746 3.293908 0
M  V30 2 C 0.222593 -3.565617 3.404706 0
M  V30 3 O 0.697058 -2.520099 2.558607 0
M  V30 4 C 2.033354 -2.209368 2.438980 0
M  V30 5 O 2.760927 -2.954890 3.159865 0
M  V30 6 C 2.566838 -1.150712 1.588101 0
M  V30 7 C 3.937865 -0.983227 1.595413 0
M  V30 8 N 4.402411 0.013554 0.790111 0
M  V30 9 C 3.554922 0.762307 0.053217 0
M  V30 10 N 4.188866 1.760752 -0.734808 0
M  V30 11 N 2.221462 0.579129 0.063534 0
M  V30 12 N 1.234236 1.198489 -0.577587 0
M  V30 13 C 0.049563 0.629311 -0.219168 0
M  V30 14 C -1.299439 0.974311 -0.664410 0
M  V30 15 C -2.079696 1.890057 0.050843 0
M  V30 16 C -3.361854 2.253357 -0.324312 0
M  V30 17 C -3.880089 1.673420 -1.463121 0
M  V30 18 C -3.161359 0.765159 -2.209891 0
M  V30 19 O -3.725188 0.206491 -3.350702 0
M  V30 20 C -1.881483 0.433863 -1.792816 0
M  V30 21 N 0.364358 -0.346264 0.653880 0
M  V30 22 C 1.694260 -0.389212 0.837484 0
M  V30 23 H -1.581114 -3.514449 2.231142 0
M  V30 24 H -1.795842 -2.830296 3.856975 0
M  V30 25 H -1.571222 -4.641125 3.650657 0
M  V30 26 H 0.546094 -3.420658 4.450248 0
M  V30 27 H 0.610181 -4.556075 3.087321 0
M  V30 28 H 4.601698 -1.597404 2.196405 0
M  V30 29 H 4.831890 1.335164 -1.445301 0
M  V30 30 H 4.258101 2.792061 -0.877796 0
M  V30 31 H -1.599322 2.301341 0.934917 0
M  V30 32 H -3.831305 2.969406 0.330250 0
M  V30 33 H -4.887427 1.983469 -1.724416 0
M  V30 34 H -3.605666 -0.813996 -3.438087 0
M  V30 35 H -1.331502 -0.268956 -2.374858 0
M  V30 END ATOM
M  V30 BEGIN BOND
M  V30 1 1 1 2
M  V30 2 1 2 3
M  V30 3 1 3 4
M  V30 4 2 4 5
M  V30 5 1 4 6
M  V30 6 2 6 7
M  V30 7 1 7 8
M  V30 8 2 8 9
M  V30 9 1 9 10
M  V30 10 1 9 11
M  V30 11 1 11 12
M  V30 12 2 12 13
M  V30 13 1 13 14
M  V30 14 2 14 15
M  V30 15 1 15 16
M  V30 16 2 16 17
M  V30 17 1 17 18
M  V30 18 1 18 19
M  V30 19 2 18 20
M  V30 20 1 13 21
M  V30 21 2 21 22
M  V30 22 1 22 6
M  V30 23 1 22 11
M  V30 24 1 20 14
M  V30 25 1 1 23
M  V30 26 1 1 24
M  V30 27 1 1 25
M  V30 28 1 2 26
M  V30 29 1 2 27
M  V30 30 1 7 28
M  V30 31 1 10 29
M  V30 32 1 10 30
M  V30 33 1 15 31
M  V30 34 1 16 32
M  V30 35 1 17 33
M  V30 36 1 19 34
M  V30 37 1 20 35
M  V30 END BOND
M  V30 END CTAB
M  END
>  <Dataset>  (849) 
ChEMBL_Kinases

>  <Ligand_Instance>  (849) 
nan

>  <PDB_ID>  (849) 
nan

>  <Standardized_SMILES>  (849) 
CCOC(=O)c1cnc(N)n2nc(-c3cccc(O)c3)nc12

>  <Name>  (849) 
nan

>  <Pocket>  (849) 
nan

>  <ATP_Site>  (849) 
nan

>  <Peripheral>  (849) 
nan

>  <Num_H_Atoms_ProtBoundConf>  (849) 
nan

>  <Num_Resolved_Atoms>  (849) 
nan

>  <Num_Not_Resolved_Atoms>  (849) 
nan

$$$$
CHEMBL4175598
     RDKit          3D

  0  0  0  0  0  0  0  0  0  0999 V3000
M  V30 BEGIN CTAB
M  V30 COUNTS 49 52 0 0 0
M  V30 BEGIN ATOM
M  V30 1 N 1.944573 -3.114433 2.657313 0
M  V30 2 C 2.564380 -3.803326 1.504525 0
M  V30 3 C 1.551313 -4.251901 0.553250 0
M  V30 4 C 1.557634 -3.704834 -0.822680 0
M  V30 5 C 2.777013 -3.018715 -1.291866 0
M  V30 6 C 3.597172 -2.300758 -0.280515 0
M  V30 7 C 3.189973 -0.879738 -0.054828 0
M  V30 8 O 3.990746 0.081467 -0.276011 0
M  V30 9 N 1.904876 -0.513886 0.413568 0
M  V30 10 C 1.335178 0.748229 0.686046 0
M  V30 11 C 1.926022 1.979432 0.552346 0
M  V30 12 C 1.326929 3.187203 0.832656 0
M  V30 13 C 0.035730 3.170053 1.282356 0
M  V30 14 N -0.795315 4.166641 1.631489 0
M  V30 15 N -1.941037 3.593392 1.997813 0
M  V30 16 C -1.867899 2.256883 1.893313 0
M  V30 17 N -2.889772 1.314790 2.195255 0
M  V30 18 C -3.872599 0.837240 1.284748 0
M  V30 19 C -3.844239 1.326794 -0.002954 0
M  V30 20 C -4.837732 0.808840 -0.824566 0
M  V30 21 C -5.771687 -0.119334 -0.378239 0
M  V30 22 Br -7.128449 -0.831151 -1.487653 0
M  V30 23 C -5.735403 -0.562508 0.927915 0
M  V30 24 C -4.769466 -0.078151 1.779804 0
M  V30 25 C -0.598937 1.970611 1.433207 0
M  V30 26 C 0.038500 0.809319 1.142289 0
M  V30 27 C 3.714293 -3.009425 1.033583 0
M  V30 28 H 2.711279 -3.003812 3.358369 0
M  V30 29 H 1.240044 -3.804931 3.039925 0
M  V30 30 H 2.982659 -4.713421 2.037932 0
M  V30 31 H 1.503949 -5.378340 0.483075 0
M  V30 32 H 0.522130 -4.032824 0.974627 0
M  V30 33 H 1.341705 -4.524964 -1.577649 0
M  V30 34 H 0.676628 -3.020284 -1.024611 0
M  V30 35 H 2.507869 -2.246528 -2.071994 0
M  V30 36 H 3.414293 -3.739323 -1.886315 0
M  V30 37 H 4.616039 -2.233472 -0.751683 0
M  V30 38 H 1.306977 -1.363072 0.572847 0
M  V30 39 H 2.943201 2.032273 0.200326 0
M  V30 40 H 1.849144 4.108807 0.704666 0
M  V30 41 H -0.528174 5.179069 1.597935 0
M  V30 42 H -2.816375 1.018993 3.192424 0
M  V30 43 H -3.114355 2.047757 -0.339485 0
M  V30 44 H -4.894719 1.135067 -1.854575 0
M  V30 45 H -6.439488 -1.280467 1.314716 0
M  V30 46 H -4.722127 -0.410308 2.804377 0
M  V30 47 H -0.542883 -0.114343 1.290931 0
M  V30 48 H 3.976563 -2.210474 1.784447 0
M  V30 49 H 4.656744 -3.615588 1.013151 0
M  V30 END ATOM
M  V30 BEGIN BOND
M  V30 1 1 1 2
M  V30 2 1 2 3
M  V30 3 1 3 4
M  V30 4 1 4 5
M  V30 5 1 5 6
M  V30 6 1 6 7
M  V30 7 2 7 8
M  V30 8 1 7 9
M  V30 9 1 9 10
M  V30 10 2 10 11
M  V30 11 1 11 12
M  V30 12 2 12 13
M  V30 13 1 13 14
M  V30 14 1 14 15
M  V30 15 2 15 16
M  V30 16 1 16 17
M  V30 17 1 17 18
M  V30 18 2 18 19
M  V30 19 1 19 20
M  V30 20 2 20 21
M  V30 21 1 21 22
M  V30 22 1 21 23
M  V30 23 2 23 24
M  V30 24 1 16 25
M  V30 25 2 25 26
M  V30 26 1 6 27
M  V30 27 1 27 2
M  V30 28 1 26 10
M  V30 29 1 25 13
M  V30 30 1 24 18
M  V30 31 1 1 28
M  V30 32 1 1 29
M  V30 33 1 2 30
M  V30 34 1 3 31
M  V30 35 1 3 32
M  V30 36 1 4 33
M  V30 37 1 4 34
M  V30 38 1 5 35
M  V30 39 1 5 36
M  V30 40 1 6 37
M  V30 41 1 9 38
M  V30 42 1 11 39
M  V30 43 1 12 40
M  V30 44 1 14 41
M  V30 45 1 17 42
M  V30 46 1 19 43
M  V30 47 1 20 44
M  V30 48 1 23 45
M  V30 49 1 24 46
M  V30 50 1 26 47
M  V30 51 1 27 48
M  V30 52 1 27 49
M  V30 END BOND
M  V30 END CTAB
M  END
>  <Dataset>  (850) 
ChEMBL_Kinases

>  <Ligand_Instance>  (850) 
nan

>  <PDB_ID>  (850) 
nan

>  <Standardized_SMILES>  (850) 
NC1CCCC(C(=O)Nc2ccc3[nH]nc(Nc4ccc(Br)cc4)c3c2)C1

>  <Name>  (850) 
nan

>  <Pocket>  (850) 
nan

>  <ATP_Site>  (850) 
nan

>  <Peripheral>  (850) 
nan

>  <Num_H_Atoms_ProtBoundConf>  (850) 
nan

>  <Num_Resolved_Atoms>  (850) 
nan

>  <Num_Not_Resolved_Atoms>  (850) 
nan

$$$$
CHEMBL4785123
     RDKit          3D

  0  0  0  0  0  0  0  0  0  0999 V3000
M  V30 BEGIN CTAB
M  V30 COUNTS 50 53 0 0 0
M  V30 BEGIN ATOM
M  V30 1 O 1.793887 0.366328 -0.416447 0
M  V30 2 C 1.176977 0.252849 0.680449 0
M  V30 3 N 1.858596 0.858819 1.766092 0
M  V30 4 C 3.087742 1.441431 1.285304 0
M  V30 5 C 4.240096 0.646293 1.287675 0
M  V30 6 C 5.413819 1.206070 0.827359 0
M  V30 7 C 6.715728 0.474451 0.773687 0
M  V30 8 F 6.723638 -0.407101 1.842216 0
M  V30 9 F 7.782167 1.326797 0.866073 0
M  V30 10 F 6.788107 -0.334149 -0.364589 0
M  V30 11 C 5.470648 2.502791 0.376153 0
M  V30 12 C 4.320167 3.281734 0.378823 0
M  V30 13 C 4.277521 4.693017 -0.088140 0
M  V30 14 F 5.517365 5.288954 -0.126462 0
M  V30 15 F 3.525073 5.415399 0.814724 0
M  V30 16 F 3.608626 4.791682 -1.299272 0
M  V30 17 C 3.117190 2.746417 0.837623 0
M  V30 18 N -0.087196 -0.417549 0.835055 0
M  V30 19 C -0.808338 -0.562085 2.059908 0
M  V30 20 C -2.236562 -0.098092 1.894562 0
M  V30 21 C -2.932109 -0.822224 0.760758 0
M  V30 22 N -3.236472 -2.184407 1.086909 0
M  V30 23 C -3.885029 -3.073228 0.222204 0
M  V30 24 N -4.300227 -2.759617 -1.011488 0
M  V30 25 C -4.921335 -3.639585 -1.817267 0
M  V30 26 N -5.163075 -4.903864 -1.420469 0
M  V30 27 C -4.786886 -5.317599 -0.202795 0
M  V30 28 N -4.881841 -6.481787 0.467631 0
M  V30 29 N -4.328987 -6.318419 1.662674 0
M  V30 30 C -3.871280 -5.045761 1.775389 0
M  V30 31 C -4.149749 -4.375099 0.593082 0
M  V30 32 C -2.128141 -0.653132 -0.507654 0
M  V30 33 C -0.685758 -0.997747 -0.345363 0
M  V30 34 H 1.448411 0.831401 2.725053 0
M  V30 35 H 4.257375 -0.373717 1.628241 0
M  V30 36 H 6.330726 3.035704 -0.002615 0
M  V30 37 H 2.216598 3.349774 0.841863 0
M  V30 38 H -0.390460 -0.028892 2.909880 0
M  V30 39 H -0.782366 -1.645869 2.322159 0
M  V30 40 H -2.201590 0.977217 1.612501 0
M  V30 41 H -2.807794 -0.183985 2.819180 0
M  V30 42 H -3.897301 -0.292353 0.597084 0
M  V30 43 H -2.948445 -2.517314 2.034479 0
M  V30 44 H -5.222279 -3.286377 -2.808440 0
M  V30 45 H -5.337553 -7.305421 0.013714 0
M  V30 46 H -3.372641 -4.604113 2.626371 0
M  V30 47 H -2.188436 0.433213 -0.763181 0
M  V30 48 H -2.550229 -1.191526 -1.351587 0
M  V30 49 H -0.496822 -2.086647 -0.264046 0
M  V30 50 H -0.170035 -0.654118 -1.265792 0
M  V30 END ATOM
M  V30 BEGIN BOND
M  V30 1 2 1 2
M  V30 2 1 2 3
M  V30 3 1 3 4
M  V30 4 2 4 5
M  V30 5 1 5 6
M  V30 6 1 6 7
M  V30 7 1 7 8
M  V30 8 1 7 9
M  V30 9 1 7 10
M  V30 10 2 6 11
M  V30 11 1 11 12
M  V30 12 1 12 13
M  V30 13 1 13 14
M  V30 14 1 13 15
M  V30 15 1 13 16
M  V30 16 2 12 17
M  V30 17 1 2 18
M  V30 18 1 18 19
M  V30 19 1 19 20
M  V30 20 1 20 21
M  V30 21 1 21 22
M  V30 22 1 22 23
M  V30 23 2 23 24
M  V30 24 1 24 25
M  V30 25 2 25 26
M  V30 26 1 26 27
M  V30 27 1 27 28
M  V30 28 1 28 29
M  V30 29 2 29 30
M  V30 30 1 30 31
M  V30 31 1 21 32
M  V30 32 1 32 33
M  V30 33 1 17 4
M  V30 34 1 33 18
M  V30 35 1 31 23
M  V30 36 2 31 27
M  V30 37 1 3 34
M  V30 38 1 5 35
M  V30 39 1 11 36
M  V30 40 1 17 37
M  V30 41 1 19 38
M  V30 42 1 19 39
M  V30 43 1 20 40
M  V30 44 1 20 41
M  V30 45 1 21 42
M  V30 46 1 22 43
M  V30 47 1 25 44
M  V30 48 1 28 45
M  V30 49 1 30 46
M  V30 50 1 32 47
M  V30 51 1 32 48
M  V30 52 1 33 49
M  V30 53 1 33 50
M  V30 END BOND
M  V30 END CTAB
M  END
>  <Dataset>  (851) 
ChEMBL_Kinases

>  <Ligand_Instance>  (851) 
nan

>  <PDB_ID>  (851) 
nan

>  <Standardized_SMILES>  (851) 
O=C(Nc1cc(C(F)(F)F)cc(C(F)(F)F)c1)N1CCC(Nc2ncnc3[nH]ncc23)CC1

>  <Name>  (851) 
nan

>  <Pocket>  (851) 
nan

>  <ATP_Site>  (851) 
nan

>  <Peripheral>  (851) 
nan

>  <Num_H_Atoms_ProtBoundConf>  (851) 
nan

>  <Num_Resolved_Atoms>  (851) 
nan

>  <Num_Not_Resolved_Atoms>  (851) 
nan

$$$$
CHEMBL4785163
     RDKit          3D

  0  0  0  0  0  0  0  0  0  0999 V3000
M  V30 BEGIN CTAB
M  V30 COUNTS 69 74 0 0 0
M  V30 BEGIN ATOM
M  V30 1 C 4.912159 -2.687691 0.555740 0
M  V30 2 N 4.454077 -1.312953 0.677026 0
M  V30 3 C 5.232763 -0.181226 0.346257 0
M  V30 4 O 6.401849 -0.345219 -0.083440 0
M  V30 5 C 4.757175 1.188995 0.474256 0
M  V30 6 C 5.596603 2.210099 0.124780 0
M  V30 7 N 5.220914 3.518290 0.217814 0
M  V30 8 C 3.989682 3.855049 0.664546 0
M  V30 9 N 3.332200 4.989317 0.868848 0
M  V30 10 C 2.089063 4.794739 1.339103 0
M  V30 11 C 1.894563 3.435854 1.460366 0
M  V30 12 C 0.699964 2.754988 1.929951 0
M  V30 13 C 0.006449 3.156849 3.048319 0
M  V30 14 C -1.132384 2.530859 3.520453 0
M  V30 15 C -1.624582 1.430408 2.843958 0
M  V30 16 N -2.727354 0.769831 3.243331 0
M  V30 17 C -3.165000 -0.297208 2.547774 0
M  V30 18 C -2.555708 -0.800086 1.406242 0
M  V30 19 N -3.084893 -1.939777 0.724834 0
M  V30 20 C -4.267562 -2.563518 1.243000 0
M  V30 21 C -4.621089 -3.750537 0.335893 0
M  V30 22 C -4.869672 -3.289892 -1.050587 0
M  V30 23 C -4.201336 -4.070653 -2.139036 0
M  V30 24 O -3.083933 -4.789566 -1.757223 0
M  V30 25 C -3.551312 -5.707127 -0.787122 0
M  V30 26 C -3.605992 -4.842548 0.479980 0
M  V30 27 C -1.432584 -0.127963 0.998826 0
M  V30 28 N -0.751849 -0.576255 -0.156041 0
M  V30 29 C -1.169112 -0.003608 -1.433234 0
M  V30 30 C -0.044133 -0.012845 -2.445246 0
M  V30 31 O 0.530181 -1.272838 -2.421453 0
M  V30 32 C 1.267215 -1.443850 -1.262000 0
M  V30 33 C 0.304612 -1.552568 -0.078193 0
M  V30 34 C -0.967276 0.980894 1.711159 0
M  V30 35 C 0.177243 1.643838 1.272564 0
M  V30 36 C 3.093458 2.853087 1.034501 0
M  V30 37 C 3.506261 1.530325 0.928157 0
M  V30 38 H 4.139278 -3.260937 -0.002616 0
M  V30 39 H 5.841749 -2.700565 -0.033274 0
M  V30 40 H 5.049665 -3.136316 1.576914 0
M  V30 41 H 3.489551 -1.194775 1.032148 0
M  V30 42 H 6.608576 2.041605 -0.246296 0
M  V30 43 H 3.718827 5.955399 0.690094 0
M  V30 44 H 1.353874 5.571815 1.585191 0
M  V30 45 H 0.356920 4.024155 3.618848 0
M  V30 46 H -1.681674 2.839039 4.395536 0
M  V30 47 H -4.059997 -0.780022 2.928472 0
M  V30 48 H -2.560952 -2.247890 -0.124935 0
M  V30 49 H -4.010701 -2.923073 2.261045 0
M  V30 50 H -5.129799 -1.893374 1.345463 0
M  V30 51 H -5.574626 -4.171156 0.750534 0
M  V30 52 H -5.975017 -3.296856 -1.288632 0
M  V30 53 H -4.606221 -2.208852 -1.125948 0
M  V30 54 H -3.870712 -3.350267 -2.930324 0
M  V30 55 H -4.894557 -4.773723 -2.605148 0
M  V30 56 H -4.541760 -6.095997 -1.044441 0
M  V30 57 H -2.782275 -6.479285 -0.618108 0
M  V30 58 H -2.580274 -4.388218 0.541329 0
M  V30 59 H -3.836288 -5.498686 1.326329 0
M  V30 60 H -1.955982 -0.688760 -1.864963 0
M  V30 61 H -1.638158 0.984585 -1.324548 0
M  V30 62 H 0.719695 0.768982 -2.253502 0
M  V30 63 H -0.500954 0.178786 -3.439890 0
M  V30 64 H 1.799142 -2.420275 -1.363602 0
M  V30 65 H 1.969741 -0.613518 -1.153946 0
M  V30 66 H -0.166325 -2.554091 -0.188477 0
M  V30 67 H 0.836969 -1.558466 0.871328 0
M  V30 68 H 0.640398 1.257526 0.400564 0
M  V30 69 H 2.840061 0.731942 1.205077 0
M  V30 END ATOM
M  V30 BEGIN BOND
M  V30 1 1 1 2
M  V30 2 1 2 3
M  V30 3 2 3 4
M  V30 4 1 3 5
M  V30 5 2 5 6
M  V30 6 1 6 7
M  V30 7 2 7 8
M  V30 8 1 8 9
M  V30 9 1 9 10
M  V30 10 2 10 11
M  V30 11 1 11 12
M  V30 12 2 12 13
M  V30 13 1 13 14
M  V30 14 2 14 15
M  V30 15 1 15 16
M  V30 16 2 16 17
M  V30 17 1 17 18
M  V30 18 1 18 19
M  V30 19 1 19 20
M  V30 20 1 20 21
M  V30 21 1 21 22
M  V30 22 1 22 23
M  V30 23 1 23 24
M  V30 24 1 24 25
M  V30 25 1 25 26
M  V30 26 2 18 27
M  V30 27 1 27 28
M  V30 28 1 28 29
M  V30 29 1 29 30
M  V30 30 1 30 31
M  V30 31 1 31 32
M  V30 32 1 32 33
M  V30 33 1 27 34
M  V30 34 2 34 35
M  V30 35 1 11 36
M  V30 36 2 36 37
M  V30 37 1 37 5
M  V30 38 1 36 8
M  V30 39 1 35 12
M  V30 40 1 34 15
M  V30 41 1 26 21
M  V30 42 1 33 28
M  V30 43 1 1 38
M  V30 44 1 1 39
M  V30 45 1 1 40
M  V30 46 1 2 41
M  V30 47 1 6 42
M  V30 48 1 9 43
M  V30 49 1 10 44
M  V30 50 1 13 45
M  V30 51 1 14 46
M  V30 52 1 17 47
M  V30 53 1 19 48
M  V30 54 1 20 49
M  V30 55 1 20 50
M  V30 56 1 21 51
M  V30 57 1 22 52
M  V30 58 1 22 53
M  V30 59 1 23 54
M  V30 60 1 23 55
M  V30 61 1 25 56
M  V30 62 1 25 57
M  V30 63 1 26 58
M  V30 64 1 26 59
M  V30 65 1 29 60
M  V30 66 1 29 61
M  V30 67 1 30 62
M  V30 68 1 30 63
M  V30 69 1 32 64
M  V30 70 1 32 65
M  V30 71 1 33 66
M  V30 72 1 33 67
M  V30 73 1 35 68
M  V30 74 1 37 69
M  V30 END BOND
M  V30 END CTAB
M  END
>  <Dataset>  (852) 
ChEMBL_Kinases

>  <Ligand_Instance>  (852) 
nan

>  <PDB_ID>  (852) 
nan

>  <Standardized_SMILES>  (852) 
CNC(=O)c1cnc2[nH]cc(-c3ccc4ncc(NCC5CCOCC5)c(N5CCOCC5)c4c3)c2c1

>  <Name>  (852) 
nan

>  <Pocket>  (852) 
nan

>  <ATP_Site>  (852) 
nan

>  <Peripheral>  (852) 
nan

>  <Num_H_Atoms_ProtBoundConf>  (852) 
nan

>  <Num_Resolved_Atoms>  (852) 
nan

>  <Num_Not_Resolved_Atoms>  (852) 
nan

$$$$
CHEMBL4174540
     RDKit          3D

  0  0  0  0  0  0  0  0  0  0999 V3000
M  V30 BEGIN CTAB
M  V30 COUNTS 59 62 0 0 0
M  V30 BEGIN ATOM
M  V30 1 C 1.872473 -3.365054 4.861996 0
M  V30 2 O 2.898082 -3.823619 3.985546 0
M  V30 3 C 3.061198 -3.216741 2.748876 0
M  V30 4 C 2.284271 -2.173542 2.289264 0
M  V30 5 C 2.525025 -1.634579 1.039284 0
M  V30 6 C 3.517305 -2.076671 0.189139 0
M  V30 7 N 3.696548 -1.465493 -1.080342 0
M  V30 8 C 3.030329 -0.396991 -1.742173 0
M  V30 9 N 3.450070 -0.061913 -2.951935 0
M  V30 10 C 2.891675 0.929350 -3.655951 0
M  V30 11 C 1.853582 1.563694 -3.019026 0
M  V30 12 C 1.386096 1.264413 -1.790314 0
M  V30 13 C 0.299035 1.878493 -1.027991 0
M  V30 14 S -0.210602 1.347159 0.582738 0
M  V30 15 C -1.582971 2.637081 0.768861 0
M  V30 16 S -2.543802 2.658375 2.240186 0
M  V30 17 C -4.020125 1.585730 2.104496 0
M  V30 18 C -3.675525 0.137838 1.983287 0
M  V30 19 N -4.841018 -0.715124 1.877309 0
M  V30 20 C -5.559617 -0.530634 0.628535 0
M  V30 21 C -4.674063 -0.581579 -0.559423 0
M  V30 22 O -3.640404 -1.450233 -0.528570 0
M  V30 23 C -3.378366 -2.162898 0.570301 0
M  V30 24 C -4.306476 -2.079630 1.731506 0
M  V30 25 N -1.481576 3.241523 -0.312307 0
M  V30 26 C -0.604008 2.941660 -1.232176 0
M  V30 27 C -0.562798 3.730519 -2.492065 0
M  V30 28 N 2.017163 0.257415 -1.177434 0
M  V30 29 C 4.286202 -3.124137 0.668271 0
M  V30 30 O 5.307470 -3.616329 -0.147012 0
M  V30 31 C 6.104486 -4.677763 0.310667 0
M  V30 32 C 4.054418 -3.665263 1.907240 0
M  V30 33 H 1.997755 -2.270220 5.079222 0
M  V30 34 H 2.001003 -3.904057 5.838876 0
M  V30 35 H 0.864032 -3.575109 4.498800 0
M  V30 36 H 1.516296 -1.854543 2.983995 0
M  V30 37 H 1.836973 -0.839849 0.841221 0
M  V30 38 H 4.500855 -1.937089 -1.599258 0
M  V30 39 H 3.213001 1.215887 -4.629786 0
M  V30 40 H 1.367390 2.367418 -3.540660 0
M  V30 41 H -4.600984 1.780435 3.049891 0
M  V30 42 H -4.620699 1.985743 1.287328 0
M  V30 43 H -2.962302 0.028381 1.146977 0
M  V30 44 H -3.149739 -0.176826 2.907636 0
M  V30 45 H -6.260958 -1.414172 0.558715 0
M  V30 46 H -6.188898 0.360710 0.621399 0
M  V30 47 H -5.319229 -0.804012 -1.457594 0
M  V30 48 H -4.289208 0.441288 -0.758421 0
M  V30 49 H -3.287911 -3.249031 0.285136 0
M  V30 50 H -2.354060 -1.909856 0.951529 0
M  V30 51 H -3.849607 -2.458927 2.643209 0
M  V30 52 H -5.210385 -2.701658 1.491086 0
M  V30 53 H -1.304303 4.562126 -2.521138 0
M  V30 54 H 0.419257 4.275014 -2.622265 0
M  V30 55 H -0.834334 3.079180 -3.325958 0
M  V30 56 H 5.506219 -5.537363 0.649499 0
M  V30 57 H 6.781928 -5.003696 -0.514428 0
M  V30 58 H 6.742594 -4.357729 1.182072 0
M  V30 59 H 4.700107 -4.472037 2.191680 0
M  V30 END ATOM
M  V30 BEGIN BOND
M  V30 1 1 1 2
M  V30 2 1 2 3
M  V30 3 2 3 4
M  V30 4 1 4 5
M  V30 5 2 5 6
M  V30 6 1 6 7
M  V30 7 1 7 8
M  V30 8 2 8 9
M  V30 9 1 9 10
M  V30 10 2 10 11
M  V30 11 1 11 12
M  V30 12 1 12 13
M  V30 13 1 13 14
M  V30 14 1 14 15
M  V30 15 1 15 16
M  V30 16 1 16 17
M  V30 17 1 17 18
M  V30 18 1 18 19
M  V30 19 1 19 20
M  V30 20 1 20 21
M  V30 21 1 21 22
M  V30 22 1 22 23
M  V30 23 1 23 24
M  V30 24 2 15 25
M  V30 25 1 25 26
M  V30 26 1 26 27
M  V30 27 2 12 28
M  V30 28 1 6 29
M  V30 29 1 29 30
M  V30 30 1 30 31
M  V30 31 2 29 32
M  V30 32 1 32 3
M  V30 33 1 28 8
M  V30 34 2 26 13
M  V30 35 1 24 19
M  V30 36 1 1 33
M  V30 37 1 1 34
M  V30 38 1 1 35
M  V30 39 1 4 36
M  V30 40 1 5 37
M  V30 41 1 7 38
M  V30 42 1 10 39
M  V30 43 1 11 40
M  V30 44 1 17 41
M  V30 45 1 17 42
M  V30 46 1 18 43
M  V30 47 1 18 44
M  V30 48 1 20 45
M  V30 49 1 20 46
M  V30 50 1 21 47
M  V30 51 1 21 48
M  V30 52 1 23 49
M  V30 53 1 23 50
M  V30 54 1 24 51
M  V30 55 1 24 52
M  V30 56 1 27 53
M  V30 57 1 27 54
M  V30 58 1 27 55
M  V30 59 1 31 56
M  V30 60 1 31 57
M  V30 61 1 31 58
M  V30 62 1 32 59
M  V30 END BOND
M  V30 END CTAB
M  END
>  <Dataset>  (853) 
ChEMBL_Kinases

>  <Ligand_Instance>  (853) 
nan

>  <PDB_ID>  (853) 
nan

>  <Standardized_SMILES>  (853) 
COc1ccc(Nc2nccc(-c3sc(SCCN4CCOCC4)nc3C)n2)c(OC)c1

>  <Name>  (853) 
nan

>  <Pocket>  (853) 
nan

>  <ATP_Site>  (853) 
nan

>  <Peripheral>  (853) 
nan

>  <Num_H_Atoms_ProtBoundConf>  (853) 
nan

>  <Num_Resolved_Atoms>  (853) 
nan

>  <Num_Not_Resolved_Atoms>  (853) 
nan

$$$$
CHEMBL4175290
     RDKit          3D

  0  0  0  0  0  0  0  0  0  0999 V3000
M  V30 BEGIN CTAB
M  V30 COUNTS 65 70 0 0 0
M  V30 BEGIN ATOM
M  V30 1 C -0.517194 -1.923318 -0.601479 0
M  V30 2 C -0.239831 -1.581222 0.818549 0 CFG=2
M  V30 3 C -1.003973 -0.374233 1.289359 0
M  V30 4 C -0.603711 0.770040 0.385478 0
M  V30 5 C 0.889038 0.986325 0.375124 0 CFG=1
M  V30 6 C 1.697620 -0.253195 0.170302 0 CFG=1
M  V30 7 C 3.134515 0.076776 0.498782 0
M  V30 8 C 3.517029 1.439414 0.108913 0
M  V30 9 C 2.704311 2.343614 -0.434731 0
M  V30 10 C 3.231645 3.670779 -0.773106 0
M  V30 11 C 2.236005 4.778570 -0.577871 0 CFG=1
M  V30 12 O 2.794744 5.943945 -1.114616 0
M  V30 13 C 0.989167 4.379395 -1.352790 0
M  V30 14 C 0.364950 3.192596 -0.686009 0
M  V30 15 C 1.261918 1.978673 -0.688357 0 CFG=2
M  V30 16 C 1.243687 1.405581 -2.087827 0
M  V30 17 C 1.227666 -1.306205 1.100367 0 CFG=2
M  V30 18 C 1.797626 -2.685407 0.850383 0
M  V30 19 C 0.711328 -3.658167 1.282281 0
M  V30 20 C -0.433877 -2.780769 1.721968 0 CFG=2
M  V30 21 C -1.739805 -3.431972 1.605443 0
M  V30 22 C -2.215620 -4.219442 0.578592 0
M  V30 23 C -3.477874 -4.775553 0.573398 0
M  V30 24 C -4.355821 -4.572076 1.617522 0
M  V30 25 C -5.641457 -4.948127 1.950247 0
M  V30 26 N -6.410824 -5.778874 1.074222 0
M  V30 27 N -5.933195 -4.405842 3.139863 0
M  V30 28 N -4.911768 -3.700723 3.596826 0
M  V30 29 C -3.934490 -3.791339 2.675600 0
M  V30 30 C -2.661751 -3.256448 2.634575 0
M  V30 31 H -1.590088 -2.085353 -0.724517 0
M  V30 32 H 0.025093 -2.793896 -0.980205 0
M  V30 33 H -0.274000 -1.077716 -1.303303 0
M  V30 34 H -2.094016 -0.529555 1.150407 0
M  V30 35 H -0.709962 -0.140345 2.311655 0
M  V30 36 H -1.046335 0.694560 -0.629003 0
M  V30 37 H -1.047768 1.682091 0.848492 0
M  V30 38 H 1.183234 1.455950 1.348862 0
M  V30 39 H 1.659877 -0.646496 -0.850286 0
M  V30 40 H 3.842161 -0.701359 0.148586 0
M  V30 41 H 3.201831 0.041091 1.622235 0
M  V30 42 H 4.564406 1.632202 0.319096 0
M  V30 43 H 3.603040 3.710821 -1.832655 0
M  V30 44 H 4.094790 3.887811 -0.111910 0
M  V30 45 H 1.966215 4.855481 0.478569 0
M  V30 46 H 2.152276 6.542841 -1.528899 0
M  V30 47 H 0.280961 5.236491 -1.209245 0
M  V30 48 H 1.161781 4.280376 -2.430765 0
M  V30 49 H -0.558951 2.930428 -1.242331 0
M  V30 50 H 0.082285 3.496935 0.340531 0
M  V30 51 H 0.260833 0.993061 -2.388277 0
M  V30 52 H 1.418202 2.285548 -2.769107 0
M  V30 53 H 2.102255 0.733914 -2.283105 0
M  V30 54 H 1.321969 -1.064354 2.171314 0
M  V30 55 H 2.054919 -2.759632 -0.217315 0
M  V30 56 H 2.740017 -2.826897 1.427169 0
M  V30 57 H 0.439856 -4.247073 0.370931 0
M  V30 58 H 1.065108 -4.320902 2.100755 0
M  V30 59 H -0.250435 -2.488278 2.788250 0
M  V30 60 H -1.561225 -4.404407 -0.241613 0
M  V30 61 H -3.805012 -5.385823 -0.255367 0
M  V30 62 H -7.301694 -5.525478 0.589723 0
M  V30 63 H -6.102012 -6.762052 0.851806 0
M  V30 64 H -4.915540 -3.188488 4.509016 0
M  V30 65 H -2.365190 -2.642098 3.494291 0
M  V30 END ATOM
M  V30 BEGIN BOND
M  V30 1 1 2 1 CFG=3
M  V30 2 1 2 3
M  V30 3 1 3 4
M  V30 4 1 4 5
M  V30 5 1 5 6
M  V30 6 1 6 7
M  V30 7 1 7 8
M  V30 8 2 8 9
M  V30 9 1 9 10
M  V30 10 1 10 11
M  V30 11 1 11 12
M  V30 12 1 11 13
M  V30 13 1 13 14
M  V30 14 1 14 15
M  V30 15 1 15 16 CFG=3
M  V30 16 1 6 17
M  V30 17 1 17 18
M  V30 18 1 18 19
M  V30 19 1 19 20
M  V30 20 1 20 21
M  V30 21 2 21 22
M  V30 22 1 22 23
M  V30 23 2 23 24
M  V30 24 1 24 25
M  V30 25 1 25 26
M  V30 26 2 25 27
M  V30 27 1 27 28
M  V30 28 1 28 29
M  V30 29 2 29 30
M  V30 30 1 17 2
M  V30 31 1 30 21
M  V30 32 1 20 2
M  V30 33 1 29 24
M  V30 34 1 15 5
M  V30 35 1 15 9
M  V30 36 1 1 31
M  V30 37 1 1 32
M  V30 38 1 1 33
M  V30 39 1 3 34
M  V30 40 1 3 35
M  V30 41 1 4 36
M  V30 42 1 4 37
M  V30 43 1 5 38 CFG=1
M  V30 44 1 6 39 CFG=3
M  V30 45 1 7 40
M  V30 46 1 7 41
M  V30 47 1 8 42
M  V30 48 1 10 43
M  V30 49 1 10 44
M  V30 50 1 11 45 CFG=1
M  V30 51 1 12 46
M  V30 52 1 13 47
M  V30 53 1 13 48
M  V30 54 1 14 49
M  V30 55 1 14 50
M  V30 56 1 16 51
M  V30 57 1 16 52
M  V30 58 1 16 53
M  V30 59 1 17 54 CFG=1
M  V30 60 1 18 55
M  V30 61 1 18 56
M  V30 62 1 19 57
M  V30 63 1 19 58
M  V30 64 1 20 59 CFG=1
M  V30 65 1 22 60
M  V30 66 1 23 61
M  V30 67 1 26 62
M  V30 68 1 26 63
M  V30 69 1 28 64
M  V30 70 1 30 65
M  V30 END BOND
M  V30 END CTAB
M  END
>  <Dataset>  (854) 
ChEMBL_Kinases

>  <Ligand_Instance>  (854) 
nan

>  <PDB_ID>  (854) 
nan

>  <Standardized_SMILES>  (854) 
C[C@]12CC[C@H]3[C@@H](CC=C4C[C@@H](O)CC[C@@]43C)[C@@H]1CC[C@@H]2c1ccc2c(N)n[nH]c2c1

>  <Name>  (854) 
nan

>  <Pocket>  (854) 
nan

>  <ATP_Site>  (854) 
nan

>  <Peripheral>  (854) 
nan

>  <Num_H_Atoms_ProtBoundConf>  (854) 
nan

>  <Num_Resolved_Atoms>  (854) 
nan

>  <Num_Not_Resolved_Atoms>  (854) 
nan

$$$$
CHEMBL4175282
     RDKit          3D

  0  0  0  0  0  0  0  0  0  0999 V3000
M  V30 BEGIN CTAB
M  V30 COUNTS 56 60 0 0 0
M  V30 BEGIN ATOM
M  V30 1 O 1.186765 -6.210891 1.564681 0
M  V30 2 C 1.140413 -4.967877 1.663573 0
M  V30 3 N 1.443921 -4.190931 2.809911 0
M  V30 4 C 1.260063 -2.817821 2.468671 0
M  V30 5 C 1.454903 -1.705572 3.257721 0
M  V30 6 C 1.232470 -0.470401 2.687304 0
M  V30 7 C 0.823721 -0.308966 1.357635 0
M  V30 8 C 0.604311 1.028260 0.806407 0
M  V30 9 O 0.261387 1.160264 -0.413237 0
M  V30 10 N 0.748202 2.226593 1.549080 0
M  V30 11 C 0.524209 3.537671 0.972363 0 CFG=2
M  V30 12 C 1.694682 4.455828 1.053623 0
M  V30 13 O 1.461416 5.723551 0.477777 0
M  V30 14 C -0.709632 4.061936 1.606432 0
M  V30 15 C -0.973509 5.291881 2.162042 0
M  V30 16 C -2.205088 5.590150 2.702433 0
M  V30 17 C -3.224448 4.664213 2.707516 0
M  V30 18 C -2.983944 3.423532 2.156015 0
M  V30 19 C -1.751124 3.124733 1.614946 0
M  V30 20 C 0.645134 -1.457707 0.620241 0
M  V30 21 C 0.854303 -2.702153 1.155870 0
M  V30 22 C 0.769729 -4.049241 0.629791 0
M  V30 23 C 0.441520 -4.364256 -0.581230 0
M  V30 24 C 0.372801 -5.703847 -1.195809 0
M  V30 25 N 0.901376 -6.202128 -2.335273 0
M  V30 26 C 0.525198 -7.479994 -2.504195 0
M  V30 27 C -0.280843 -7.797168 -1.414083 0
M  V30 28 N -0.354783 -6.696373 -0.636877 0
M  V30 29 C -0.096843 -3.478931 -1.605038 0
M  V30 30 C -1.362169 -3.043452 -1.162626 0
M  V30 31 C -2.128281 -2.172541 -1.947720 0
M  V30 32 C -1.613872 -1.746161 -3.174249 0
M  V30 33 C -0.378904 -2.189301 -3.574551 0
M  V30 34 C 0.388816 -3.044688 -2.817756 0
M  V30 35 F 1.599190 -3.564379 -3.063877 0
M  V30 36 H 1.745038 -4.623989 3.719757 0
M  V30 37 H 1.771672 -1.814715 4.286628 0
M  V30 38 H 1.395613 0.368063 3.339738 0
M  V30 39 H 1.024820 2.190800 2.552488 0
M  V30 40 H 0.250412 3.452382 -0.121529 0
M  V30 41 H 2.586512 4.077791 0.515776 0
M  V30 42 H 2.027141 4.581538 2.121856 0
M  V30 43 H 1.153265 5.625642 -0.438814 0
M  V30 44 H -0.139924 5.964203 2.127853 0
M  V30 45 H -2.290093 6.594319 3.110322 0
M  V30 46 H -4.155755 4.998184 3.156947 0
M  V30 47 H -3.828189 2.751808 2.196308 0
M  V30 48 H -1.738728 2.096594 1.222941 0
M  V30 49 H 0.365366 -1.226454 -0.384929 0
M  V30 50 H 0.855744 -8.040283 -3.364132 0
M  V30 51 H -0.666121 -8.813084 -1.410571 0
M  V30 52 H -0.953212 -6.866013 0.186095 0
M  V30 53 H -1.895921 -3.275043 -0.254504 0
M  V30 54 H -3.088476 -1.788146 -1.706592 0
M  V30 55 H -2.156884 -1.077520 -3.819739 0
M  V30 56 H 0.090136 -1.905777 -4.510564 0
M  V30 END ATOM
M  V30 BEGIN BOND
M  V30 1 2 1 2
M  V30 2 1 2 3
M  V30 3 1 3 4
M  V30 4 2 4 5
M  V30 5 1 5 6
M  V30 6 2 6 7
M  V30 7 1 7 8
M  V30 8 2 8 9
M  V30 9 1 8 10
M  V30 10 1 10 11
M  V30 11 1 11 12
M  V30 12 1 12 13
M  V30 13 1 11 14
M  V30 14 2 14 15
M  V30 15 1 15 16
M  V30 16 2 16 17
M  V30 17 1 17 18
M  V30 18 2 18 19
M  V30 19 1 7 20
M  V30 20 2 20 21
M  V30 21 1 21 22
M  V30 22 2 22 23
M  V30 23 1 23 24
M  V30 24 2 24 25
M  V30 25 1 25 26
M  V30 26 2 26 27
M  V30 27 1 27 28
M  V30 28 1 23 29
M  V30 29 2 29 30
M  V30 30 1 30 31
M  V30 31 2 31 32
M  V30 32 1 32 33
M  V30 33 2 33 34
M  V30 34 1 34 35
M  V30 35 1 22 2
M  V30 36 1 28 24
M  V30 37 1 34 29
M  V30 38 1 21 4
M  V30 39 1 19 14
M  V30 40 1 3 36
M  V30 41 1 5 37
M  V30 42 1 6 38
M  V30 43 1 10 39
M  V30 44 1 11 40 CFG=3
M  V30 45 1 12 41
M  V30 46 1 12 42
M  V30 47 1 13 43
M  V30 48 1 15 44
M  V30 49 1 16 45
M  V30 50 1 17 46
M  V30 51 1 18 47
M  V30 52 1 19 48
M  V30 53 1 20 49
M  V30 54 1 26 50
M  V30 55 1 27 51
M  V30 56 1 28 52
M  V30 57 1 30 53
M  V30 58 1 31 54
M  V30 59 1 32 55
M  V30 60 1 33 56
M  V30 END BOND
M  V30 END CTAB
M  END
>  <Dataset>  (855) 
ChEMBL_Kinases

>  <Ligand_Instance>  (855) 
nan

>  <PDB_ID>  (855) 
nan

>  <Standardized_SMILES>  (855) 
O=C1Nc2ccc(C(=O)N[C@H](CO)c3ccccc3)cc2/C1=C(/c1ncc[nH]1)c1ccccc1F

>  <Name>  (855) 
nan

>  <Pocket>  (855) 
nan

>  <ATP_Site>  (855) 
nan

>  <Peripheral>  (855) 
nan

>  <Num_H_Atoms_ProtBoundConf>  (855) 
nan

>  <Num_Resolved_Atoms>  (855) 
nan

>  <Num_Not_Resolved_Atoms>  (855) 
nan

$$$$
CHEMBL4785186
     RDKit          3D

  0  0  0  0  0  0  0  0  0  0999 V3000
M  V30 BEGIN CTAB
M  V30 COUNTS 47 50 0 0 0
M  V30 BEGIN ATOM
M  V30 1 O 3.260851 -1.903003 2.574133 0
M  V30 2 C 2.358380 -1.571963 1.798770 0
M  V30 3 C 1.907874 -2.088998 0.473040 0
M  V30 4 C 2.733899 -1.490808 -0.608987 0
M  V30 5 C 2.104965 -0.448981 -1.293245 0
M  V30 6 C 2.669906 0.290373 -2.342325 0
M  V30 7 C 3.943399 -0.057954 -2.703591 0
M  V30 8 F 4.511694 0.648801 -3.719806 0
M  V30 9 C 4.595018 -1.086235 -2.045384 0
M  V30 10 C 4.012655 -1.790403 -1.024259 0
M  V30 11 N 1.578194 -0.437827 2.273549 0
M  V30 12 C 1.680332 0.353847 3.487971 0
M  V30 13 C 0.742254 1.485013 3.578397 0
M  V30 14 C -0.711512 1.315231 3.596384 0
M  V30 15 N -1.345688 0.614053 2.521504 0
M  V30 16 C -1.627428 1.105471 1.292215 0
M  V30 17 O -1.222536 2.269035 1.098098 0
M  V30 18 C -2.308911 0.403372 0.298397 0
M  V30 19 C -2.522455 1.006802 -0.924743 0
M  V30 20 C -3.192894 0.213108 -1.839883 0
M  V30 21 F -3.391330 0.782615 -3.047405 0
M  V30 22 C -3.607215 -1.063826 -1.548800 0
M  V30 23 C -3.361305 -1.606605 -0.308924 0
M  V30 24 C -2.702432 -0.873248 0.640200 0
M  V30 25 N -2.455716 -1.412197 1.836753 0
M  V30 26 C -2.753581 -2.587890 2.374855 0
M  V30 27 S -3.532776 -3.873289 1.802037 0
M  V30 28 N -2.259980 -2.555257 3.618452 0
M  V30 29 N -1.664961 -1.407050 3.886140 0
M  V30 30 C -1.786529 -0.668258 2.751658 0
M  V30 31 H 0.851958 -1.869499 0.284741 0
M  V30 32 H 2.018742 -3.195771 0.411883 0
M  V30 33 H 1.085120 -0.139314 -1.039506 0
M  V30 34 H 2.069552 1.091335 -2.808363 0
M  V30 35 H 5.601034 -1.349505 -2.334683 0
M  V30 36 H 4.457873 -2.604031 -0.462162 0
M  V30 37 H 0.817199 -0.107735 1.658494 0
M  V30 38 H 1.777692 -0.282651 4.401033 0
M  V30 39 H 2.712695 0.829302 3.404531 0
M  V30 40 H 1.054347 2.088851 4.501212 0
M  V30 41 H 1.069389 2.210661 2.746197 0
M  V30 42 H -1.160337 2.368861 3.614552 0
M  V30 43 H -1.089822 0.903747 4.575631 0
M  V30 44 H -2.152007 2.030520 -1.064659 0
M  V30 45 H -4.118315 -1.560410 -2.390487 0
M  V30 46 H -3.740194 -2.608763 -0.215964 0
M  V30 47 H -2.317009 -3.313798 4.343946 0
M  V30 END ATOM
M  V30 BEGIN BOND
M  V30 1 2 1 2
M  V30 2 1 2 3
M  V30 3 1 3 4
M  V30 4 2 4 5
M  V30 5 1 5 6
M  V30 6 2 6 7
M  V30 7 1 7 8
M  V30 8 1 7 9
M  V30 9 2 9 10
M  V30 10 1 2 11
M  V30 11 1 11 12
M  V30 12 1 12 13
M  V30 13 1 13 14
M  V30 14 1 14 15
M  V30 15 1 15 16
M  V30 16 2 16 17
M  V30 17 1 16 18
M  V30 18 2 18 19
M  V30 19 1 19 20
M  V30 20 1 20 21
M  V30 21 2 20 22
M  V30 22 1 22 23
M  V30 23 2 23 24
M  V30 24 1 24 25
M  V30 25 1 25 26
M  V30 26 2 26 27
M  V30 27 1 26 28
M  V30 28 1 28 29
M  V30 29 2 29 30
M  V30 30 1 10 4
M  V30 31 1 30 15
M  V30 32 1 24 18
M  V30 33 1 30 25
M  V30 34 1 3 31
M  V30 35 1 3 32
M  V30 36 1 5 33
M  V30 37 1 6 34
M  V30 38 1 9 35
M  V30 39 1 10 36
M  V30 40 1 11 37
M  V30 41 1 12 38
M  V30 42 1 12 39
M  V30 43 1 13 40
M  V30 44 1 13 41
M  V30 45 1 14 42
M  V30 46 1 14 43
M  V30 47 1 19 44
M  V30 48 1 22 45
M  V30 49 1 23 46
M  V30 50 1 28 47
M  V30 END BOND
M  V30 END CTAB
M  END
>  <Dataset>  (856) 
ChEMBL_Kinases

>  <Ligand_Instance>  (856) 
nan

>  <PDB_ID>  (856) 
nan

>  <Standardized_SMILES>  (856) 
O=C(Cc1ccc(F)cc1)NCCCn1c(=O)c2cc(F)ccc2n2c(=S)[nH]nc12

>  <Name>  (856) 
nan

>  <Pocket>  (856) 
nan

>  <ATP_Site>  (856) 
nan

>  <Peripheral>  (856) 
nan

>  <Num_H_Atoms_ProtBoundConf>  (856) 
nan

>  <Num_Resolved_Atoms>  (856) 
nan

>  <Num_Not_Resolved_Atoms>  (856) 
nan

$$$$
CHEMBL4175117
     RDKit          3D

  0  0  0  0  0  0  0  0  0  0999 V3000
M  V30 BEGIN CTAB
M  V30 COUNTS 43 47 0 0 0
M  V30 BEGIN ATOM
M  V30 1 C -0.881092 -6.014037 3.098653 0
M  V30 2 O 0.503539 -6.104106 2.891256 0
M  V30 3 C 1.183225 -5.058931 2.293855 0
M  V30 4 C 0.516829 -3.894605 1.883614 0
M  V30 5 C 1.245081 -2.882656 1.292365 0
M  V30 6 C 0.430824 -1.714763 0.911694 0
M  V30 7 C 1.036488 -0.477370 0.944781 0
M  V30 8 N 0.353562 0.597804 0.620269 0
M  V30 9 C -0.919973 0.650008 0.242378 0
M  V30 10 C -1.872098 1.622804 -0.144063 0
M  V30 11 N -1.356981 3.009588 -0.160081 0
M  V30 12 C -0.835693 3.673198 -1.366578 0
M  V30 13 C 0.044971 4.423085 -0.453172 0
M  V30 14 C 0.615093 5.722290 -0.801984 0
M  V30 15 O 1.886775 5.116152 -0.779069 0
M  V30 16 C 1.406974 3.933652 -0.177705 0
M  V30 17 C -1.047658 4.262583 0.524642 0
M  V30 18 S -3.358493 0.956375 -0.497386 0
M  V30 19 N -2.949141 -0.812825 -0.176212 0
M  V30 20 C -1.534886 -0.569386 0.204582 0
M  V30 21 C -0.892304 -1.758922 0.530346 0
M  V30 22 C 2.603575 -2.946232 1.077392 0
M  V30 23 C 3.298313 -4.086139 1.471496 0
M  V30 24 C 2.540623 -5.074053 2.056725 0
M  V30 25 N 3.211095 -6.278187 2.486669 0
M  V30 26 H -1.239695 -6.893460 3.696628 0
M  V30 27 H -1.422926 -6.027969 2.122306 0
M  V30 28 H -1.117822 -5.081398 3.634946 0
M  V30 29 H -0.547419 -3.894085 2.078461 0
M  V30 30 H 2.065566 -0.329078 1.228022 0
M  V30 31 H -0.322630 3.034738 -2.082901 0
M  V30 32 H -1.634796 4.332013 -1.801698 0
M  V30 33 H 0.412198 6.071535 -1.819499 0
M  V30 34 H 0.600118 6.544742 -0.057796 0
M  V30 35 H 1.721929 3.883255 0.883178 0
M  V30 36 H 1.663910 3.015517 -0.739987 0
M  V30 37 H -0.788227 4.180332 1.591586 0
M  V30 38 H -1.879639 4.975655 0.366480 0
M  V30 39 H -1.251716 -2.778290 0.539871 0
M  V30 40 H 3.115727 -2.108841 0.604476 0
M  V30 41 H 4.359645 -4.180512 1.323280 0
M  V30 42 H 4.124323 -6.142094 3.010055 0
M  V30 43 H 2.887774 -7.276768 2.336918 0
M  V30 END ATOM
M  V30 BEGIN BOND
M  V30 1 1 1 2
M  V30 2 1 2 3
M  V30 3 2 3 4
M  V30 4 1 4 5
M  V30 5 1 5 6
M  V30 6 1 6 7
M  V30 7 2 7 8
M  V30 8 1 8 9
M  V30 9 2 9 10
M  V30 10 1 10 11
M  V30 11 1 11 12
M  V30 12 1 12 13
M  V30 13 1 13 14
M  V30 14 1 14 15
M  V30 15 1 15 16
M  V30 16 1 13 17
M  V30 17 1 10 18
M  V30 18 1 18 19
M  V30 19 2 19 20
M  V30 20 1 20 21
M  V30 21 2 5 22
M  V30 22 1 22 23
M  V30 23 2 23 24
M  V30 24 1 24 25
M  V30 25 1 24 3
M  V30 26 2 21 6
M  V30 27 1 20 9
M  V30 28 1 17 11
M  V30 29 1 16 13
M  V30 30 1 1 26
M  V30 31 1 1 27
M  V30 32 1 1 28
M  V30 33 1 4 29
M  V30 34 1 7 30
M  V30 35 1 12 31
M  V30 36 1 12 32
M  V30 37 1 14 33
M  V30 38 1 14 34
M  V30 39 1 16 35
M  V30 40 1 16 36
M  V30 41 1 17 37
M  V30 42 1 17 38
M  V30 43 1 21 39
M  V30 44 1 22 40
M  V30 45 1 23 41
M  V30 46 1 25 42
M  V30 47 1 25 43
M  V30 END BOND
M  V30 END CTAB
M  END
>  <Dataset>  (857) 
ChEMBL_Kinases

>  <Ligand_Instance>  (857) 
nan

>  <PDB_ID>  (857) 
nan

>  <Standardized_SMILES>  (857) 
COc1cc(-c2cnc3c(N4CC5(COC5)C4)snc3c2)ccc1N

>  <Name>  (857) 
nan

>  <Pocket>  (857) 
nan

>  <ATP_Site>  (857) 
nan

>  <Peripheral>  (857) 
nan

>  <Num_H_Atoms_ProtBoundConf>  (857) 
nan

>  <Num_Resolved_Atoms>  (857) 
nan

>  <Num_Not_Resolved_Atoms>  (857) 
nan

$$$$
CHEMBL4175006
     RDKit          3D

  0  0  0  0  0  0  0  0  0  0999 V3000
M  V30 BEGIN CTAB
M  V30 COUNTS 37 40 0 0 0
M  V30 BEGIN ATOM
M  V30 1 C -2.318462 -2.638963 5.114381 0
M  V30 2 O -1.526141 -3.619311 4.425394 0
M  V30 3 C -0.825461 -3.242664 3.287577 0
M  V30 4 C -0.096784 -4.258563 2.702515 0
M  V30 5 C 0.643062 -4.006313 1.562929 0
M  V30 6 C 0.597026 -2.711787 1.077019 0
M  V30 7 C -0.122282 -1.671185 1.638506 0
M  V30 8 C -0.858417 -1.956559 2.786988 0
M  V30 9 N 0.059406 -0.550482 0.908719 0
M  V30 10 C 0.885547 -0.868593 -0.108873 0
M  V30 11 C 1.383256 -0.088607 -1.134820 0
M  V30 12 N 1.082173 1.295666 -1.302946 0
M  V30 13 C 1.383015 2.343160 -0.315855 0
M  V30 14 C 0.284063 3.353007 -0.442096 0
M  V30 15 C -0.339928 3.115870 -1.775831 0
M  V30 16 C 0.450682 2.005466 -2.394768 0
M  V30 17 N 2.201103 -0.610282 -2.054321 0
M  V30 18 C 2.577927 -1.905414 -2.029744 0
M  V30 19 C 2.082810 -2.685090 -1.007545 0
M  V30 20 C 1.240986 -2.201878 -0.038242 0
M  V30 21 H -1.749806 -1.723533 5.327386 0
M  V30 22 H -2.842062 -3.068939 5.965625 0
M  V30 23 H -3.121140 -2.350155 4.378090 0
M  V30 24 H -0.064355 -5.269102 3.086713 0
M  V30 25 H 1.234156 -4.761134 1.058903 0
M  V30 26 H -1.441197 -1.193510 3.275922 0
M  V30 27 H -0.364133 0.389155 1.100404 0
M  V30 28 H 2.361659 2.763438 -0.624881 0
M  V30 29 H 1.486415 1.926669 0.699118 0
M  V30 30 H 0.758137 4.357186 -0.318543 0
M  V30 31 H -0.434735 3.160581 0.397913 0
M  V30 32 H -0.228699 4.064318 -2.378708 0
M  V30 33 H -1.431277 2.909052 -1.685057 0
M  V30 34 H 1.250717 2.477663 -3.024136 0
M  V30 35 H -0.186784 1.326220 -3.010015 0
M  V30 36 H 3.240815 -2.330637 -2.774010 0
M  V30 37 H 2.346354 -3.731173 -0.930738 0
M  V30 END ATOM
M  V30 BEGIN BOND
M  V30 1 1 1 2
M  V30 2 1 2 3
M  V30 3 2 3 4
M  V30 4 1 4 5
M  V30 5 2 5 6
M  V30 6 1 6 7
M  V30 7 2 7 8
M  V30 8 1 7 9
M  V30 9 1 9 10
M  V30 10 2 10 11
M  V30 11 1 11 12
M  V30 12 1 12 13
M  V30 13 1 13 14
M  V30 14 1 14 15
M  V30 15 1 15 16
M  V30 16 1 11 17
M  V30 17 2 17 18
M  V30 18 1 18 19
M  V30 19 2 19 20
M  V30 20 1 8 3
M  V30 21 1 20 10
M  V30 22 1 20 6
M  V30 23 1 16 12
M  V30 24 1 1 21
M  V30 25 1 1 22
M  V30 26 1 1 23
M  V30 27 1 4 24
M  V30 28 1 5 25
M  V30 29 1 8 26
M  V30 30 1 9 27
M  V30 31 1 13 28
M  V30 32 1 13 29
M  V30 33 1 14 30
M  V30 34 1 14 31
M  V30 35 1 15 32
M  V30 36 1 15 33
M  V30 37 1 16 34
M  V30 38 1 16 35
M  V30 39 1 18 36
M  V30 40 1 19 37
M  V30 END BOND
M  V30 END CTAB
M  END
>  <Dataset>  (858) 
ChEMBL_Kinases

>  <Ligand_Instance>  (858) 
nan

>  <PDB_ID>  (858) 
nan

>  <Standardized_SMILES>  (858) 
COc1ccc2c(c1)[nH]c1c(N3CCCC3)nccc12

>  <Name>  (858) 
nan

>  <Pocket>  (858) 
nan

>  <ATP_Site>  (858) 
nan

>  <Peripheral>  (858) 
nan

>  <Num_H_Atoms_ProtBoundConf>  (858) 
nan

>  <Num_Resolved_Atoms>  (858) 
nan

>  <Num_Not_Resolved_Atoms>  (858) 
nan

$$$$
CHEMBL4174950
     RDKit          3D

  0  0  0  0  0  0  0  0  0  0999 V3000
M  V30 BEGIN CTAB
M  V30 COUNTS 61 65 0 0 0
M  V30 BEGIN ATOM
M  V30 1 C 1.652219 0.239025 5.509038 0
M  V30 2 N 2.926486 0.820735 5.142476 0
M  V30 3 C 3.950455 0.263963 6.034051 0
M  V30 4 C 3.335603 0.510848 3.795865 0
M  V30 5 C 4.647224 1.097337 3.389393 0
M  V30 6 C 4.534226 2.415487 2.654468 0
M  V30 7 C 3.725740 2.302914 1.392109 0
M  V30 8 C 2.995642 0.979514 1.445323 0
M  V30 9 C 2.119060 0.746550 0.274749 0
M  V30 10 O 2.258231 -0.237227 -0.524292 0
M  V30 11 N 1.030010 1.593799 -0.082870 0
M  V30 12 C 0.374067 1.115862 -1.251768 0
M  V30 13 C 0.690463 1.462267 -2.548042 0
M  V30 14 C 0.036064 0.980528 -3.646507 0
M  V30 15 C -1.004348 0.090776 -3.396003 0
M  V30 16 N -1.790838 -0.512455 -4.322272 0
M  V30 17 N -2.626731 -1.258403 -3.620409 0
M  V30 18 C -2.421271 -1.167182 -2.310460 0
M  V30 19 N -3.083442 -1.791546 -1.220322 0
M  V30 20 C -4.158403 -2.718478 -1.212562 0
M  V30 21 C -5.357659 -2.384216 -0.581046 0
M  V30 22 C -6.470448 -3.202529 -0.506696 0
M  V30 23 C -6.385510 -4.442597 -1.102858 0
M  V30 24 C -5.225996 -4.829819 -1.742210 0
M  V30 25 C -5.108257 -6.076801 -2.351149 0
M  V30 26 C -3.933998 -6.475705 -2.997992 0
M  V30 27 C -2.840982 -5.603026 -3.039262 0
M  V30 28 C -3.013046 -4.376962 -2.418253 0
M  V30 29 C -4.153173 -3.969433 -1.781406 0
M  V30 30 C -1.375560 -0.299859 -2.128058 0
M  V30 31 C -0.677617 0.218511 -1.032700 0
M  V30 32 C 2.295778 0.907600 2.769238 0
M  V30 33 H 1.422939 -0.707792 5.013525 0
M  V30 34 H 1.701571 0.018834 6.599226 0
M  V30 35 H 0.855971 1.009919 5.394314 0
M  V30 36 H 4.657408 1.089681 6.256853 0
M  V30 37 H 4.551588 -0.517692 5.495270 0
M  V30 38 H 3.511631 -0.152520 6.963276 0
M  V30 39 H 3.439599 -0.603763 3.689335 0
M  V30 40 H 5.272164 1.316532 4.293862 0
M  V30 41 H 5.281544 0.428385 2.765613 0
M  V30 42 H 5.576841 2.702905 2.390787 0
M  V30 43 H 4.163602 3.172117 3.352637 0
M  V30 44 H 4.382448 2.354914 0.512280 0
M  V30 45 H 3.016426 3.145966 1.347621 0
M  V30 46 H 3.771507 0.184701 1.413491 0
M  V30 47 H 0.830292 2.432981 0.511558 0
M  V30 48 H 1.506414 2.155888 -2.676106 0
M  V30 49 H 0.316030 1.277768 -4.642820 0
M  V30 50 H -1.740208 -0.404980 -5.367114 0
M  V30 51 H -2.844743 -1.634737 -0.233294 0
M  V30 52 H -5.466092 -1.410030 -0.095587 0
M  V30 53 H -7.366143 -2.872488 0.001394 0
M  V30 54 H -7.223352 -5.142610 -1.085447 0
M  V30 55 H -5.955366 -6.775382 -2.329239 0
M  V30 56 H -3.897674 -7.462104 -3.457034 0
M  V30 57 H -1.932324 -5.904269 -3.536242 0
M  V30 58 H -2.139927 -3.742481 -2.475091 0
M  V30 59 H -1.012410 -0.122719 -0.065950 0
M  V30 60 H 1.478306 0.180708 2.826701 0
M  V30 61 H 1.870155 1.922175 2.982043 0
M  V30 END ATOM
M  V30 BEGIN BOND
M  V30 1 1 1 2
M  V30 2 1 2 3
M  V30 3 1 2 4
M  V30 4 1 4 5
M  V30 5 1 5 6
M  V30 6 1 6 7
M  V30 7 1 7 8
M  V30 8 1 8 9
M  V30 9 2 9 10
M  V30 10 1 9 11
M  V30 11 1 11 12
M  V30 12 2 12 13
M  V30 13 1 13 14
M  V30 14 2 14 15
M  V30 15 1 15 16
M  V30 16 1 16 17
M  V30 17 2 17 18
M  V30 18 1 18 19
M  V30 19 1 19 20
M  V30 20 2 20 21
M  V30 21 1 21 22
M  V30 22 2 22 23
M  V30 23 1 23 24
M  V30 24 2 24 25
M  V30 25 1 25 26
M  V30 26 2 26 27
M  V30 27 1 27 28
M  V30 28 2 28 29
M  V30 29 1 18 30
M  V30 30 2 30 31
M  V30 31 1 8 32
M  V30 32 1 32 4
M  V30 33 1 31 12
M  V30 34 1 30 15
M  V30 35 1 29 20
M  V30 36 1 29 24
M  V30 37 1 1 33
M  V30 38 1 1 34
M  V30 39 1 1 35
M  V30 40 1 3 36
M  V30 41 1 3 37
M  V30 42 1 3 38
M  V30 43 1 4 39
M  V30 44 1 5 40
M  V30 45 1 5 41
M  V30 46 1 6 42
M  V30 47 1 6 43
M  V30 48 1 7 44
M  V30 49 1 7 45
M  V30 50 1 8 46
M  V30 51 1 11 47
M  V30 52 1 13 48
M  V30 53 1 14 49
M  V30 54 1 16 50
M  V30 55 1 19 51
M  V30 56 1 21 52
M  V30 57 1 22 53
M  V30 58 1 23 54
M  V30 59 1 25 55
M  V30 60 1 26 56
M  V30 61 1 27 57
M  V30 62 1 28 58
M  V30 63 1 31 59
M  V30 64 1 32 60
M  V30 65 1 32 61
M  V30 END BOND
M  V30 END CTAB
M  END
>  <Dataset>  (859) 
ChEMBL_Kinases

>  <Ligand_Instance>  (859) 
nan

>  <PDB_ID>  (859) 
nan

>  <Standardized_SMILES>  (859) 
CN(C)C1CCCC(C(=O)Nc2ccc3[nH]nc(Nc4cccc5ccccc45)c3c2)C1

>  <Name>  (859) 
nan

>  <Pocket>  (859) 
nan

>  <ATP_Site>  (859) 
nan

>  <Peripheral>  (859) 
nan

>  <Num_H_Atoms_ProtBoundConf>  (859) 
nan

>  <Num_Resolved_Atoms>  (859) 
nan

>  <Num_Not_Resolved_Atoms>  (859) 
nan

$$$$
CHEMBL4174941
     RDKit          3D

  0  0  0  0  0  0  0  0  0  0999 V3000
M  V30 BEGIN CTAB
M  V30 COUNTS 29 30 0 0 0
M  V30 BEGIN ATOM
M  V30 1 C -2.108890 -1.692600 1.639083 0
M  V30 2 N -0.696798 -1.278207 1.658491 0
M  V30 3 C -0.438607 -0.324799 2.715853 0
M  V30 4 C 0.126205 -1.914697 0.693223 0
M  V30 5 C -0.242107 -3.137740 0.182037 0
M  V30 6 C 0.546890 -3.845413 -0.689406 0
M  V30 7 C 1.768049 -3.363037 -1.105699 0
M  V30 8 C 2.168198 -2.137827 -0.613876 0
M  V30 9 C 1.344023 -1.459760 0.258292 0
M  V30 10 C 1.846486 -0.147094 0.619987 0
M  V30 11 C 1.178780 0.968858 0.412982 0
M  V30 12 S -0.432755 1.379646 -0.307710 0
M  V30 13 C -0.624082 2.910700 0.648395 0
M  V30 14 O -1.662106 3.502193 0.999920 0
M  V30 15 N 0.731085 3.282313 0.905877 0
M  V30 16 C 1.714634 2.284375 0.792038 0
M  V30 17 O 2.942087 2.522101 1.001689 0
M  V30 18 H -2.404851 -1.968732 0.584132 0
M  V30 19 H -2.276385 -2.534128 2.324213 0
M  V30 20 H -2.774983 -0.859249 1.923461 0
M  V30 21 H 0.634831 -0.189252 2.953492 0
M  V30 22 H -0.938296 -0.708551 3.650178 0
M  V30 23 H -0.907720 0.647680 2.503659 0
M  V30 24 H -1.193019 -3.598235 0.456514 0
M  V30 25 H 0.206685 -4.816138 -1.067251 0
M  V30 26 H 2.340945 -3.970542 -1.791997 0
M  V30 27 H 3.128862 -1.773082 -0.950240 0
M  V30 28 H 2.822793 -0.127812 1.080393 0
M  V30 29 H 0.922940 4.296629 1.170965 0
M  V30 END ATOM
M  V30 BEGIN BOND
M  V30 1 1 1 2
M  V30 2 1 2 3
M  V30 3 1 2 4
M  V30 4 2 4 5
M  V30 5 1 5 6
M  V30 6 2 6 7
M  V30 7 1 7 8
M  V30 8 2 8 9
M  V30 9 1 9 10
M  V30 10 2 10 11
M  V30 11 1 11 12
M  V30 12 1 12 13
M  V30 13 2 13 14
M  V30 14 1 13 15
M  V30 15 1 15 16
M  V30 16 2 16 17
M  V30 17 1 9 4
M  V30 18 1 16 11
M  V30 19 1 1 18
M  V30 20 1 1 19
M  V30 21 1 1 20
M  V30 22 1 3 21
M  V30 23 1 3 22
M  V30 24 1 3 23
M  V30 25 1 5 24
M  V30 26 1 6 25
M  V30 27 1 7 26
M  V30 28 1 8 27
M  V30 29 1 10 28
M  V30 30 1 15 29
M  V30 END BOND
M  V30 END CTAB
M  END
>  <Dataset>  (860) 
ChEMBL_Kinases

>  <Ligand_Instance>  (860) 
nan

>  <PDB_ID>  (860) 
nan

>  <Standardized_SMILES>  (860) 
CN(C)c1ccccc1/C=C1\SC(=O)NC1=O

>  <Name>  (860) 
nan

>  <Pocket>  (860) 
nan

>  <ATP_Site>  (860) 
nan

>  <Peripheral>  (860) 
nan

>  <Num_H_Atoms_ProtBoundConf>  (860) 
nan

>  <Num_Resolved_Atoms>  (860) 
nan

>  <Num_Not_Resolved_Atoms>  (860) 
nan

$$$$
CHEMBL4785237
     RDKit          3D

  0  0  0  0  0  0  0  0  0  0999 V3000
M  V30 BEGIN CTAB
M  V30 COUNTS 54 58 0 0 0
M  V30 BEGIN ATOM
M  V30 1 C 0.649426 2.606535 5.158488 0
M  V30 2 O 1.448995 2.234381 4.064962 0
M  V30 3 C 2.356628 1.205114 4.038853 0
M  V30 4 C 2.487617 0.464760 5.220241 0
M  V30 5 C 3.375793 -0.587886 5.285700 0
M  V30 6 C 4.147805 -0.932143 4.199681 0
M  V30 7 C 4.022093 -0.205587 3.033780 0
M  V30 8 F 4.713315 -0.425099 1.883736 0
M  V30 9 C 3.137213 0.851518 2.951821 0
M  V30 10 C 2.946859 1.669373 1.751679 0
M  V30 11 C 1.988448 1.273209 0.836776 0
M  V30 12 C 1.774808 2.018809 -0.314486 0
M  V30 13 C 2.509303 3.156586 -0.560948 0
M  V30 14 C 3.467531 3.525867 0.384237 0
M  V30 15 N 3.670191 2.792713 1.505723 0
M  V30 16 C 2.040725 3.624809 -1.760205 0
M  V30 17 N 1.075369 2.777946 -2.173023 0
M  V30 18 N 0.895083 1.799710 -1.318495 0
M  V30 19 C -0.045209 0.737431 -1.450827 0
M  V30 20 C -0.291287 0.124782 -2.664255 0
M  V30 21 C -1.203515 -0.907416 -2.798720 0
M  V30 22 C -1.905732 -1.360391 -1.699056 0
M  V30 23 N -2.872514 -2.402640 -1.660005 0
M  V30 24 C -3.568920 -2.813985 -0.435596 0
M  V30 25 C -4.282136 -4.100281 -0.674125 0
M  V30 26 N -3.581756 -5.084485 -1.424798 0
M  V30 27 C -3.032543 -6.171732 -0.676701 0
M  V30 28 C -2.774870 -4.591630 -2.489940 0
M  V30 29 C -3.287237 -3.181867 -2.813887 0
M  V30 30 C -1.643032 -0.732853 -0.496959 0
M  V30 31 N -0.752759 0.270531 -0.379735 0
M  V30 32 H -0.074899 3.369838 4.779409 0
M  V30 33 H 0.036727 1.735329 5.519469 0
M  V30 34 H 1.219498 3.066311 5.983309 0
M  V30 35 H 1.939585 0.630736 6.148188 0
M  V30 36 H 3.532756 -1.207099 6.164784 0
M  V30 37 H 4.879019 -1.723094 4.102054 0
M  V30 38 H 1.406673 0.366615 1.038126 0
M  V30 39 H 4.044552 4.427073 0.182263 0
M  V30 40 H 2.419988 4.521411 -2.238589 0
M  V30 41 H 0.237605 0.448281 -3.554691 0
M  V30 42 H -1.427967 -1.415548 -3.727003 0
M  V30 43 H -2.898302 -2.853873 0.430804 0
M  V30 44 H -4.332617 -2.031649 -0.191048 0
M  V30 45 H -4.465649 -4.548173 0.344433 0
M  V30 46 H -5.312297 -3.881941 -1.052082 0
M  V30 47 H -2.175902 -6.601471 -1.214876 0
M  V30 48 H -2.773993 -5.787824 0.340704 0
M  V30 49 H -3.851352 -6.936588 -0.542903 0
M  V30 50 H -2.821601 -5.193616 -3.414587 0
M  V30 51 H -1.729602 -4.498893 -2.127061 0
M  V30 52 H -4.409446 -3.300692 -2.799627 0
M  V30 53 H -2.925496 -2.799673 -3.765383 0
M  V30 54 H -2.092014 -0.944993 0.479089 0
M  V30 END ATOM
M  V30 BEGIN BOND
M  V30 1 1 1 2
M  V30 2 1 2 3
M  V30 3 2 3 4
M  V30 4 1 4 5
M  V30 5 2 5 6
M  V30 6 1 6 7
M  V30 7 1 7 8
M  V30 8 2 7 9
M  V30 9 1 9 10
M  V30 10 2 10 11
M  V30 11 1 11 12
M  V30 12 2 12 13
M  V30 13 1 13 14
M  V30 14 2 14 15
M  V30 15 1 13 16
M  V30 16 2 16 17
M  V30 17 1 17 18
M  V30 18 1 18 19
M  V30 19 2 19 20
M  V30 20 1 20 21
M  V30 21 2 21 22
M  V30 22 1 22 23
M  V30 23 1 23 24
M  V30 24 1 24 25
M  V30 25 1 25 26
M  V30 26 1 26 27
M  V30 27 1 26 28
M  V30 28 1 28 29
M  V30 29 1 22 30
M  V30 30 2 30 31
M  V30 31 1 9 3
M  V30 32 1 15 10
M  V30 33 1 31 19
M  V30 34 1 18 12
M  V30 35 1 29 23
M  V30 36 1 1 32
M  V30 37 1 1 33
M  V30 38 1 1 34
M  V30 39 1 4 35
M  V30 40 1 5 36
M  V30 41 1 6 37
M  V30 42 1 11 38
M  V30 43 1 14 39
M  V30 44 1 16 40
M  V30 45 1 20 41
M  V30 46 1 21 42
M  V30 47 1 24 43
M  V30 48 1 24 44
M  V30 49 1 25 45
M  V30 50 1 25 46
M  V30 51 1 27 47
M  V30 52 1 27 48
M  V30 53 1 27 49
M  V30 54 1 28 50
M  V30 55 1 28 51
M  V30 56 1 29 52
M  V30 57 1 29 53
M  V30 58 1 30 54
M  V30 END BOND
M  V30 END CTAB
M  END
>  <Dataset>  (861) 
ChEMBL_Kinases

>  <Ligand_Instance>  (861) 
nan

>  <PDB_ID>  (861) 
nan

>  <Standardized_SMILES>  (861) 
COc1cccc(F)c1-c1cc2c(cn1)cnn2-c1ccc(N2CCN(C)CC2)cn1

>  <Name>  (861) 
nan

>  <Pocket>  (861) 
nan

>  <ATP_Site>  (861) 
nan

>  <Peripheral>  (861) 
nan

>  <Num_H_Atoms_ProtBoundConf>  (861) 
nan

>  <Num_Resolved_Atoms>  (861) 
nan

>  <Num_Not_Resolved_Atoms>  (861) 
nan

$$$$
CHEMBL4785242
     RDKit          3D

  0  0  0  0  0  0  0  0  0  0999 V3000
M  V30 BEGIN CTAB
M  V30 COUNTS 61 64 0 0 0
M  V30 BEGIN ATOM
M  V30 1 C 2.316249 -4.534711 3.887176 0
M  V30 2 C 3.300106 -3.919152 2.956848 0
M  V30 3 O 4.212638 -4.676181 2.521038 0
M  V30 4 N 3.204878 -2.531389 2.581433 0
M  V30 5 C 4.163984 -1.912496 1.668449 0 CFG=2
M  V30 6 C 4.944782 -0.911871 2.442687 0
M  V30 7 C 5.556063 0.052904 1.417535 0
M  V30 8 C 4.350747 0.912051 1.014347 0
M  V30 9 C 3.374250 0.072430 0.285236 0 CFG=2
M  V30 10 C 1.957410 0.451060 0.649215 0
M  V30 11 O 1.147315 -0.360823 1.170136 0
M  V30 12 N 1.399557 1.753480 0.441693 0
M  V30 13 C 0.063262 1.783441 0.884489 0
M  V30 14 C -1.026123 1.487947 0.103958 0
M  V30 15 C -2.265243 1.572813 0.718334 0
M  V30 16 C -3.451409 1.267099 -0.074358 0
M  V30 17 C -4.648751 1.951799 -0.147944 0
M  V30 18 N -5.502659 1.336391 -1.007755 0
M  V30 19 N -4.850488 0.274490 -1.471624 0
M  V30 20 C -3.621815 0.185341 -0.947383 0
M  V30 21 C -2.646392 -0.878507 -1.257621 0
M  V30 22 C -3.380907 -2.086131 -1.784642 0
M  V30 23 C -2.329255 -2.938288 -2.506968 0
M  V30 24 C -3.922135 -2.883579 -0.616209 0
M  V30 25 C -4.422714 -1.744559 -2.801428 0
M  V30 26 C -5.382731 -0.674899 -2.421412 0
M  V30 27 C -2.343342 1.940410 2.049688 0
M  V30 28 C -1.235347 2.235704 2.824819 0
M  V30 29 N -0.058465 2.139380 2.185211 0
M  V30 30 C 3.471989 -1.406058 0.460804 0
M  V30 31 H 1.754683 -3.731978 4.411273 0
M  V30 32 H 1.603309 -5.128058 3.251767 0
M  V30 33 H 2.772760 -5.197541 4.635924 0
M  V30 34 H 2.410878 -2.000301 3.001687 0
M  V30 35 H 4.865945 -2.760876 1.418778 0
M  V30 36 H 4.334152 -0.275812 3.122585 0
M  V30 37 H 5.752982 -1.420323 3.003661 0
M  V30 38 H 6.337698 0.679729 1.858061 0
M  V30 39 H 5.853650 -0.512762 0.519961 0
M  V30 40 H 3.973326 1.300128 1.993670 0
M  V30 41 H 4.742966 1.734029 0.401713 0
M  V30 42 H 3.434475 0.339399 -0.792056 0
M  V30 43 H 2.048450 2.474085 0.003039 0
M  V30 44 H -0.862487 1.215033 -0.911060 0
M  V30 45 H -4.863803 2.868861 0.419697 0
M  V30 46 H -1.942998 -0.582629 -2.085511 0
M  V30 47 H -2.090567 -1.217943 -0.363540 0
M  V30 48 H -2.140577 -2.452980 -3.492665 0
M  V30 49 H -1.397412 -3.014499 -1.915273 0
M  V30 50 H -2.824201 -3.902488 -2.715348 0
M  V30 51 H -4.983075 -2.675910 -0.407265 0
M  V30 52 H -3.733737 -3.976767 -0.776393 0
M  V30 53 H -3.341633 -2.628152 0.314544 0
M  V30 54 H -4.983113 -2.700448 -2.993073 0
M  V30 55 H -3.918120 -1.522628 -3.772219 0
M  V30 56 H -6.277648 -1.132717 -1.907238 0
M  V30 57 H -5.787483 -0.205512 -3.342261 0
M  V30 58 H -3.331117 1.999120 2.507542 0
M  V30 59 H -1.294358 2.523036 3.864918 0
M  V30 60 H 2.475125 -1.897799 0.394260 0
M  V30 61 H 4.008656 -1.814009 -0.439500 0
M  V30 END ATOM
M  V30 BEGIN BOND
M  V30 1 1 1 2
M  V30 2 2 2 3
M  V30 3 1 2 4
M  V30 4 1 4 5
M  V30 5 1 5 6
M  V30 6 1 6 7
M  V30 7 1 7 8
M  V30 8 1 8 9
M  V30 9 1 9 10
M  V30 10 2 10 11
M  V30 11 1 10 12
M  V30 12 1 12 13
M  V30 13 2 13 14
M  V30 14 1 14 15
M  V30 15 1 15 16
M  V30 16 1 16 17
M  V30 17 2 17 18
M  V30 18 1 18 19
M  V30 19 1 19 20
M  V30 20 1 20 21
M  V30 21 1 21 22
M  V30 22 1 22 23
M  V30 23 1 22 24
M  V30 24 1 22 25
M  V30 25 1 25 26
M  V30 26 2 15 27
M  V30 27 1 27 28
M  V30 28 2 28 29
M  V30 29 1 9 30
M  V30 30 1 30 5
M  V30 31 1 29 13
M  V30 32 2 20 16
M  V30 33 1 26 19
M  V30 34 1 1 31
M  V30 35 1 1 32
M  V30 36 1 1 33
M  V30 37 1 4 34
M  V30 38 1 5 35 CFG=3
M  V30 39 1 6 36
M  V30 40 1 6 37
M  V30 41 1 7 38
M  V30 42 1 7 39
M  V30 43 1 8 40
M  V30 44 1 8 41
M  V30 45 1 9 42 CFG=3
M  V30 46 1 12 43
M  V30 47 1 14 44
M  V30 48 1 17 45
M  V30 49 1 21 46
M  V30 50 1 21 47
M  V30 51 1 23 48
M  V30 52 1 23 49
M  V30 53 1 23 50
M  V30 54 1 24 51
M  V30 55 1 24 52
M  V30 56 1 24 53
M  V30 57 1 25 54
M  V30 58 1 25 55
M  V30 59 1 26 56
M  V30 60 1 26 57
M  V30 61 1 27 58
M  V30 62 1 28 59
M  V30 63 1 30 60
M  V30 64 1 30 61
M  V30 END BOND
M  V30 END CTAB
M  END
>  <Dataset>  (862) 
ChEMBL_Kinases

>  <Ligand_Instance>  (862) 
nan

>  <PDB_ID>  (862) 
nan

>  <Standardized_SMILES>  (862) 
CC(=O)N[C@@H]1CCC[C@H](C(=O)Nc2cc(-c3cnn4c3CC(C)(C)CC4)ccn2)C1

>  <Name>  (862) 
nan

>  <Pocket>  (862) 
nan

>  <ATP_Site>  (862) 
nan

>  <Peripheral>  (862) 
nan

>  <Num_H_Atoms_ProtBoundConf>  (862) 
nan

>  <Num_Resolved_Atoms>  (862) 
nan

>  <Num_Not_Resolved_Atoms>  (862) 
nan

$$$$
CHEMBL4785254
     RDKit          3D

  0  0  0  0  0  0  0  0  0  0999 V3000
M  V30 BEGIN CTAB
M  V30 COUNTS 48 51 0 0 0
M  V30 BEGIN ATOM
M  V30 1 O 0.615988 -4.066257 -1.933755 0
M  V30 2 C 0.213787 -3.848039 -0.741960 0
M  V30 3 N 0.156324 -2.459478 -0.430543 0
M  V30 4 C 0.511648 -1.399241 -1.353164 0
M  V30 5 C 0.347346 -0.029545 -0.733129 0
M  V30 6 C 1.209724 0.159827 0.490009 0
M  V30 7 N 1.028116 1.491218 1.064554 0
M  V30 8 C 1.788771 2.527470 0.679602 0
M  V30 9 O 2.684022 2.334507 -0.205286 0
M  V30 10 C 1.556492 3.743313 1.265570 0
M  V30 11 C 2.331157 4.837672 0.885459 0
M  V30 12 C 2.077236 6.069413 1.496253 0
M  V30 13 F 2.846974 7.098876 1.100845 0
M  V30 14 C 1.100200 6.257792 2.455189 0
M  V30 15 C 0.340079 5.148340 2.817271 0
M  V30 16 C 0.587297 3.937799 2.219144 0
M  V30 17 N -0.126552 2.882061 2.554959 0
M  V30 18 C -1.127622 2.708497 3.425426 0
M  V30 19 S -1.895288 3.716005 4.441623 0
M  V30 20 N -1.535163 1.429222 3.410328 0
M  V30 21 N -0.799401 0.763655 2.528095 0
M  V30 22 C 0.065910 1.671533 2.007348 0
M  V30 23 C -0.179679 -4.829297 0.299724 0
M  V30 24 C -0.031755 -6.214887 -0.274423 0
M  V30 25 C -1.225283 -6.449655 -1.184585 0
M  V30 26 O -2.336537 -6.573661 -0.321283 0
M  V30 27 C -2.652691 -5.290319 0.100718 0
M  V30 28 C -1.548270 -4.621009 0.846646 0
M  V30 29 H -0.164247 -2.185122 0.529815 0
M  V30 30 H 1.566855 -1.515315 -1.686817 0
M  V30 31 H -0.180849 -1.475424 -2.196664 0
M  V30 32 H 0.657542 0.694633 -1.528912 0
M  V30 33 H -0.717935 0.178097 -0.527610 0
M  V30 34 H 2.268753 0.019847 0.187943 0
M  V30 35 H 0.925538 -0.610714 1.234796 0
M  V30 36 H 3.096294 4.739619 0.149613 0
M  V30 37 H 0.952127 7.246336 2.893989 0
M  V30 38 H -0.394273 5.373535 3.563585 0
M  V30 39 H -2.260171 0.875224 3.909816 0
M  V30 40 H 0.566602 -4.767456 1.138203 0
M  V30 41 H 0.868071 -6.232276 -0.931262 0
M  V30 42 H -0.005695 -6.997333 0.501877 0
M  V30 43 H -1.371356 -5.499703 -1.742907 0
M  V30 44 H -1.108571 -7.341124 -1.831105 0
M  V30 45 H -3.518681 -5.404558 0.804233 0
M  V30 46 H -3.066173 -4.673544 -0.735500 0
M  V30 47 H -1.821551 -3.552361 0.955492 0
M  V30 48 H -1.551085 -5.035388 1.895506 0
M  V30 END ATOM
M  V30 BEGIN BOND
M  V30 1 2 1 2
M  V30 2 1 2 3
M  V30 3 1 3 4
M  V30 4 1 4 5
M  V30 5 1 5 6
M  V30 6 1 6 7
M  V30 7 1 7 8
M  V30 8 2 8 9
M  V30 9 1 8 10
M  V30 10 2 10 11
M  V30 11 1 11 12
M  V30 12 1 12 13
M  V30 13 2 12 14
M  V30 14 1 14 15
M  V30 15 2 15 16
M  V30 16 1 16 17
M  V30 17 1 17 18
M  V30 18 2 18 19
M  V30 19 1 18 20
M  V30 20 1 20 21
M  V30 21 2 21 22
M  V30 22 1 2 23
M  V30 23 1 23 24
M  V30 24 1 24 25
M  V30 25 1 25 26
M  V30 26 1 26 27
M  V30 27 1 27 28
M  V30 28 1 22 7
M  V30 29 1 28 23
M  V30 30 1 16 10
M  V30 31 1 22 17
M  V30 32 1 3 29
M  V30 33 1 4 30
M  V30 34 1 4 31
M  V30 35 1 5 32
M  V30 36 1 5 33
M  V30 37 1 6 34
M  V30 38 1 6 35
M  V30 39 1 11 36
M  V30 40 1 14 37
M  V30 41 1 15 38
M  V30 42 1 20 39
M  V30 43 1 23 40
M  V30 44 1 24 41
M  V30 45 1 24 42
M  V30 46 1 25 43
M  V30 47 1 25 44
M  V30 48 1 27 45
M  V30 49 1 27 46
M  V30 50 1 28 47
M  V30 51 1 28 48
M  V30 END BOND
M  V30 END CTAB
M  END
>  <Dataset>  (863) 
ChEMBL_Kinases

>  <Ligand_Instance>  (863) 
nan

>  <PDB_ID>  (863) 
nan

>  <Standardized_SMILES>  (863) 
O=C(NCCCn1c(=O)c2cc(F)ccc2n2c(=S)[nH]nc12)C1CCOCC1

>  <Name>  (863) 
nan

>  <Pocket>  (863) 
nan

>  <ATP_Site>  (863) 
nan

>  <Peripheral>  (863) 
nan

>  <Num_H_Atoms_ProtBoundConf>  (863) 
nan

>  <Num_Resolved_Atoms>  (863) 
nan

>  <Num_Not_Resolved_Atoms>  (863) 
nan

$$$$
CHEMBL4174632
     RDKit          3D

  0  0  0  0  0  0  0  0  0  0999 V3000
M  V30 BEGIN CTAB
M  V30 COUNTS 57 61 0 0 0
M  V30 BEGIN ATOM
M  V30 1 N 0.616018 -5.597490 2.149369 0
M  V30 2 C 0.963179 -4.609296 1.639107 0
M  V30 3 C 1.407839 -3.403065 1.001534 0
M  V30 4 C 1.712646 -2.292536 1.754291 0
M  V30 5 C 2.135473 -1.138199 1.167993 0
M  V30 6 C 2.286521 -1.006408 -0.224469 0
M  V30 7 C 2.702314 0.103918 -1.053371 0
M  V30 8 C 2.201366 1.275654 -1.302115 0
M  V30 9 C 2.653776 2.376111 -2.131092 0
M  V30 10 O 3.738331 2.404614 -2.755488 0
M  V30 11 N 1.668300 3.395338 -2.106398 0
M  V30 12 C 0.632118 2.906684 -1.267831 0
M  V30 13 C -0.546158 3.550392 -0.959831 0
M  V30 14 C -1.474397 2.939604 -0.144350 0
M  V30 15 C -1.219884 1.661743 0.372692 0
M  V30 16 C -2.273741 1.115001 1.217393 0
M  V30 17 O -3.323319 1.771279 1.418912 0
M  V30 18 N -2.134680 -0.162452 1.823424 0
M  V30 19 C -3.225448 -0.647156 2.646871 0 CFG=2
M  V30 20 C -2.878181 -0.807937 4.097539 0
M  V30 21 O -1.859975 -1.683732 4.366179 0
M  V30 22 C -3.756086 -1.870142 2.022504 0
M  V30 23 C -5.097512 -2.139294 1.841752 0
M  V30 24 C -5.569667 -3.294077 1.253499 0
M  V30 25 C -4.605964 -4.206235 0.836410 0
M  V30 26 C -3.255108 -3.988547 0.992146 0
M  V30 27 C -2.818921 -2.803200 1.594272 0
M  V30 28 C -0.027794 1.073303 0.030221 0
M  V30 29 C 0.910366 1.654975 -0.773568 0
M  V30 30 C 3.940229 -0.303424 -1.753582 0
M  V30 31 N 5.088379 -0.814821 -1.272977 0
M  V30 32 C 5.960944 -1.093668 -2.234887 0
M  V30 33 C 5.348588 -0.744512 -3.420013 0
M  V30 34 N 4.134000 -0.273887 -3.084835 0
M  V30 35 C 1.956062 -2.181526 -0.914574 0
M  V30 36 C 1.519777 -3.387099 -0.370689 0
M  V30 37 H 1.637160 -2.266562 2.831253 0
M  V30 38 H 2.410104 -0.184177 1.648119 0
M  V30 39 H 1.728106 4.302998 -2.613325 0
M  V30 40 H -0.767111 4.527792 -1.341130 0
M  V30 41 H -2.379240 3.479484 0.068644 0
M  V30 42 H -1.296968 -0.772260 1.713953 0
M  V30 43 H -4.079057 0.094752 2.646103 0
M  V30 44 H -2.710911 0.231249 4.505361 0
M  V30 45 H -3.836100 -1.122885 4.591565 0
M  V30 46 H -2.110099 -2.363808 5.032271 0
M  V30 47 H -5.817538 -1.392387 2.185458 0
M  V30 48 H -6.603663 -3.495712 1.117289 0
M  V30 49 H -4.926543 -5.140312 0.362471 0
M  V30 50 H -2.576416 -4.755876 0.636038 0
M  V30 51 H -1.752321 -2.749900 1.660322 0
M  V30 52 H 0.002781 0.118276 0.469596 0
M  V30 53 H 6.937399 -1.511783 -2.026480 0
M  V30 54 H 5.842425 -0.868496 -4.372433 0
M  V30 55 H 3.526976 0.022881 -3.871136 0
M  V30 56 H 2.032881 -2.209689 -2.014519 0
M  V30 57 H 1.290758 -4.237251 -0.994365 0
M  V30 END ATOM
M  V30 BEGIN BOND
M  V30 1 3 1 2
M  V30 2 1 2 3
M  V30 3 2 3 4
M  V30 4 1 4 5
M  V30 5 2 5 6
M  V30 6 1 6 7
M  V30 7 2 7 8
M  V30 8 1 8 9
M  V30 9 2 9 10
M  V30 10 1 9 11
M  V30 11 1 11 12
M  V30 12 2 12 13
M  V30 13 1 13 14
M  V30 14 2 14 15
M  V30 15 1 15 16
M  V30 16 2 16 17
M  V30 17 1 16 18
M  V30 18 1 18 19
M  V30 19 1 19 20
M  V30 20 1 20 21
M  V30 21 1 19 22
M  V30 22 2 22 23
M  V30 23 1 23 24
M  V30 24 2 24 25
M  V30 25 1 25 26
M  V30 26 2 26 27
M  V30 27 1 15 28
M  V30 28 2 28 29
M  V30 29 1 7 30
M  V30 30 2 30 31
M  V30 31 1 31 32
M  V30 32 2 32 33
M  V30 33 1 33 34
M  V30 34 1 6 35
M  V30 35 2 35 36
M  V30 36 1 36 3
M  V30 37 1 29 8
M  V30 38 1 34 30
M  V30 39 1 29 12
M  V30 40 1 27 22
M  V30 41 1 4 37
M  V30 42 1 5 38
M  V30 43 1 11 39
M  V30 44 1 13 40
M  V30 45 1 14 41
M  V30 46 1 18 42
M  V30 47 1 19 43 CFG=1
M  V30 48 1 20 44
M  V30 49 1 20 45
M  V30 50 1 21 46
M  V30 51 1 23 47
M  V30 52 1 24 48
M  V30 53 1 25 49
M  V30 54 1 26 50
M  V30 55 1 27 51
M  V30 56 1 28 52
M  V30 57 1 32 53
M  V30 58 1 33 54
M  V30 59 1 34 55
M  V30 60 1 35 56
M  V30 61 1 36 57
M  V30 END BOND
M  V30 END CTAB
M  END
>  <Dataset>  (864) 
ChEMBL_Kinases

>  <Ligand_Instance>  (864) 
nan

>  <PDB_ID>  (864) 
nan

>  <Standardized_SMILES>  (864) 
N#Cc1ccc(/C(=C2/C(=O)Nc3ccc(C(=O)N[C@H](CO)c4ccccc4)cc32)c2ncc[nH]2)cc1

>  <Name>  (864) 
nan

>  <Pocket>  (864) 
nan

>  <ATP_Site>  (864) 
nan

>  <Peripheral>  (864) 
nan

>  <Num_H_Atoms_ProtBoundConf>  (864) 
nan

>  <Num_Resolved_Atoms>  (864) 
nan

>  <Num_Not_Resolved_Atoms>  (864) 
nan

$$$$
CHEMBL4174578
     RDKit          3D

  0  0  0  0  0  0  0  0  0  0999 V3000
M  V30 BEGIN CTAB
M  V30 COUNTS 37 40 0 0 0
M  V30 BEGIN ATOM
M  V30 1 C 1.119902 -3.351045 3.717359 0
M  V30 2 C 0.714812 -4.548968 4.266313 0
M  V30 3 N -0.270690 -5.278265 3.711374 0
M  V30 4 C -0.884213 -4.832820 2.588777 0
M  V30 5 C -0.542540 -3.632878 1.960253 0
M  V30 6 N -1.210627 -3.186481 0.759870 0
M  V30 7 C -0.585214 -2.044193 0.195039 0
M  V30 8 N -0.788564 -0.706660 0.147448 0
M  V30 9 C 0.084740 0.097520 -0.502872 0
M  V30 10 N -0.152667 1.497526 -0.534290 0
M  V30 11 C 0.830200 2.335508 0.146375 0
M  V30 12 C 0.076028 2.852686 1.377507 0
M  V30 13 O -0.738575 3.855187 0.911312 0
M  V30 14 C -1.600439 3.434919 -0.068912 0
M  V30 15 C -1.100604 2.457215 -1.055647 0
M  V30 16 C 1.199793 -0.439733 -1.129859 0
M  V30 17 N 2.220010 0.074723 -1.832639 0
M  V30 18 C 3.057865 -0.929104 -2.225066 0
M  V30 19 N 2.572263 -2.101903 -1.769232 0
M  V30 20 C 1.420104 -1.803700 -1.089364 0
M  V30 21 N 0.501702 -2.540193 -0.419597 0
M  V30 22 C 0.470711 -2.941885 2.581225 0
M  V30 23 H 1.908712 -2.722186 4.130457 0
M  V30 24 H 1.227255 -4.865865 5.161744 0
M  V30 25 H -1.677058 -5.390833 2.118533 0
M  V30 26 H -2.044028 -3.720428 0.433736 0
M  V30 27 H 1.694239 1.761365 0.533589 0
M  V30 28 H 1.218378 3.150979 -0.461635 0
M  V30 29 H 0.796286 3.194846 2.140594 0
M  V30 30 H -0.555094 2.007585 1.747758 0
M  V30 31 H -1.905711 4.372431 -0.630072 0
M  V30 32 H -2.550826 3.113039 0.427120 0
M  V30 33 H -1.953054 1.917987 -1.511844 0
M  V30 34 H -0.572290 2.984596 -1.905879 0
M  V30 35 H 3.957242 -0.917062 -2.792058 0
M  V30 36 H 2.875536 -3.105141 -1.828936 0
M  V30 37 H 0.784063 -2.005188 2.144489 0
M  V30 END ATOM
M  V30 BEGIN BOND
M  V30 1 2 1 2
M  V30 2 1 2 3
M  V30 3 2 3 4
M  V30 4 1 4 5
M  V30 5 1 5 6
M  V30 6 1 6 7
M  V30 7 2 7 8
M  V30 8 1 8 9
M  V30 9 1 9 10
M  V30 10 1 10 11
M  V30 11 1 11 12
M  V30 12 1 12 13
M  V30 13 1 13 14
M  V30 14 1 14 15
M  V30 15 2 9 16
M  V30 16 1 16 17
M  V30 17 2 17 18
M  V30 18 1 18 19
M  V30 19 1 19 20
M  V30 20 2 20 21
M  V30 21 2 5 22
M  V30 22 1 22 1
M  V30 23 1 21 7
M  V30 24 1 15 10
M  V30 25 1 20 16
M  V30 26 1 1 23
M  V30 27 1 2 24
M  V30 28 1 4 25
M  V30 29 1 6 26
M  V30 30 1 11 27
M  V30 31 1 11 28
M  V30 32 1 12 29
M  V30 33 1 12 30
M  V30 34 1 14 31
M  V30 35 1 14 32
M  V30 36 1 15 33
M  V30 37 1 15 34
M  V30 38 1 18 35
M  V30 39 1 19 36
M  V30 40 1 22 37
M  V30 END BOND
M  V30 END CTAB
M  END
>  <Dataset>  (865) 
ChEMBL_Kinases

>  <Ligand_Instance>  (865) 
nan

>  <PDB_ID>  (865) 
nan

>  <Standardized_SMILES>  (865) 
c1cncc(Nc2nc(N3CCOCC3)c3nc[nH]c3n2)c1

>  <Name>  (865) 
nan

>  <Pocket>  (865) 
nan

>  <ATP_Site>  (865) 
nan

>  <Peripheral>  (865) 
nan

>  <Num_H_Atoms_ProtBoundConf>  (865) 
nan

>  <Num_Resolved_Atoms>  (865) 
nan

>  <Num_Not_Resolved_Atoms>  (865) 
nan

$$$$
CHEMBL4785169
     RDKit          3D

  0  0  0  0  0  0  0  0  0  0999 V3000
M  V30 BEGIN CTAB
M  V30 COUNTS 36 39 0 0 0
M  V30 BEGIN ATOM
M  V30 1 O 0.106531 -2.535746 2.916148 0
M  V30 2 C 0.695040 -1.891649 2.017815 0
M  V30 3 C 1.554582 -2.597138 1.200361 0
M  V30 4 C 1.749225 -3.952392 1.374409 0
M  V30 5 C 2.623578 -4.655397 0.538463 0
M  V30 6 C 3.280552 -3.953929 -0.459087 0
M  V30 7 N 3.078760 -2.631413 -0.614738 0
M  V30 8 C 2.234926 -1.943722 0.189256 0
M  V30 9 N 2.020650 -0.620011 0.048206 0
M  V30 10 C 2.531021 0.283190 -0.833996 0
M  V30 11 S 3.605187 -0.104691 -2.003808 0
M  V30 12 N 1.986740 1.487016 -0.543576 0
M  V30 13 N 1.156281 1.364603 0.487553 0
M  V30 14 C 1.174995 0.065802 0.854943 0
M  V30 15 N 0.500185 -0.562043 1.851718 0
M  V30 16 C -0.421977 0.096083 2.757659 0
M  V30 17 C -1.844071 0.060981 2.181846 0
M  V30 18 C -1.952839 0.731164 0.888013 0
M  V30 19 C -2.249021 2.072535 0.762338 0
M  V30 20 C -2.357511 2.727120 -0.448331 0
M  V30 21 C -2.153055 1.974493 -1.598150 0
M  V30 22 C -1.853069 0.626749 -1.548306 0
M  V30 23 C -1.760702 0.038090 -0.293870 0
M  V30 24 H 1.210161 -4.476654 2.177510 0
M  V30 25 H 2.760079 -5.724674 0.696234 0
M  V30 26 H 3.959207 -4.516032 -1.102982 0
M  V30 27 H 2.230491 2.348882 -1.094099 0
M  V30 28 H -0.424880 -0.396513 3.734932 0
M  V30 29 H -0.113852 1.160299 2.817327 0
M  V30 30 H -2.571959 0.447263 2.916457 0
M  V30 31 H -2.078404 -1.037028 2.101848 0
M  V30 32 H -2.410159 2.665426 1.671016 0
M  V30 33 H -2.590296 3.780154 -0.538374 0
M  V30 34 H -2.232074 2.462521 -2.560187 0
M  V30 35 H -1.702207 0.081716 -2.469987 0
M  V30 36 H -1.528448 -1.001926 -0.279578 0
M  V30 END ATOM
M  V30 BEGIN BOND
M  V30 1 2 1 2
M  V30 2 1 2 3
M  V30 3 2 3 4
M  V30 4 1 4 5
M  V30 5 2 5 6
M  V30 6 1 6 7
M  V30 7 2 7 8
M  V30 8 1 8 9
M  V30 9 1 9 10
M  V30 10 2 10 11
M  V30 11 1 10 12
M  V30 12 1 12 13
M  V30 13 2 13 14
M  V30 14 1 14 15
M  V30 15 1 15 16
M  V30 16 1 16 17
M  V30 17 1 17 18
M  V30 18 2 18 19
M  V30 19 1 19 20
M  V30 20 2 20 21
M  V30 21 1 21 22
M  V30 22 2 22 23
M  V30 23 1 15 2
M  V30 24 1 23 18
M  V30 25 1 8 3
M  V30 26 1 14 9
M  V30 27 1 4 24
M  V30 28 1 5 25
M  V30 29 1 6 26
M  V30 30 1 12 27
M  V30 31 1 16 28
M  V30 32 1 16 29
M  V30 33 1 17 30
M  V30 34 1 17 31
M  V30 35 1 19 32
M  V30 36 1 20 33
M  V30 37 1 21 34
M  V30 38 1 22 35
M  V30 39 1 23 36
M  V30 END BOND
M  V30 END CTAB
M  END
>  <Dataset>  (866) 
ChEMBL_Kinases

>  <Ligand_Instance>  (866) 
nan

>  <PDB_ID>  (866) 
nan

>  <Standardized_SMILES>  (866) 
O=c1c2cccnc2n2c(=S)[nH]nc2n1CCc1ccccc1

>  <Name>  (866) 
nan

>  <Pocket>  (866) 
nan

>  <ATP_Site>  (866) 
nan

>  <Peripheral>  (866) 
nan

>  <Num_H_Atoms_ProtBoundConf>  (866) 
nan

>  <Num_Resolved_Atoms>  (866) 
nan

>  <Num_Not_Resolved_Atoms>  (866) 
nan

$$$$
CHEMBL4171839
     RDKit          3D

  0  0  0  0  0  0  0  0  0  0999 V3000
M  V30 BEGIN CTAB
M  V30 COUNTS 59 63 0 0 0
M  V30 BEGIN ATOM
M  V30 1 C 2.771480 -0.450110 3.111967 0
M  V30 2 C 3.157768 -0.941224 1.785619 0
M  V30 3 C 3.390968 -2.273552 1.529224 0
M  V30 4 C 3.752381 -2.685951 0.246129 0
M  V30 5 C 3.890623 -1.793488 -0.807850 0
M  V30 6 C 3.661377 -0.459539 -0.568566 0
M  V30 7 C 3.298403 -0.042290 0.718788 0
M  V30 8 C 3.098705 1.392500 0.869923 0
M  V30 9 C 1.978685 2.047122 0.754943 0
M  V30 10 C 1.728660 3.466183 0.898460 0
M  V30 11 O 2.551384 4.368145 1.181992 0
M  V30 12 N 0.354482 3.737527 0.666922 0
M  V30 13 C -0.221870 2.470377 0.382436 0
M  V30 14 C -1.565328 2.222234 0.083803 0
M  V30 15 C -1.940153 0.919448 -0.168689 0
M  V30 16 C -1.029998 -0.135318 -0.134879 0
M  V30 17 C -1.458730 -1.501715 -0.408198 0
M  V30 18 O -0.664519 -2.487196 -0.356095 0
M  V30 19 N -2.770247 -1.868232 -0.751675 0
M  V30 20 C -3.197398 -3.210985 -1.021184 0 CFG=2
M  V30 21 C -3.608852 -3.417106 -2.462406 0
M  V30 22 O -4.669495 -2.541406 -2.714993 0
M  V30 23 C -4.239844 -3.697990 -0.082587 0
M  V30 24 C -5.239772 -2.762597 0.138448 0
M  V30 25 C -6.283148 -3.090213 0.996182 0
M  V30 26 C -6.310690 -4.342777 1.617025 0
M  V30 27 C -5.303115 -5.282313 1.392976 0
M  V30 28 C -4.286012 -4.926298 0.539260 0
M  V30 29 C 0.279465 0.173663 0.165230 0
M  V30 30 C 0.701201 1.454732 0.424926 0
M  V30 31 C 4.363695 2.104717 1.160924 0
M  V30 32 N 4.858391 3.265691 0.712821 0
M  V30 33 C 6.053510 3.522841 1.256657 0
M  V30 34 C 6.371593 2.487910 2.105540 0
M  V30 35 N 5.323236 1.655411 2.016134 0
M  V30 36 H 2.360989 0.571023 3.102715 0
M  V30 37 H 1.977157 -1.131784 3.513072 0
M  V30 38 H 3.660611 -0.437683 3.785055 0
M  V30 39 H 3.301797 -3.014060 2.295774 0
M  V30 40 H 3.951673 -3.711464 -0.039210 0
M  V30 41 H 4.168888 -2.081100 -1.812087 0
M  V30 42 H 3.764454 0.248237 -1.377784 0
M  V30 43 H -0.107243 4.665665 0.702700 0
M  V30 44 H -2.291298 3.020099 0.050896 0
M  V30 45 H -2.983524 0.767190 -0.395029 0
M  V30 46 H -3.515277 -1.141744 -0.827306 0
M  V30 47 H -2.309960 -3.865209 -0.877031 0
M  V30 48 H -2.775423 -3.329979 -3.161863 0
M  V30 49 H -4.020959 -4.439742 -2.590737 0
M  V30 50 H -5.045292 -2.652271 -3.614265 0
M  V30 51 H -5.375274 -1.769852 -0.248332 0
M  V30 52 H -7.137790 -2.486443 1.280074 0
M  V30 53 H -7.105383 -4.658035 2.301259 0
M  V30 54 H -5.324825 -6.245950 1.871049 0
M  V30 55 H -3.458432 -5.603439 0.309565 0
M  V30 56 H 0.915669 -0.688905 0.164757 0
M  V30 57 H 6.605654 4.419736 1.011395 0
M  V30 58 H 7.270824 2.404705 2.691550 0
M  V30 59 H 5.344997 0.767870 2.594126 0
M  V30 END ATOM
M  V30 BEGIN BOND
M  V30 1 1 1 2
M  V30 2 2 2 3
M  V30 3 1 3 4
M  V30 4 2 4 5
M  V30 5 1 5 6
M  V30 6 2 6 7
M  V30 7 1 7 8
M  V30 8 2 8 9
M  V30 9 1 9 10
M  V30 10 2 10 11
M  V30 11 1 10 12
M  V30 12 1 12 13
M  V30 13 2 13 14
M  V30 14 1 14 15
M  V30 15 2 15 16
M  V30 16 1 16 17
M  V30 17 2 17 18
M  V30 18 1 17 19
M  V30 19 1 19 20
M  V30 20 1 20 21
M  V30 21 1 21 22
M  V30 22 1 20 23
M  V30 23 2 23 24
M  V30 24 1 24 25
M  V30 25 2 25 26
M  V30 26 1 26 27
M  V30 27 2 27 28
M  V30 28 1 16 29
M  V30 29 2 29 30
M  V30 30 1 8 31
M  V30 31 2 31 32
M  V30 32 1 32 33
M  V30 33 2 33 34
M  V30 34 1 34 35
M  V30 35 1 7 2
M  V30 36 1 30 9
M  V30 37 1 35 31
M  V30 38 1 30 13
M  V30 39 1 28 23
M  V30 40 1 1 36
M  V30 41 1 1 37
M  V30 42 1 1 38
M  V30 43 1 3 39
M  V30 44 1 4 40
M  V30 45 1 5 41
M  V30 46 1 6 42
M  V30 47 1 12 43
M  V30 48 1 14 44
M  V30 49 1 15 45
M  V30 50 1 19 46
M  V30 51 1 20 47 CFG=1
M  V30 52 1 21 48
M  V30 53 1 21 49
M  V30 54 1 22 50
M  V30 55 1 24 51
M  V30 56 1 25 52
M  V30 57 1 26 53
M  V30 58 1 27 54
M  V30 59 1 28 55
M  V30 60 1 29 56
M  V30 61 1 33 57
M  V30 62 1 34 58
M  V30 63 1 35 59
M  V30 END BOND
M  V30 END CTAB
M  END
>  <Dataset>  (867) 
ChEMBL_Kinases

>  <Ligand_Instance>  (867) 
nan

>  <PDB_ID>  (867) 
nan

>  <Standardized_SMILES>  (867) 
Cc1ccccc1/C(=C1/C(=O)Nc2ccc(C(=O)N[C@H](CO)c3ccccc3)cc21)c1ncc[nH]1

>  <Name>  (867) 
nan

>  <Pocket>  (867) 
nan

>  <ATP_Site>  (867) 
nan

>  <Peripheral>  (867) 
nan

>  <Num_H_Atoms_ProtBoundConf>  (867) 
nan

>  <Num_Resolved_Atoms>  (867) 
nan

>  <Num_Not_Resolved_Atoms>  (867) 
nan

$$$$
CHEMBL4785979
     RDKit          3D

  0  0  0  0  0  0  0  0  0  0999 V3000
M  V30 BEGIN CTAB
M  V30 COUNTS 50 53 0 0 0
M  V30 BEGIN ATOM
M  V30 1 C 2.794888 -2.272044 -0.014695 0
M  V30 2 C 3.992778 -2.302891 0.845338 0
M  V30 3 C 3.524783 -2.295560 2.288065 0
M  V30 4 N 4.899328 -1.194436 0.682815 0
M  V30 5 C 6.196413 -1.273397 0.325869 0
M  V30 6 N 6.637612 -0.024473 0.299431 0
M  V30 7 N 5.697452 0.810929 0.616100 0
M  V30 8 C 4.582933 0.097216 0.864624 0
M  V30 9 C 3.340871 0.731560 1.248043 0
M  V30 10 C 3.421419 1.606827 2.343006 0
M  V30 11 C 2.338597 2.299854 2.846179 0
M  V30 12 C 1.094681 2.149803 2.268170 0
M  V30 13 C 1.045732 1.284545 1.195481 0
M  V30 14 N -0.193103 1.061987 0.530100 0
M  V30 15 C -0.769528 1.753780 -0.579925 0
M  V30 16 O 0.016190 2.677977 -0.946138 0
M  V30 17 N -2.039406 1.289196 -1.023837 0
M  V30 18 C -2.638884 1.986804 -2.156452 0
M  V30 19 C -2.810136 0.224841 -0.505439 0
M  V30 20 C -3.679432 0.613197 0.490736 0
M  V30 21 C -4.506199 -0.328770 1.098643 0
M  V30 22 C -4.445946 -1.645949 0.695506 0
M  V30 23 C -5.272963 -2.562140 1.310301 0
M  V30 24 C -5.190100 -3.889162 0.881268 0
M  V30 25 C -4.309271 -4.260762 -0.122460 0
M  V30 26 C -3.487770 -3.313176 -0.723420 0
M  V30 27 C -3.556824 -2.003217 -0.313042 0
M  V30 28 N -2.761437 -1.064443 -0.889444 0
M  V30 29 N 2.107739 0.614656 0.713974 0
M  V30 30 H 2.674624 -3.264365 -0.498746 0
M  V30 31 H 2.854425 -1.565735 -0.868622 0
M  V30 32 H 1.835309 -2.162006 0.564033 0
M  V30 33 H 4.520480 -3.287346 0.703117 0
M  V30 34 H 3.587369 -1.264427 2.668008 0
M  V30 35 H 4.096249 -3.011226 2.910832 0
M  V30 36 H 2.449909 -2.612069 2.355664 0
M  V30 37 H 6.760279 -2.171155 0.106441 0
M  V30 38 H 4.378292 1.774948 2.852049 0
M  V30 39 H 2.443310 2.960587 3.686745 0
M  V30 40 H 0.203853 2.645634 2.591360 0
M  V30 41 H -0.670426 0.246590 1.008016 0
M  V30 42 H -3.660390 2.362174 -1.930844 0
M  V30 43 H -2.671187 1.340568 -3.061822 0
M  V30 44 H -2.044990 2.880520 -2.463358 0
M  V30 45 H -3.799751 1.621011 0.875646 0
M  V30 46 H -5.214536 -0.065973 1.896477 0
M  V30 47 H -5.971941 -2.297763 2.098915 0
M  V30 48 H -5.835189 -4.606721 1.360089 0
M  V30 49 H -4.254562 -5.308106 -0.449999 0
M  V30 50 H -2.810024 -3.629332 -1.503534 0
M  V30 END ATOM
M  V30 BEGIN BOND
M  V30 1 1 1 2
M  V30 2 1 2 3
M  V30 3 1 2 4
M  V30 4 1 4 5
M  V30 5 2 5 6
M  V30 6 1 6 7
M  V30 7 2 7 8
M  V30 8 1 8 9
M  V30 9 2 9 10
M  V30 10 1 10 11
M  V30 11 2 11 12
M  V30 12 1 12 13
M  V30 13 1 13 14
M  V30 14 1 14 15
M  V30 15 2 15 16
M  V30 16 1 15 17
M  V30 17 1 17 18
M  V30 18 1 17 19
M  V30 19 2 19 20
M  V30 20 1 20 21
M  V30 21 2 21 22
M  V30 22 1 22 23
M  V30 23 2 23 24
M  V30 24 1 24 25
M  V30 25 2 25 26
M  V30 26 1 26 27
M  V30 27 2 27 28
M  V30 28 2 13 29
M  V30 29 1 8 4
M  V30 30 1 29 9
M  V30 31 1 28 19
M  V30 32 1 27 22
M  V30 33 1 1 30
M  V30 34 1 1 31
M  V30 35 1 1 32
M  V30 36 1 2 33
M  V30 37 1 3 34
M  V30 38 1 3 35
M  V30 39 1 3 36
M  V30 40 1 5 37
M  V30 41 1 10 38
M  V30 42 1 11 39
M  V30 43 1 12 40
M  V30 44 1 14 41
M  V30 45 1 18 42
M  V30 46 1 18 43
M  V30 47 1 18 44
M  V30 48 1 20 45
M  V30 49 1 21 46
M  V30 50 1 23 47
M  V30 51 1 24 48
M  V30 52 1 25 49
M  V30 53 1 26 50
M  V30 END BOND
M  V30 END CTAB
M  END
>  <Dataset>  (868) 
ChEMBL_Kinases

>  <Ligand_Instance>  (868) 
nan

>  <PDB_ID>  (868) 
nan

>  <Standardized_SMILES>  (868) 
CC(C)n1cnnc1-c1cccc(NC(=O)N(C)c2ccc3ccccc3n2)n1

>  <Name>  (868) 
nan

>  <Pocket>  (868) 
nan

>  <ATP_Site>  (868) 
nan

>  <Peripheral>  (868) 
nan

>  <Num_H_Atoms_ProtBoundConf>  (868) 
nan

>  <Num_Resolved_Atoms>  (868) 
nan

>  <Num_Not_Resolved_Atoms>  (868) 
nan

$$$$
CHEMBL4785990
     RDKit          3D

  0  0  0  0  0  0  0  0  0  0999 V3000
M  V30 BEGIN CTAB
M  V30 COUNTS 51 55 0 0 0
M  V30 BEGIN ATOM
M  V30 1 O 2.704982 0.812348 4.509619 0
M  V30 2 C 2.449936 0.733005 3.281482 0
M  V30 3 N 3.063567 -0.250549 2.480115 0
M  V30 4 C 3.997442 -1.294921 2.709399 0
M  V30 5 C 5.344971 -0.963265 2.563656 0
M  V30 6 C 6.310858 -1.946664 2.774980 0
M  V30 7 C 5.929324 -3.243858 3.127387 0
M  V30 8 F 6.973693 -4.115122 3.306017 0
M  V30 9 C 4.592376 -3.572872 3.271949 0
M  V30 10 C 3.651133 -2.577804 3.056536 0
M  V30 11 C 1.506687 1.672190 2.681737 0
M  V30 12 C 0.966948 2.598122 3.549872 0
M  V30 13 C 0.054055 3.528575 3.037947 0
M  V30 14 C -0.304781 3.530155 1.702133 0
M  V30 15 C 0.267333 2.573594 0.859531 0
M  V30 16 C -0.161309 2.631668 -0.563645 0
M  V30 17 N -1.329215 1.782545 -0.698206 0
M  V30 18 C -2.543172 2.328657 -0.508380 0
M  V30 19 N -3.652194 1.567256 -0.626186 0
M  V30 20 C -3.630208 0.258329 -0.929752 0
M  V30 21 C -4.784741 -0.483319 -1.040711 0
M  V30 22 C -4.685829 -1.821051 -1.355221 0
M  V30 23 C -3.450097 -2.404962 -1.555047 0
M  V30 24 C -3.359832 -3.840353 -1.892161 0
M  V30 25 C -4.289637 -4.575580 -2.622861 0
M  V30 26 N -3.819224 -5.811541 -2.688642 0
M  V30 27 N -2.679229 -5.921973 -2.066847 0
M  V30 28 C -2.354407 -4.721172 -1.555933 0
M  V30 29 C -2.296613 -1.683914 -1.448789 0
M  V30 30 C -2.396473 -0.325651 -1.129399 0
M  V30 31 C -1.281107 0.475762 -1.002664 0
M  V30 32 O -0.161077 -0.062439 -1.185734 0
M  V30 33 C 1.165257 1.653944 1.349255 0
M  V30 34 H 2.907324 -0.383244 1.457332 0
M  V30 35 H 5.625090 0.057875 2.287226 0
M  V30 36 H 7.336624 -1.635301 2.648826 0
M  V30 37 H 4.359609 -4.580295 3.543061 0
M  V30 38 H 2.618045 -2.826694 3.166651 0
M  V30 39 H 1.197035 2.665653 4.619806 0
M  V30 40 H -0.396742 4.279998 3.695388 0
M  V30 41 H -1.015259 4.277509 1.376513 0
M  V30 42 H 0.671989 2.236394 -1.215294 0
M  V30 43 H -0.401279 3.680438 -0.860351 0
M  V30 44 H -2.701766 3.372383 -0.258682 0
M  V30 45 H -5.730296 0.014669 -0.876060 0
M  V30 46 H -5.601636 -2.398172 -1.440694 0
M  V30 47 H -5.194029 -4.131457 -3.019496 0
M  V30 48 H -2.008735 -6.716457 -1.899023 0
M  V30 49 H -1.498868 -4.393012 -0.977994 0
M  V30 50 H -1.302382 -2.116325 -1.600845 0
M  V30 51 H 1.583559 0.940190 0.686859 0
M  V30 END ATOM
M  V30 BEGIN BOND
M  V30 1 2 1 2
M  V30 2 1 2 3
M  V30 3 1 3 4
M  V30 4 2 4 5
M  V30 5 1 5 6
M  V30 6 2 6 7
M  V30 7 1 7 8
M  V30 8 1 7 9
M  V30 9 2 9 10
M  V30 10 1 2 11
M  V30 11 2 11 12
M  V30 12 1 12 13
M  V30 13 2 13 14
M  V30 14 1 14 15
M  V30 15 1 15 16
M  V30 16 1 16 17
M  V30 17 1 17 18
M  V30 18 2 18 19
M  V30 19 1 19 20
M  V30 20 2 20 21
M  V30 21 1 21 22
M  V30 22 2 22 23
M  V30 23 1 23 24
M  V30 24 1 24 25
M  V30 25 2 25 26
M  V30 26 1 26 27
M  V30 27 1 27 28
M  V30 28 1 23 29
M  V30 29 2 29 30
M  V30 30 1 30 31
M  V30 31 2 31 32
M  V30 32 2 15 33
M  V30 33 1 10 4
M  V30 34 1 33 11
M  V30 35 1 31 17
M  V30 36 1 30 20
M  V30 37 2 28 24
M  V30 38 1 3 34
M  V30 39 1 5 35
M  V30 40 1 6 36
M  V30 41 1 9 37
M  V30 42 1 10 38
M  V30 43 1 12 39
M  V30 44 1 13 40
M  V30 45 1 14 41
M  V30 46 1 16 42
M  V30 47 1 16 43
M  V30 48 1 18 44
M  V30 49 1 21 45
M  V30 50 1 22 46
M  V30 51 1 25 47
M  V30 52 1 27 48
M  V30 53 1 28 49
M  V30 54 1 29 50
M  V30 55 1 33 51
M  V30 END BOND
M  V30 END CTAB
M  END
>  <Dataset>  (869) 
ChEMBL_Kinases

>  <Ligand_Instance>  (869) 
nan

>  <PDB_ID>  (869) 
nan

>  <Standardized_SMILES>  (869) 
O=C(Nc1ccc(F)cc1)c1cccc(Cn2cnc3ccc(-c4cn[nH]c4)cc3c2=O)c1

>  <Name>  (869) 
nan

>  <Pocket>  (869) 
nan

>  <ATP_Site>  (869) 
nan

>  <Peripheral>  (869) 
nan

>  <Num_H_Atoms_ProtBoundConf>  (869) 
nan

>  <Num_Resolved_Atoms>  (869) 
nan

>  <Num_Not_Resolved_Atoms>  (869) 
nan

$$$$
CHEMBL4171678
     RDKit          3D

  0  0  0  0  0  0  0  0  0  0999 V3000
M  V30 BEGIN CTAB
M  V30 COUNTS 42 45 0 0 0
M  V30 BEGIN ATOM
M  V30 1 C -0.773112 -0.708076 4.436459 0
M  V30 2 O -1.266782 0.614369 4.476225 0
M  V30 3 C -1.597245 1.354248 3.333158 0
M  V30 4 C -1.431637 0.763169 2.121840 0
M  V30 5 C -1.718311 1.380464 0.922383 0
M  V30 6 C -1.513897 0.697489 -0.351747 0
M  V30 7 C -0.444938 -0.201359 -0.339491 0
M  V30 8 N -0.162140 -0.884645 -1.459593 0
M  V30 9 C -0.859833 -0.745630 -2.597022 0
M  V30 10 C -0.664123 -1.396157 -3.829488 0
M  V30 11 N 0.341531 -2.360065 -4.113509 0
M  V30 12 C 1.646025 -1.910032 -4.579527 0
M  V30 13 C 2.648436 -2.226037 -3.476668 0
M  V30 14 N 2.730042 -3.678431 -3.360767 0
M  V30 15 C 1.472410 -4.374366 -3.349743 0
M  V30 16 O 1.402870 -5.498337 -2.760092 0
M  V30 17 C 0.273244 -3.801247 -4.009630 0
M  V30 18 S -1.860285 -0.828260 -4.950644 0
M  V30 19 N -2.679101 0.338857 -3.744499 0
M  V30 20 C -1.915525 0.128829 -2.640503 0
M  V30 21 C -2.244448 0.853601 -1.514208 0
M  V30 22 C -2.206336 2.689904 0.998807 0
M  V30 23 C -2.384146 3.314391 2.215085 0
M  V30 24 C -2.079417 2.646446 3.384643 0
M  V30 25 N -2.257450 3.280856 4.645491 0
M  V30 26 H 0.061886 -0.755306 3.688979 0
M  V30 27 H -0.361605 -0.949471 5.421793 0
M  V30 28 H -1.584196 -1.395060 4.106069 0
M  V30 29 H -1.056570 -0.246800 2.061124 0
M  V30 30 H 0.217243 -0.437058 0.477918 0
M  V30 31 H 1.969103 -2.537970 -5.460712 0
M  V30 32 H 1.669002 -0.846741 -4.856753 0
M  V30 33 H 3.665192 -1.833865 -3.736788 0
M  V30 34 H 2.266705 -1.869193 -2.508680 0
M  V30 35 H 3.599237 -4.250863 -3.286378 0
M  V30 36 H -0.660572 -4.163960 -3.529903 0
M  V30 37 H 0.262556 -4.205589 -5.053763 0
M  V30 38 H -3.017193 1.566912 -1.355660 0
M  V30 39 H -2.443494 3.202100 0.056555 0
M  V30 40 H -2.765381 4.334759 2.264834 0
M  V30 41 H -2.911928 3.182406 5.437612 0
M  V30 42 H -1.564438 4.035101 4.835409 0
M  V30 END ATOM
M  V30 BEGIN BOND
M  V30 1 1 1 2
M  V30 2 1 2 3
M  V30 3 2 3 4
M  V30 4 1 4 5
M  V30 5 1 5 6
M  V30 6 1 6 7
M  V30 7 2 7 8
M  V30 8 1 8 9
M  V30 9 2 9 10
M  V30 10 1 10 11
M  V30 11 1 11 12
M  V30 12 1 12 13
M  V30 13 1 13 14
M  V30 14 1 14 15
M  V30 15 2 15 16
M  V30 16 1 15 17
M  V30 17 1 10 18
M  V30 18 1 18 19
M  V30 19 2 19 20
M  V30 20 1 20 21
M  V30 21 2 5 22
M  V30 22 1 22 23
M  V30 23 2 23 24
M  V30 24 1 24 25
M  V30 25 1 24 3
M  V30 26 2 21 6
M  V30 27 1 20 9
M  V30 28 1 17 11
M  V30 29 1 1 26
M  V30 30 1 1 27
M  V30 31 1 1 28
M  V30 32 1 4 29
M  V30 33 1 7 30
M  V30 34 1 12 31
M  V30 35 1 12 32
M  V30 36 1 13 33
M  V30 37 1 13 34
M  V30 38 1 14 35
M  V30 39 1 17 36
M  V30 40 1 17 37
M  V30 41 1 21 38
M  V30 42 1 22 39
M  V30 43 1 23 40
M  V30 44 1 25 41
M  V30 45 1 25 42
M  V30 END BOND
M  V30 END CTAB
M  END
>  <Dataset>  (870) 
ChEMBL_Kinases

>  <Ligand_Instance>  (870) 
nan

>  <PDB_ID>  (870) 
nan

>  <Standardized_SMILES>  (870) 
COc1cc(-c2cnc3c(N4CCNC(=O)C4)snc3c2)ccc1N

>  <Name>  (870) 
nan

>  <Pocket>  (870) 
nan

>  <ATP_Site>  (870) 
nan

>  <Peripheral>  (870) 
nan

>  <Num_H_Atoms_ProtBoundConf>  (870) 
nan

>  <Num_Resolved_Atoms>  (870) 
nan

>  <Num_Not_Resolved_Atoms>  (870) 
nan

$$$$
CHEMBL4171617
     RDKit          3D

  0  0  0  0  0  0  0  0  0  0999 V3000
M  V30 BEGIN CTAB
M  V30 COUNTS 62 66 0 0 0
M  V30 BEGIN ATOM
M  V30 1 C -2.373593 -0.924503 5.107833 0
M  V30 2 C -2.380436 -1.495897 3.710621 0
M  V30 3 O -1.077331 -1.678561 3.250424 0
M  V30 4 C -0.162170 -2.479763 3.896488 0
M  V30 5 O -0.552330 -3.046517 4.968484 0
M  V30 6 C 1.209243 -2.700683 3.397649 0
M  V30 7 S 2.462077 -1.583213 4.068775 0
M  V30 8 C 2.132400 0.104356 3.502900 0
M  V30 9 N 2.698678 0.327352 2.298812 0
M  V30 10 C 2.565624 1.482411 1.615698 0
M  V30 11 S 3.372103 1.746019 0.023454 0
M  V30 12 C 2.447477 0.853200 -1.249840 0
M  V30 13 C 1.474236 0.016412 -0.693248 0
M  V30 14 C 0.712009 -0.840345 -1.464687 0
M  V30 15 C 0.928115 -0.865398 -2.856997 0
M  V30 16 C 0.231324 -1.833142 -3.709277 0
M  V30 17 N -0.533717 -2.796011 -3.092696 0
M  V30 18 C -1.036513 -3.657153 -3.977177 0
M  V30 19 C -1.818120 -4.763314 -3.726508 0
M  V30 20 C -2.179110 -5.526012 -4.837645 0
M  V30 21 C -2.980694 -6.736519 -4.758299 0
M  V30 22 N -3.419745 -7.107291 -3.455892 0
M  V30 23 O -3.363431 -7.523509 -5.628638 0
M  V30 24 C -1.733529 -5.117672 -6.082946 0
M  V30 25 C -0.952131 -3.997873 -6.268377 0
M  V30 26 C -0.569559 -3.212710 -5.195590 0
M  V30 27 N 0.184674 -2.122540 -5.012910 0
M  V30 28 C 1.893244 -0.020569 -3.382348 0
M  V30 29 C 2.659655 0.839776 -2.605751 0
M  V30 30 C 1.832610 2.509116 2.127884 0
M  V30 31 C 1.600824 3.774585 1.484825 0
M  V30 32 N 1.409353 4.778235 0.959248 0
M  V30 33 C 1.261517 2.285266 3.357771 0
M  V30 34 C 0.497120 3.235762 4.153430 0
M  V30 35 C 1.095449 4.501939 4.139489 0
M  V30 36 C 0.533684 5.561278 4.864123 0
M  V30 37 C -0.639633 5.351962 5.610179 0
M  V30 38 Cl -1.421237 6.603609 6.553102 0
M  V30 39 C -1.207541 4.095934 5.603557 0
M  V30 40 C -0.644582 3.067388 4.887674 0
M  V30 41 N 1.403769 1.106725 4.036715 0
M  V30 42 H -3.343441 -0.341176 5.237698 0
M  V30 43 H -1.542390 -0.221342 5.285528 0
M  V30 44 H -2.344891 -1.755052 5.873139 0
M  V30 45 H -2.904481 -2.495746 3.686573 0
M  V30 46 H -2.983454 -0.851962 3.022370 0
M  V30 47 H 1.506507 -3.735035 3.662225 0
M  V30 48 H 1.243477 -2.641962 2.273115 0
M  V30 49 H 1.202288 -0.071289 0.366105 0
M  V30 50 H -0.053585 -1.500628 -1.013933 0
M  V30 51 H -2.156318 -5.058472 -2.732787 0
M  V30 52 H -3.198564 -7.842857 -2.762073 0
M  V30 53 H -4.163522 -6.516537 -3.037490 0
M  V30 54 H -1.980084 -5.662204 -6.984659 0
M  V30 55 H -0.595444 -3.679072 -7.262431 0
M  V30 56 H 0.672345 -1.554157 -5.703452 0
M  V30 57 H 2.087876 0.002813 -4.455889 0
M  V30 58 H 3.411560 1.515356 -2.941474 0
M  V30 59 H 1.986374 4.858246 3.646672 0
M  V30 60 H 0.933194 6.579444 4.905416 0
M  V30 61 H -2.107288 3.871144 6.157513 0
M  V30 62 H -1.031122 2.066120 4.841232 0
M  V30 END ATOM
M  V30 BEGIN BOND
M  V30 1 1 1 2
M  V30 2 1 2 3
M  V30 3 1 3 4
M  V30 4 2 4 5
M  V30 5 1 4 6
M  V30 6 1 6 7
M  V30 7 1 7 8
M  V30 8 2 8 9
M  V30 9 1 9 10
M  V30 10 1 10 11
M  V30 11 1 11 12
M  V30 12 2 12 13
M  V30 13 1 13 14
M  V30 14 2 14 15
M  V30 15 1 15 16
M  V30 16 2 16 17
M  V30 17 1 17 18
M  V30 18 2 18 19
M  V30 19 1 19 20
M  V30 20 1 20 21
M  V30 21 1 21 22
M  V30 22 2 21 23
M  V30 23 2 20 24
M  V30 24 1 24 25
M  V30 25 2 25 26
M  V30 26 1 26 27
M  V30 27 1 15 28
M  V30 28 2 28 29
M  V30 29 2 10 30
M  V30 30 1 30 31
M  V30 31 3 31 32
M  V30 32 1 30 33
M  V30 33 1 33 34
M  V30 34 2 34 35
M  V30 35 1 35 36
M  V30 36 2 36 37
M  V30 37 1 37 38
M  V30 38 1 37 39
M  V30 39 2 39 40
M  V30 40 2 33 41
M  V30 41 1 41 8
M  V30 42 1 29 12
M  V30 43 1 40 34
M  V30 44 1 27 16
M  V30 45 1 26 18
M  V30 46 1 1 42
M  V30 47 1 1 43
M  V30 48 1 1 44
M  V30 49 1 2 45
M  V30 50 1 2 46
M  V30 51 1 6 47
M  V30 52 1 6 48
M  V30 53 1 13 49
M  V30 54 1 14 50
M  V30 55 1 19 51
M  V30 56 1 22 52
M  V30 57 1 22 53
M  V30 58 1 24 54
M  V30 59 1 25 55
M  V30 60 1 27 56
M  V30 61 1 28 57
M  V30 62 1 29 58
M  V30 63 1 35 59
M  V30 64 1 36 60
M  V30 65 1 39 61
M  V30 66 1 40 62
M  V30 END BOND
M  V30 END CTAB
M  END
>  <Dataset>  (871) 
ChEMBL_Kinases

>  <Ligand_Instance>  (871) 
nan

>  <PDB_ID>  (871) 
nan

>  <Standardized_SMILES>  (871) 
CCOC(=O)CSc1nc(Sc2ccc(-c3nc4cc(C(N)=O)ccc4[nH]3)cc2)c(C#N)c(-c2ccc(Cl)cc2)n1

>  <Name>  (871) 
nan

>  <Pocket>  (871) 
nan

>  <ATP_Site>  (871) 
nan

>  <Peripheral>  (871) 
nan

>  <Num_H_Atoms_ProtBoundConf>  (871) 
nan

>  <Num_Resolved_Atoms>  (871) 
nan

>  <Num_Not_Resolved_Atoms>  (871) 
nan

$$$$
CHEMBL4171513
     RDKit          3D

  0  0  0  0  0  0  0  0  0  0999 V3000
M  V30 BEGIN CTAB
M  V30 COUNTS 55 59 0 0 0
M  V30 BEGIN ATOM
M  V30 1 N 2.045192 -2.739654 4.787693 0
M  V30 2 C 3.090924 -2.321688 3.872129 0 CFG=2
M  V30 3 C 3.962988 -1.323488 4.600603 0
M  V30 4 C 4.991395 -0.744224 3.663437 0
M  V30 5 C 4.262049 -0.049816 2.538282 0
M  V30 6 C 3.413543 -1.022294 1.752321 0 CFG=2
M  V30 7 C 2.624209 -0.242665 0.760812 0
M  V30 8 O 2.707018 -0.420608 -0.500051 0
M  V30 9 N 1.725871 0.755779 1.209630 0
M  V30 10 C 0.909217 1.576340 0.382456 0
M  V30 11 C 1.338417 2.800047 -0.105823 0
M  V30 12 C 0.455593 3.529111 -0.911863 0
M  V30 13 C -0.811677 3.009624 -1.195516 0
M  V30 14 N -1.834217 3.504011 -1.933871 0
M  V30 15 N -2.851625 2.650558 -1.918206 0
M  V30 16 C -2.513048 1.571205 -1.163062 0
M  V30 17 N -3.275135 0.402339 -0.855946 0
M  V30 18 C -3.200723 -0.727771 -1.699118 0
M  V30 19 C -2.364377 -0.607796 -2.796122 0
M  V30 20 C -2.236177 -1.684053 -3.679732 0
M  V30 21 C -2.972481 -2.829703 -3.393700 0
M  V30 22 C -3.804094 -2.929501 -2.290160 0
M  V30 23 C -4.484648 -4.118870 -2.111041 0
M  V30 24 C -5.312262 -4.191908 -0.995615 0
M  V30 25 C -5.457790 -3.137343 -0.101829 0
M  V30 26 C -4.748956 -1.957183 -0.326711 0
M  V30 27 C -3.924549 -1.863170 -1.423922 0
M  V30 28 C -1.225254 1.785973 -0.700199 0
M  V30 29 C -0.344157 1.057582 0.104681 0
M  V30 30 C 2.413424 -1.629691 2.713420 0
M  V30 31 H 2.408723 -3.323865 5.587406 0
M  V30 32 H 1.300984 -3.314355 4.329465 0
M  V30 33 H 3.666415 -3.208083 3.574896 0
M  V30 34 H 3.300327 -0.512072 4.987436 0
M  V30 35 H 4.479479 -1.762251 5.456013 0
M  V30 36 H 5.574221 0.031027 4.197849 0
M  V30 37 H 5.615946 -1.546945 3.252458 0
M  V30 38 H 3.548045 0.663315 3.021609 0
M  V30 39 H 4.937809 0.444621 1.830666 0
M  V30 40 H 4.023131 -1.795416 1.243576 0
M  V30 41 H 1.567096 0.997470 2.211943 0
M  V30 42 H 2.330583 3.158001 0.143443 0
M  V30 43 H 0.794582 4.483184 -1.290587 0
M  V30 44 H -1.782847 4.436459 -2.430667 0
M  V30 45 H -3.797456 0.594125 0.003468 0
M  V30 46 H -1.792781 0.277022 -3.021131 0
M  V30 47 H -1.590836 -1.608237 -4.537159 0
M  V30 48 H -2.841130 -3.648892 -4.113727 0
M  V30 49 H -4.400593 -4.961961 -2.780213 0
M  V30 50 H -5.879042 -5.082543 -0.781158 0
M  V30 51 H -6.111762 -3.241402 0.749288 0
M  V30 52 H -4.837904 -1.128121 0.340164 0
M  V30 53 H -0.688003 0.110204 0.477468 0
M  V30 54 H 1.839211 -0.789967 3.154820 0
M  V30 55 H 1.702212 -2.313397 2.216947 0
M  V30 END ATOM
M  V30 BEGIN BOND
M  V30 1 1 1 2
M  V30 2 1 2 3
M  V30 3 1 3 4
M  V30 4 1 4 5
M  V30 5 1 5 6
M  V30 6 1 6 7
M  V30 7 2 7 8
M  V30 8 1 7 9
M  V30 9 1 9 10
M  V30 10 2 10 11
M  V30 11 1 11 12
M  V30 12 2 12 13
M  V30 13 1 13 14
M  V30 14 1 14 15
M  V30 15 2 15 16
M  V30 16 1 16 17
M  V30 17 1 17 18
M  V30 18 2 18 19
M  V30 19 1 19 20
M  V30 20 2 20 21
M  V30 21 1 21 22
M  V30 22 2 22 23
M  V30 23 1 23 24
M  V30 24 2 24 25
M  V30 25 1 25 26
M  V30 26 2 26 27
M  V30 27 1 16 28
M  V30 28 2 28 29
M  V30 29 1 6 30
M  V30 30 1 30 2
M  V30 31 1 29 10
M  V30 32 1 28 13
M  V30 33 1 27 18
M  V30 34 1 27 22
M  V30 35 1 1 31
M  V30 36 1 1 32
M  V30 37 1 2 33 CFG=3
M  V30 38 1 3 34
M  V30 39 1 3 35
M  V30 40 1 4 36
M  V30 41 1 4 37
M  V30 42 1 5 38
M  V30 43 1 5 39
M  V30 44 1 6 40 CFG=3
M  V30 45 1 9 41
M  V30 46 1 11 42
M  V30 47 1 12 43
M  V30 48 1 14 44
M  V30 49 1 17 45
M  V30 50 1 19 46
M  V30 51 1 20 47
M  V30 52 1 21 48
M  V30 53 1 23 49
M  V30 54 1 24 50
M  V30 55 1 25 51
M  V30 56 1 26 52
M  V30 57 1 29 53
M  V30 58 1 30 54
M  V30 59 1 30 55
M  V30 END BOND
M  V30 END CTAB
M  END
>  <Dataset>  (872) 
ChEMBL_Kinases

>  <Ligand_Instance>  (872) 
nan

>  <PDB_ID>  (872) 
nan

>  <Standardized_SMILES>  (872) 
N[C@@H]1CCC[C@H](C(=O)Nc2ccc3[nH]nc(Nc4cccc5ccccc45)c3c2)C1

>  <Name>  (872) 
nan

>  <Pocket>  (872) 
nan

>  <ATP_Site>  (872) 
nan

>  <Peripheral>  (872) 
nan

>  <Num_H_Atoms_ProtBoundConf>  (872) 
nan

>  <Num_Resolved_Atoms>  (872) 
nan

>  <Num_Not_Resolved_Atoms>  (872) 
nan

$$$$
CHEMBL4171390
     RDKit          3D

  0  0  0  0  0  0  0  0  0  0999 V3000
M  V30 BEGIN CTAB
M  V30 COUNTS 68 72 0 0 0
M  V30 BEGIN ATOM
M  V30 1 C 0.002893 -1.127762 5.278120 0
M  V30 2 C -0.006507 -2.301155 4.304570 0
M  V30 3 O 0.550752 -1.921351 3.057484 0
M  V30 4 C 1.839268 -1.477748 2.922358 0
M  V30 5 O 2.257623 -1.530978 4.097236 0
M  V30 6 C 2.076450 -1.170451 1.504843 0
M  V30 7 C 2.557599 -2.235823 0.782952 0
M  V30 8 C 2.847412 -3.568736 1.314554 0
M  V30 9 N 2.775485 -1.995948 -0.540512 0
M  V30 10 C 2.508453 -0.763902 -1.025276 0
M  V30 11 N 2.686131 -0.341276 -2.394460 0
M  V30 12 N 1.503366 -0.741873 -3.007019 0
M  V30 13 C 0.302703 0.008878 -3.059972 0
M  V30 14 O 0.334174 1.144308 -2.487645 0
M  V30 15 C -0.955110 -0.357609 -3.686598 0
M  V30 16 C -1.442294 0.567352 -4.618171 0
M  V30 17 C -2.634557 0.344618 -5.295152 0
M  V30 18 C -3.385847 -0.799345 -5.075336 0
M  V30 19 C -2.898135 -1.699860 -4.159274 0
M  V30 20 C -3.629879 -2.842912 -3.928600 0
M  V30 21 O -4.713529 -3.145379 -4.480143 0
M  V30 22 C -3.104696 -3.725667 -2.999790 0
M  V30 23 C -3.780624 -4.906813 -2.707093 0
M  V30 24 C -3.314898 -5.839447 -1.787650 0
M  V30 25 C -2.115665 -5.565186 -1.137810 0
M  V30 26 C -1.426574 -4.400697 -1.410967 0
M  V30 27 C -1.906494 -3.484967 -2.329373 0
M  V30 28 N -1.234898 -2.351409 -2.595370 0
M  V30 29 C -1.720017 -1.486537 -3.485526 0
M  V30 30 N 2.038032 0.257906 -0.289831 0
M  V30 31 C 1.800681 0.089357 1.027815 0
M  V30 32 C 1.292438 1.187844 1.836792 0
M  V30 33 C 0.235025 1.871057 1.247869 0
M  V30 34 C -0.344837 2.943231 1.892880 0
M  V30 35 C 0.090723 3.377025 3.127711 0
M  V30 36 O -0.392499 4.431242 3.886848 0
M  V30 37 C -1.451590 5.259934 3.491605 0
M  V30 38 C 1.148210 2.702236 3.729274 0
M  V30 39 O 1.658682 3.059987 4.968893 0
M  V30 40 C 2.733633 2.302278 5.484709 0
M  V30 41 C 1.716939 1.632675 3.070809 0
M  V30 42 H -0.896234 -1.211046 5.946877 0
M  V30 43 H 0.873628 -1.155742 5.933457 0
M  V30 44 H -0.074729 -0.174486 4.681462 0
M  V30 45 H -1.057020 -2.633017 4.131793 0
M  V30 46 H 0.535990 -3.151669 4.759986 0
M  V30 47 H 2.157058 -4.296332 0.814419 0
M  V30 48 H 3.884395 -3.844134 0.956926 0
M  V30 49 H 2.798066 -3.631919 2.399529 0
M  V30 50 H 3.564565 0.145801 -2.698935 0
M  V30 51 H 1.482273 -1.671596 -3.478740 0
M  V30 52 H -0.902012 1.489384 -4.840478 0
M  V30 53 H -2.991357 1.076354 -6.011498 0
M  V30 54 H -4.310409 -0.975184 -5.599017 0
M  V30 55 H -4.713455 -5.093882 -3.229317 0
M  V30 56 H -3.892561 -6.742705 -1.605031 0
M  V30 57 H -1.786397 -6.330185 -0.420644 0
M  V30 58 H -0.487224 -4.236789 -0.869383 0
M  V30 59 H -0.356260 -2.196301 -2.083944 0
M  V30 60 H -0.204926 1.644320 0.291479 0
M  V30 61 H -1.169123 3.507869 1.481225 0
M  V30 62 H -1.248688 6.342175 3.728182 0
M  V30 63 H -1.681501 5.243815 2.415004 0
M  V30 64 H -2.390951 5.024675 4.061529 0
M  V30 65 H 3.591097 2.318332 4.767763 0
M  V30 66 H 3.037350 2.652778 6.488283 0
M  V30 67 H 2.384485 1.238429 5.506772 0
M  V30 68 H 2.538693 1.083096 3.481316 0
M  V30 END ATOM
M  V30 BEGIN BOND
M  V30 1 1 1 2
M  V30 2 1 2 3
M  V30 3 1 3 4
M  V30 4 2 4 5
M  V30 5 1 4 6
M  V30 6 2 6 7
M  V30 7 1 7 8
M  V30 8 1 7 9
M  V30 9 2 9 10
M  V30 10 1 10 11
M  V30 11 1 11 12
M  V30 12 1 12 13
M  V30 13 2 13 14
M  V30 14 1 13 15
M  V30 15 2 15 16
M  V30 16 1 16 17
M  V30 17 2 17 18
M  V30 18 1 18 19
M  V30 19 1 19 20
M  V30 20 2 20 21
M  V30 21 1 20 22
M  V30 22 2 22 23
M  V30 23 1 23 24
M  V30 24 2 24 25
M  V30 25 1 25 26
M  V30 26 2 26 27
M  V30 27 1 27 28
M  V30 28 1 28 29
M  V30 29 1 10 30
M  V30 30 2 30 31
M  V30 31 1 31 32
M  V30 32 2 32 33
M  V30 33 1 33 34
M  V30 34 2 34 35
M  V30 35 1 35 36
M  V30 36 1 36 37
M  V30 37 1 35 38
M  V30 38 1 38 39
M  V30 39 1 39 40
M  V30 40 2 38 41
M  V30 41 1 31 6
M  V30 42 1 41 32
M  V30 43 1 29 15
M  V30 44 2 29 19
M  V30 45 1 27 22
M  V30 46 1 1 42
M  V30 47 1 1 43
M  V30 48 1 1 44
M  V30 49 1 2 45
M  V30 50 1 2 46
M  V30 51 1 8 47
M  V30 52 1 8 48
M  V30 53 1 8 49
M  V30 54 1 11 50
M  V30 55 1 12 51
M  V30 56 1 16 52
M  V30 57 1 17 53
M  V30 58 1 18 54
M  V30 59 1 23 55
M  V30 60 1 24 56
M  V30 61 1 25 57
M  V30 62 1 26 58
M  V30 63 1 28 59
M  V30 64 1 33 60
M  V30 65 1 34 61
M  V30 66 1 37 62
M  V30 67 1 37 63
M  V30 68 1 37 64
M  V30 69 1 40 65
M  V30 70 1 40 66
M  V30 71 1 40 67
M  V30 72 1 41 68
M  V30 END BOND
M  V30 END CTAB
M  END
>  <Dataset>  (873) 
ChEMBL_Kinases

>  <Ligand_Instance>  (873) 
nan

>  <PDB_ID>  (873) 
nan

>  <Standardized_SMILES>  (873) 
CCOC(=O)c1c(C)nc(NNC(=O)c2cccc3c(=O)c4ccccc4[nH]c23)nc1-c1ccc(OC)c(OC)c1

>  <Name>  (873) 
nan

>  <Pocket>  (873) 
nan

>  <ATP_Site>  (873) 
nan

>  <Peripheral>  (873) 
nan

>  <Num_H_Atoms_ProtBoundConf>  (873) 
nan

>  <Num_Resolved_Atoms>  (873) 
nan

>  <Num_Not_Resolved_Atoms>  (873) 
nan

$$$$
CHEMBL4171374
     RDKit          3D

  0  0  0  0  0  0  0  0  0  0999 V3000
M  V30 BEGIN CTAB
M  V30 COUNTS 49 52 0 0 0
M  V30 BEGIN ATOM
M  V30 1 C 3.076265 -7.374133 1.370032 0
M  V30 2 C 2.884954 -6.180188 0.506434 0
M  V30 3 N 3.117980 -6.175949 -0.810171 0
M  V30 4 C 2.853006 -4.955886 -1.298795 0
M  V30 5 C 2.429636 -4.124354 -0.261864 0
M  V30 6 C 2.023241 -2.744594 -0.052222 0
M  V30 7 C 2.628668 -1.644424 -0.459144 0
M  V30 8 C 3.862845 -1.596212 -1.217114 0
M  V30 9 O 4.528301 -2.585171 -1.575139 0
M  V30 10 N 4.190841 -0.262652 -1.481753 0
M  V30 11 C 3.173483 0.540983 -0.896628 0
M  V30 12 C 2.981984 1.903802 -0.844531 0
M  V30 13 C 1.907215 2.495242 -0.215168 0
M  V30 14 C 0.966432 1.692038 0.398830 0
M  V30 15 C -0.162034 2.349589 1.056666 0
M  V30 16 O -0.210151 3.601773 1.038558 0
M  V30 17 N -1.173215 1.581858 1.697949 0
M  V30 18 C -2.329452 2.191194 2.373283 0 CFG=2
M  V30 19 C -2.393028 1.735527 3.812861 0
M  V30 20 O -2.526089 0.352524 3.833771 0
M  V30 21 C -3.578195 1.762431 1.702060 0
M  V30 22 C -3.430430 1.865296 0.330379 0
M  V30 23 C -4.459608 1.524773 -0.550417 0
M  V30 24 C -5.665302 1.070162 -0.050578 0
M  V30 25 C -5.802836 0.970044 1.338241 0
M  V30 26 C -4.778839 1.310431 2.189664 0
M  V30 27 C 1.137813 0.326049 0.359459 0
M  V30 28 C 2.216103 -0.254491 -0.272517 0
M  V30 29 N 2.476642 -4.955870 0.818285 0
M  V30 30 H 3.711268 -7.072310 2.250865 0
M  V30 31 H 2.098699 -7.728772 1.762004 0
M  V30 32 H 3.532324 -8.214853 0.819873 0
M  V30 33 H 2.898542 -4.546846 -2.297301 0
M  V30 34 H 1.111616 -2.558144 0.501970 0
M  V30 35 H 5.037135 0.042021 -2.014028 0
M  V30 36 H 3.717398 2.550201 -1.326715 0
M  V30 37 H 1.834182 3.563357 -0.222535 0
M  V30 38 H -1.172603 0.539853 1.741114 0
M  V30 39 H -2.294105 3.279724 2.317974 0
M  V30 40 H -1.482482 2.048084 4.377778 0
M  V30 41 H -3.287239 2.174115 4.283187 0
M  V30 42 H -2.749049 0.019977 2.948007 0
M  V30 43 H -2.562959 2.198797 -0.233291 0
M  V30 44 H -4.410962 1.580429 -1.626285 0
M  V30 45 H -6.500793 0.788901 -0.659547 0
M  V30 46 H -6.710644 0.623375 1.849194 0
M  V30 47 H -4.780777 1.271048 3.265309 0
M  V30 48 H 0.416546 -0.325968 0.830361 0
M  V30 49 H 2.240576 -4.760233 1.837237 0
M  V30 END ATOM
M  V30 BEGIN BOND
M  V30 1 1 1 2
M  V30 2 2 2 3
M  V30 3 1 3 4
M  V30 4 2 4 5
M  V30 5 1 5 6
M  V30 6 2 6 7
M  V30 7 1 7 8
M  V30 8 2 8 9
M  V30 9 1 8 10
M  V30 10 1 10 11
M  V30 11 2 11 12
M  V30 12 1 12 13
M  V30 13 2 13 14
M  V30 14 1 14 15
M  V30 15 2 15 16
M  V30 16 1 15 17
M  V30 17 1 17 18
M  V30 18 1 18 19
M  V30 19 1 19 20
M  V30 20 1 18 21
M  V30 21 2 21 22
M  V30 22 1 22 23
M  V30 23 2 23 24
M  V30 24 1 24 25
M  V30 25 2 25 26
M  V30 26 1 14 27
M  V30 27 2 27 28
M  V30 28 1 5 29
M  V30 29 1 29 2
M  V30 30 1 28 7
M  V30 31 1 28 11
M  V30 32 1 26 21
M  V30 33 1 1 30
M  V30 34 1 1 31
M  V30 35 1 1 32
M  V30 36 1 4 33
M  V30 37 1 6 34
M  V30 38 1 10 35
M  V30 39 1 12 36
M  V30 40 1 13 37
M  V30 41 1 17 38
M  V30 42 1 18 39 CFG=1
M  V30 43 1 19 40
M  V30 44 1 19 41
M  V30 45 1 20 42
M  V30 46 1 22 43
M  V30 47 1 23 44
M  V30 48 1 24 45
M  V30 49 1 25 46
M  V30 50 1 26 47
M  V30 51 1 27 48
M  V30 52 1 29 49
M  V30 END BOND
M  V30 END CTAB
M  END
>  <Dataset>  (874) 
ChEMBL_Kinases

>  <Ligand_Instance>  (874) 
nan

>  <PDB_ID>  (874) 
nan

>  <Standardized_SMILES>  (874) 
Cc1ncc(/C=C2\C(=O)Nc3ccc(C(=O)N[C@H](CO)c4ccccc4)cc32)[nH]1

>  <Name>  (874) 
nan

>  <Pocket>  (874) 
nan

>  <ATP_Site>  (874) 
nan

>  <Peripheral>  (874) 
nan

>  <Num_H_Atoms_ProtBoundConf>  (874) 
nan

>  <Num_Resolved_Atoms>  (874) 
nan

>  <Num_Not_Resolved_Atoms>  (874) 
nan

$$$$
CHEMBL4786008
     RDKit          3D

  0  0  0  0  0  0  0  0  0  0999 V3000
M  V30 BEGIN CTAB
M  V30 COUNTS 48 51 0 0 0
M  V30 BEGIN ATOM
M  V30 1 N 0.913977 -5.264032 3.501973 0
M  V30 2 C 0.891406 -4.123302 2.607760 0
M  V30 3 N 1.995648 -4.278742 1.831339 0
M  V30 4 C 2.217989 -3.319452 0.882572 0
M  V30 5 C 1.347867 -2.259704 0.744770 0
M  V30 6 C 1.492138 -1.186250 -0.232769 0
M  V30 7 C 2.042970 -1.252043 -1.506697 0
M  V30 8 N 1.984115 -0.029283 -2.086069 0
M  V30 9 N 1.414608 0.819723 -1.228534 0
M  V30 10 C 1.241247 2.201168 -1.628348 0
M  V30 11 C 2.559138 2.848576 -2.023238 0
M  V30 12 C 2.297398 4.355616 -1.957851 0
M  V30 13 N 2.410307 4.728409 -0.562686 0
M  V30 14 C 1.620389 3.825773 0.240952 0
M  V30 15 C 0.623097 3.044212 -0.568855 0
M  V30 16 C 1.115880 0.135198 -0.113773 0
M  V30 17 C 0.240585 -2.141766 1.553820 0
M  V30 18 C -0.043531 -3.065421 2.524094 0
M  V30 19 O -0.960564 -3.332155 3.486143 0
M  V30 20 C -2.089761 -2.587280 3.803231 0
M  V30 21 C -3.094594 -2.429924 2.742420 0
M  V30 22 C -3.949430 -3.535849 2.709750 0
M  V30 23 C -5.001864 -3.624115 1.799492 0
M  V30 24 C -5.227305 -2.611351 0.899552 0
M  V30 25 N -4.392888 -1.558585 0.950222 0
M  V30 26 C -3.374189 -1.450982 1.816542 0
M  V30 27 H 0.428818 -6.206899 3.535477 0
M  V30 28 H 1.446156 -5.444649 4.384132 0
M  V30 29 H 3.033846 -3.258658 0.168188 0
M  V30 30 H 2.459276 -2.149998 -1.970311 0
M  V30 31 H 0.586205 2.281289 -2.539945 0
M  V30 32 H 3.300144 2.553324 -1.251996 0
M  V30 33 H 2.884331 2.539076 -3.033993 0
M  V30 34 H 1.259031 4.605956 -2.286473 0
M  V30 35 H 2.963898 4.936052 -2.606928 0
M  V30 36 H 3.411521 4.589985 -0.293195 0
M  V30 37 H 2.236287 3.115980 0.821289 0
M  V30 38 H 1.046122 4.446273 0.966276 0
M  V30 39 H 0.024852 2.430117 0.111384 0
M  V30 40 H -0.090939 3.805706 -0.983749 0
M  V30 41 H 0.649595 0.593693 0.728156 0
M  V30 42 H -0.506983 -1.394008 1.573079 0
M  V30 43 H -1.808388 -1.522260 4.095392 0
M  V30 44 H -2.579816 -2.957828 4.758193 0
M  V30 45 H -3.909628 -4.416058 3.347926 0
M  V30 46 H -5.684643 -4.460174 1.741091 0
M  V30 47 H -5.992286 -2.537198 0.142987 0
M  V30 48 H -2.688005 -0.625369 1.901933 0
M  V30 END ATOM
M  V30 BEGIN BOND
M  V30 1 1 1 2
M  V30 2 2 2 3
M  V30 3 1 3 4
M  V30 4 2 4 5
M  V30 5 1 5 6
M  V30 6 1 6 7
M  V30 7 2 7 8
M  V30 8 1 8 9
M  V30 9 1 9 10
M  V30 10 1 10 11
M  V30 11 1 11 12
M  V30 12 1 12 13
M  V30 13 1 13 14
M  V30 14 1 14 15
M  V30 15 1 9 16
M  V30 16 1 5 17
M  V30 17 2 17 18
M  V30 18 1 18 19
M  V30 19 1 19 20
M  V30 20 1 20 21
M  V30 21 2 21 22
M  V30 22 1 22 23
M  V30 23 2 23 24
M  V30 24 1 24 25
M  V30 25 2 25 26
M  V30 26 1 18 2
M  V30 27 1 26 21
M  V30 28 2 16 6
M  V30 29 1 15 10
M  V30 30 1 1 27
M  V30 31 1 1 28
M  V30 32 1 4 29
M  V30 33 1 7 30
M  V30 34 1 10 31
M  V30 35 1 11 32
M  V30 36 1 11 33
M  V30 37 1 12 34
M  V30 38 1 12 35
M  V30 39 1 13 36
M  V30 40 1 14 37
M  V30 41 1 14 38
M  V30 42 1 15 39
M  V30 43 1 15 40
M  V30 44 1 16 41
M  V30 45 1 17 42
M  V30 46 1 20 43
M  V30 47 1 20 44
M  V30 48 1 22 45
M  V30 49 1 23 46
M  V30 50 1 24 47
M  V30 51 1 26 48
M  V30 END BOND
M  V30 END CTAB
M  END
>  <Dataset>  (875) 
ChEMBL_Kinases

>  <Ligand_Instance>  (875) 
nan

>  <PDB_ID>  (875) 
nan

>  <Standardized_SMILES>  (875) 
Nc1ncc(-c2cnn(C3CCNCC3)c2)cc1OCc1cccnc1

>  <Name>  (875) 
nan

>  <Pocket>  (875) 
nan

>  <ATP_Site>  (875) 
nan

>  <Peripheral>  (875) 
nan

>  <Num_H_Atoms_ProtBoundConf>  (875) 
nan

>  <Num_Resolved_Atoms>  (875) 
nan

>  <Num_Not_Resolved_Atoms>  (875) 
nan

$$$$
CHEMBL4786023
     RDKit          3D

  0  0  0  0  0  0  0  0  0  0999 V3000
M  V30 BEGIN CTAB
M  V30 COUNTS 62 65 0 0 0
M  V30 BEGIN ATOM
M  V30 1 C 0.418672 0.844826 4.575720 0
M  V30 2 C 1.272727 -0.331526 4.213411 0
M  V30 3 N 2.611707 0.136163 3.935563 0
M  V30 4 C 3.039046 0.998698 2.906087 0
M  V30 5 C 4.362523 1.400986 2.729225 0
M  V30 6 C 4.738497 2.238091 1.696939 0
M  V30 7 C 3.786169 2.708138 0.792044 0
M  V30 8 C 2.491477 2.354825 0.911568 0
M  V30 9 C 1.365860 2.747019 0.022813 0
M  V30 10 C 1.568430 3.511678 -1.088642 0
M  V30 11 C 0.459809 3.781794 -1.848915 0
M  V30 12 N -0.800452 3.341366 -1.564523 0
M  V30 13 C -0.979233 2.573421 -0.440102 0
M  V30 14 N -2.028197 1.902067 0.274706 0
M  V30 15 C -2.163687 0.496726 0.363400 0
M  V30 16 C -2.923204 0.102960 1.460702 0
M  V30 17 C -3.117992 -1.256910 1.685236 0
M  V30 18 C -2.565040 -2.191189 0.829296 0
M  V30 19 C -1.802242 -1.777665 -0.276987 0
M  V30 20 C -1.616687 -0.426493 -0.486858 0
M  V30 21 N -1.271219 -2.773368 -1.150713 0
M  V30 22 C -1.149728 -2.396228 -2.542442 0
M  V30 23 C 0.264108 -2.455643 -3.071037 0
M  V30 24 C -1.986348 -3.343371 -3.421562 0
M  V30 25 C -0.929975 -4.030366 -0.588137 0 CFG=2
M  V30 26 C -0.370202 -5.078817 -1.468097 0
M  V30 27 C -2.130255 -4.513933 0.186449 0
M  V30 28 O -2.689907 -5.661819 0.152519 0
M  V30 29 N -2.748893 -3.586745 1.089622 0
M  V30 30 C -3.537813 -3.938199 2.252007 0
M  V30 31 N 0.134402 2.332344 0.276588 0
M  V30 32 C 2.184947 1.518469 1.962778 0
M  V30 33 H -0.426225 0.897198 3.834216 0
M  V30 34 H 0.952259 1.807569 4.535382 0
M  V30 35 H 0.001841 0.742299 5.606957 0
M  V30 36 H 0.923033 -0.823843 3.253999 0
M  V30 37 H 1.265569 -1.121284 4.996173 0
M  V30 38 H 3.380647 -0.207776 4.584582 0
M  V30 39 H 5.096564 1.023197 3.442703 0
M  V30 40 H 5.772350 2.525904 1.590996 0
M  V30 41 H 4.037391 3.366566 -0.030431 0
M  V30 42 H 2.526058 3.883413 -1.357849 0
M  V30 43 H 0.447135 4.362183 -2.755381 0
M  V30 44 H -2.644003 2.603248 0.687325 0
M  V30 45 H -3.372673 0.820033 2.154607 0
M  V30 46 H -3.712765 -1.564120 2.545606 0
M  V30 47 H -1.031282 -0.096875 -1.334437 0
M  V30 48 H -1.540159 -1.408639 -2.767159 0
M  V30 49 H 0.399235 -3.317560 -3.791740 0
M  V30 50 H 0.504334 -1.567211 -3.730025 0
M  V30 51 H 1.032475 -2.421544 -2.286204 0
M  V30 52 H -2.714320 -3.916247 -2.806477 0
M  V30 53 H -2.616744 -2.792183 -4.151298 0
M  V30 54 H -1.328314 -4.001787 -4.019634 0
M  V30 55 H -0.149739 -3.862906 0.202760 0
M  V30 56 H -1.049403 -5.540880 -2.182721 0
M  V30 57 H -0.077733 -5.925557 -0.772703 0
M  V30 58 H 0.590034 -4.722242 -1.865350 0
M  V30 59 H -3.495286 -5.026409 2.362499 0
M  V30 60 H -4.556376 -3.553483 2.161101 0
M  V30 61 H -3.050572 -3.412461 3.112250 0
M  V30 62 H 1.148182 1.201857 2.095306 0
M  V30 END ATOM
M  V30 BEGIN BOND
M  V30 1 1 1 2
M  V30 2 1 2 3
M  V30 3 1 3 4
M  V30 4 2 4 5
M  V30 5 1 5 6
M  V30 6 2 6 7
M  V30 7 1 7 8
M  V30 8 1 8 9
M  V30 9 2 9 10
M  V30 10 1 10 11
M  V30 11 2 11 12
M  V30 12 1 12 13
M  V30 13 1 13 14
M  V30 14 1 14 15
M  V30 15 2 15 16
M  V30 16 1 16 17
M  V30 17 2 17 18
M  V30 18 1 18 19
M  V30 19 2 19 20
M  V30 20 1 19 21
M  V30 21 1 21 22
M  V30 22 1 22 23
M  V30 23 1 22 24
M  V30 24 1 21 25
M  V30 25 1 25 26
M  V30 26 1 25 27
M  V30 27 2 27 28
M  V30 28 1 27 29
M  V30 29 1 29 30
M  V30 30 2 13 31
M  V30 31 2 8 32
M  V30 32 1 32 4
M  V30 33 1 31 9
M  V30 34 1 20 15
M  V30 35 1 29 18
M  V30 36 1 1 33
M  V30 37 1 1 34
M  V30 38 1 1 35
M  V30 39 1 2 36
M  V30 40 1 2 37
M  V30 41 1 3 38
M  V30 42 1 5 39
M  V30 43 1 6 40
M  V30 44 1 7 41
M  V30 45 1 10 42
M  V30 46 1 11 43
M  V30 47 1 14 44
M  V30 48 1 16 45
M  V30 49 1 17 46
M  V30 50 1 20 47
M  V30 51 1 22 48
M  V30 52 1 23 49
M  V30 53 1 23 50
M  V30 54 1 23 51
M  V30 55 1 24 52
M  V30 56 1 24 53
M  V30 57 1 24 54
M  V30 58 1 25 55 CFG=1
M  V30 59 1 26 56
M  V30 60 1 26 57
M  V30 61 1 26 58
M  V30 62 1 30 59
M  V30 63 1 30 60
M  V30 64 1 30 61
M  V30 65 1 32 62
M  V30 END BOND
M  V30 END CTAB
M  END
>  <Dataset>  (876) 
ChEMBL_Kinases

>  <Ligand_Instance>  (876) 
nan

>  <PDB_ID>  (876) 
nan

>  <Standardized_SMILES>  (876) 
CCNc1cccc(-c2ccnc(Nc3ccc4c(c3)N(C(C)C)[C@H](C)C(=O)N4C)n2)c1

>  <Name>  (876) 
nan

>  <Pocket>  (876) 
nan

>  <ATP_Site>  (876) 
nan

>  <Peripheral>  (876) 
nan

>  <Num_H_Atoms_ProtBoundConf>  (876) 
nan

>  <Num_Resolved_Atoms>  (876) 
nan

>  <Num_Not_Resolved_Atoms>  (876) 
nan

$$$$
CHEMBL4171228
     RDKit          3D

  0  0  0  0  0  0  0  0  0  0999 V3000
M  V30 BEGIN CTAB
M  V30 COUNTS 54 59 0 0 0
M  V30 BEGIN ATOM
M  V30 1 C 3.141980 -1.895207 1.001245 0
M  V30 2 O 3.004346 -0.498461 1.182699 0
M  V30 3 C 1.796154 0.157058 0.882505 0
M  V30 4 C 0.654267 -0.459839 0.396242 0
M  V30 5 C -0.488032 0.222504 0.123049 0
M  V30 6 C -0.488279 1.578307 0.347749 0
M  V30 7 C 0.613162 2.250903 0.828930 0
M  V30 8 C 1.779849 1.539647 1.103940 0
M  V30 9 C 2.907405 2.259175 1.598924 0
M  V30 10 C 3.919936 2.855192 0.880526 0
M  V30 11 C 4.022017 2.851994 -0.623517 0
M  V30 12 N 4.738104 3.402499 1.802027 0
M  V30 13 O 4.277435 3.169012 2.994816 0
M  V30 14 C 3.161279 2.474921 2.947804 0
M  V30 15 C 2.422576 2.069479 4.172045 0
M  V30 16 N -1.738579 2.024607 0.029051 0
M  V30 17 C -2.500882 0.997315 -0.380542 0
M  V30 18 N -3.790666 0.869549 -0.781280 0
M  V30 19 C -4.287445 -0.354147 -1.119316 0
M  V30 20 C -5.702019 -0.521663 -1.560865 0
M  V30 21 N -3.484773 -1.426329 -1.051812 0
M  V30 22 C -2.198682 -1.385210 -0.667222 0
M  V30 23 C -1.498595 -2.653102 -0.683406 0
M  V30 24 C -0.468475 -2.867933 -1.614671 0
M  V30 25 C 0.263470 -4.015522 -1.823893 0
M  V30 26 N -0.051783 -5.069688 -1.028910 0
M  V30 27 C -1.028498 -4.919886 -0.121143 0
M  V30 28 C -1.356263 -5.990130 0.703279 0
M  V30 29 C -2.347974 -5.953735 1.687325 0
M  V30 30 C -3.032831 -4.737952 1.816226 0
M  V30 31 C -2.755942 -3.636583 1.028512 0
M  V30 32 C -1.756325 -3.791275 0.092576 0
M  V30 33 C -1.727631 -0.139810 -0.329204 0
M  V30 34 H 2.389219 -2.461442 1.591301 0
M  V30 35 H 4.164248 -2.188733 1.311658 0
M  V30 36 H 3.021566 -2.100269 -0.082897 0
M  V30 37 H 0.828061 -1.495503 0.307304 0
M  V30 38 H 0.565053 3.305992 0.988921 0
M  V30 39 H 3.094194 2.509652 -1.083105 0
M  V30 40 H 4.190514 3.892946 -0.968962 0
M  V30 41 H 4.922210 2.299743 -0.958123 0
M  V30 42 H 3.006145 1.391103 4.836685 0
M  V30 43 H 1.398109 1.729775 3.960639 0
M  V30 44 H 2.286522 2.994180 4.799170 0
M  V30 45 H -2.029885 3.024680 0.101833 0
M  V30 46 H -6.212795 -1.320269 -0.977133 0
M  V30 47 H -6.305703 0.397688 -1.359208 0
M  V30 48 H -5.793029 -0.694322 -2.651690 0
M  V30 49 H -0.225668 -2.006410 -2.248077 0
M  V30 50 H 1.026188 -4.021853 -2.584051 0
M  V30 51 H -0.788710 -6.919350 0.563489 0
M  V30 52 H -2.551146 -6.823177 2.294873 0
M  V30 53 H -3.794333 -4.730603 2.581845 0
M  V30 54 H -3.298110 -2.712970 1.150537 0
M  V30 END ATOM
M  V30 BEGIN BOND
M  V30 1 1 1 2
M  V30 2 1 2 3
M  V30 3 2 3 4
M  V30 4 1 4 5
M  V30 5 2 5 6
M  V30 6 1 6 7
M  V30 7 2 7 8
M  V30 8 1 8 9
M  V30 9 1 9 10
M  V30 10 1 10 11
M  V30 11 2 10 12
M  V30 12 1 12 13
M  V30 13 1 13 14
M  V30 14 1 14 15
M  V30 15 1 6 16
M  V30 16 1 16 17
M  V30 17 2 17 18
M  V30 18 1 18 19
M  V30 19 1 19 20
M  V30 20 2 19 21
M  V30 21 1 21 22
M  V30 22 1 22 23
M  V30 23 2 23 24
M  V30 24 1 24 25
M  V30 25 2 25 26
M  V30 26 1 26 27
M  V30 27 2 27 28
M  V30 28 1 28 29
M  V30 29 2 29 30
M  V30 30 1 30 31
M  V30 31 2 31 32
M  V30 32 2 22 33
M  V30 33 1 8 3
M  V30 34 2 14 9
M  V30 35 1 33 17
M  V30 36 1 33 5
M  V30 37 1 32 23
M  V30 38 1 32 27
M  V30 39 1 1 34
M  V30 40 1 1 35
M  V30 41 1 1 36
M  V30 42 1 4 37
M  V30 43 1 7 38
M  V30 44 1 11 39
M  V30 45 1 11 40
M  V30 46 1 11 41
M  V30 47 1 15 42
M  V30 48 1 15 43
M  V30 49 1 15 44
M  V30 50 1 16 45
M  V30 51 1 20 46
M  V30 52 1 20 47
M  V30 53 1 20 48
M  V30 54 1 24 49
M  V30 55 1 25 50
M  V30 56 1 28 51
M  V30 57 1 29 52
M  V30 58 1 30 53
M  V30 59 1 31 54
M  V30 END BOND
M  V30 END CTAB
M  END
>  <Dataset>  (877) 
ChEMBL_Kinases

>  <Ligand_Instance>  (877) 
nan

>  <PDB_ID>  (877) 
nan

>  <Standardized_SMILES>  (877) 
COc1cc2c(cc1-c1c(C)noc1C)[nH]c1nc(C)nc(-c3ccnc4ccccc34)c12

>  <Name>  (877) 
nan

>  <Pocket>  (877) 
nan

>  <ATP_Site>  (877) 
nan

>  <Peripheral>  (877) 
nan

>  <Num_H_Atoms_ProtBoundConf>  (877) 
nan

>  <Num_Resolved_Atoms>  (877) 
nan

>  <Num_Not_Resolved_Atoms>  (877) 
nan

$$$$
CHEMBL4785602
     RDKit          3D

  0  0  0  0  0  0  0  0  0  0999 V3000
M  V30 BEGIN CTAB
M  V30 COUNTS 51 54 0 0 0
M  V30 BEGIN ATOM
M  V30 1 N 1.564145 -4.999388 -2.545946 0
M  V30 2 C 1.611694 -3.909226 -1.626379 0
M  V30 3 N 2.811395 -3.655920 -1.079917 0
M  V30 4 C 2.994290 -2.660474 -0.200878 0
M  V30 5 C 1.883074 -1.944694 0.083300 0
M  V30 6 C 1.921875 -0.824837 1.025778 0
M  V30 7 C 3.075462 -0.342600 1.748761 0
M  V30 8 N 2.896846 0.684206 2.553349 0
M  V30 9 C 1.879797 1.261222 2.749775 0
M  V30 10 C 1.405944 2.392166 3.557931 0
M  V30 11 C 2.112532 3.669408 3.162023 0
M  V30 12 C 1.393963 4.755884 3.936112 0
M  V30 13 N 1.702635 4.583632 5.326898 0
M  V30 14 C 2.343867 3.329888 5.652248 0
M  V30 15 C 1.698643 2.133334 4.991054 0
M  V30 16 S 0.629226 0.330953 1.627048 0
M  V30 17 C 0.631298 -2.154179 -0.441310 0
M  V30 18 C 0.464389 -3.185116 -1.345357 0
M  V30 19 O -0.678095 -3.561789 -1.978215 0
M  V30 20 C -1.954426 -3.024332 -1.889363 0
M  V30 21 C -2.466453 -2.458502 -3.193179 0
M  V30 22 C -3.705441 -1.634602 -2.833429 0
M  V30 23 C -4.747233 -2.512135 -2.170215 0
M  V30 24 C -4.194595 -3.182201 -0.929883 0
M  V30 25 C -2.987661 -3.992420 -1.338096 0
M  V30 26 H 1.790475 -5.993830 -2.317024 0
M  V30 27 H 1.302926 -4.959310 -3.554490 0
M  V30 28 H 3.903399 -2.362601 0.301632 0
M  V30 29 H 4.064090 -0.777094 1.662988 0
M  V30 30 H 0.324491 2.597470 3.437220 0
M  V30 31 H 2.078799 3.840662 2.066819 0
M  V30 32 H 3.174687 3.691988 3.482386 0
M  V30 33 H 1.553415 5.752507 3.530497 0
M  V30 34 H 0.294804 4.523677 3.836697 0
M  V30 35 H 2.380990 5.350529 5.570453 0
M  V30 36 H 3.453018 3.345564 5.474215 0
M  V30 37 H 2.236038 3.184236 6.748991 0
M  V30 38 H 0.800051 1.831222 5.586310 0
M  V30 39 H 2.418701 1.283169 5.152116 0
M  V30 40 H -0.248335 -1.576764 -0.207628 0
M  V30 41 H -1.933931 -2.173651 -1.177403 0
M  V30 42 H -1.747943 -1.768915 -3.635628 0
M  V30 43 H -2.809173 -3.211673 -3.911448 0
M  V30 44 H -3.444435 -0.773745 -2.194740 0
M  V30 45 H -4.160062 -1.225322 -3.753482 0
M  V30 46 H -5.626646 -1.888036 -1.988780 0
M  V30 47 H -4.988912 -3.308746 -2.882750 0
M  V30 48 H -3.960242 -2.448651 -0.135454 0
M  V30 49 H -4.996304 -3.883362 -0.593211 0
M  V30 50 H -2.571777 -4.566868 -0.495565 0
M  V30 51 H -3.327590 -4.707441 -2.120171 0
M  V30 END ATOM
M  V30 BEGIN BOND
M  V30 1 1 1 2
M  V30 2 2 2 3
M  V30 3 1 3 4
M  V30 4 2 4 5
M  V30 5 1 5 6
M  V30 6 2 6 7
M  V30 7 1 7 8
M  V30 8 2 8 9
M  V30 9 1 9 10
M  V30 10 1 10 11
M  V30 11 1 11 12
M  V30 12 1 12 13
M  V30 13 1 13 14
M  V30 14 1 14 15
M  V30 15 1 9 16
M  V30 16 1 5 17
M  V30 17 2 17 18
M  V30 18 1 18 19
M  V30 19 1 19 20
M  V30 20 1 20 21
M  V30 21 1 21 22
M  V30 22 1 22 23
M  V30 23 1 23 24
M  V30 24 1 24 25
M  V30 25 1 18 2
M  V30 26 1 25 20
M  V30 27 1 16 6
M  V30 28 1 15 10
M  V30 29 1 1 26
M  V30 30 1 1 27
M  V30 31 1 4 28
M  V30 32 1 7 29
M  V30 33 1 10 30
M  V30 34 1 11 31
M  V30 35 1 11 32
M  V30 36 1 12 33
M  V30 37 1 12 34
M  V30 38 1 13 35
M  V30 39 1 14 36
M  V30 40 1 14 37
M  V30 41 1 15 38
M  V30 42 1 15 39
M  V30 43 1 17 40
M  V30 44 1 20 41
M  V30 45 1 21 42
M  V30 46 1 21 43
M  V30 47 1 22 44
M  V30 48 1 22 45
M  V30 49 1 23 46
M  V30 50 1 23 47
M  V30 51 1 24 48
M  V30 52 1 24 49
M  V30 53 1 25 50
M  V30 54 1 25 51
M  V30 END BOND
M  V30 END CTAB
M  END
>  <Dataset>  (878) 
ChEMBL_Kinases

>  <Ligand_Instance>  (878) 
nan

>  <PDB_ID>  (878) 
nan

>  <Standardized_SMILES>  (878) 
Nc1ncc(-c2cnc(C3CCNCC3)s2)cc1OC1CCCCC1

>  <Name>  (878) 
nan

>  <Pocket>  (878) 
nan

>  <ATP_Site>  (878) 
nan

>  <Peripheral>  (878) 
nan

>  <Num_H_Atoms_ProtBoundConf>  (878) 
nan

>  <Num_Resolved_Atoms>  (878) 
nan

>  <Num_Not_Resolved_Atoms>  (878) 
nan

$$$$
CHEMBL4171209
     RDKit          3D

  0  0  0  0  0  0  0  0  0  0999 V3000
M  V30 BEGIN CTAB
M  V30 COUNTS 59 63 0 0 0
M  V30 BEGIN ATOM
M  V30 1 O 0.848659 1.765283 2.157696 0
M  V30 2 C 0.885258 2.990275 2.395941 0
M  V30 3 N 1.878210 3.419784 3.280797 0
M  V30 4 C 2.904042 2.707088 3.991971 0
M  V30 5 C 3.884066 1.984663 3.159752 0
M  V30 6 N 3.446704 0.923467 2.322434 0
M  V30 7 C 4.597695 0.452524 1.501746 0
M  V30 8 C 4.086509 -0.540608 0.504087 0
M  V30 9 O 3.596705 -1.680660 1.163029 0
M  V30 10 C 2.571359 -1.249254 2.003934 0
M  V30 11 C 3.076017 -0.278744 3.063027 0
M  V30 12 N -0.055741 3.823306 1.767464 0
M  V30 13 C -1.090440 3.487480 0.866259 0
M  V30 14 C -1.874499 4.490738 0.372201 0
M  V30 15 C -2.907573 4.274352 -0.506252 0
M  V30 16 C -3.200066 2.997843 -0.934867 0
M  V30 17 C -2.441311 1.977460 -0.464086 0
M  V30 18 C -2.711391 0.623238 -0.885481 0
M  V30 19 C -3.687912 0.196179 -1.746509 0
M  V30 20 C -3.939704 -1.085607 -2.139669 0
M  V30 21 C -3.144356 -2.122838 -1.640811 0
M  V30 22 N -3.172825 -3.419860 -1.854066 0
M  V30 23 C -2.470803 -4.248826 -1.401257 0
M  V30 24 N -2.267169 -5.696424 -1.446577 0
M  V30 25 C -1.439181 -6.382458 -2.350912 0
M  V30 26 O -0.749721 -5.839780 -3.260093 0
M  V30 27 C -1.366748 -7.879540 -2.228646 0
M  V30 28 C -1.059572 -8.371877 -0.795848 0
M  V30 29 C -2.377914 -8.644751 -1.493471 0
M  V30 30 S -1.312930 -3.254431 -0.309040 0
M  V30 31 C -2.180105 -1.656952 -0.784126 0
M  V30 32 N -1.949005 -0.374897 -0.407872 0
M  V30 33 C -1.419090 2.247991 0.413527 0
M  V30 34 H 1.842629 4.477333 3.437559 0
M  V30 35 H 2.452637 2.075257 4.802413 0
M  V30 36 H 3.494249 3.464100 4.589655 0
M  V30 37 H 4.751341 1.603826 3.745182 0
M  V30 38 H 4.356890 2.751414 2.474483 0
M  V30 39 H 5.039075 1.316851 0.979282 0
M  V30 40 H 5.327597 -0.016364 2.181971 0
M  V30 41 H 3.304911 -0.094180 -0.138014 0
M  V30 42 H 4.984685 -0.889123 -0.083061 0
M  V30 43 H 1.888047 -0.645249 1.338196 0
M  V30 44 H 1.968809 -2.068989 2.404127 0
M  V30 45 H 2.269108 -0.140626 3.778609 0
M  V30 46 H 3.945494 -0.774209 3.544394 0
M  V30 47 H 0.050080 4.841780 2.024678 0
M  V30 48 H -1.724760 5.526672 0.648808 0
M  V30 49 H -3.513681 5.085398 -0.883345 0
M  V30 50 H -4.017286 2.858004 -1.624909 0
M  V30 51 H -4.349094 0.966031 -2.175433 0
M  V30 52 H -4.757527 -1.303628 -2.839228 0
M  V30 53 H -2.840650 -6.095739 -0.699537 0
M  V30 54 H -0.698329 -8.367226 -2.971390 0
M  V30 55 H -1.009203 -7.598659 -0.008943 0
M  V30 56 H -0.385505 -9.219324 -0.661668 0
M  V30 57 H -3.254485 -8.102078 -1.081150 0
M  V30 58 H -2.559498 -9.694147 -1.837777 0
M  V30 59 H -0.853832 1.393775 0.750362 0
M  V30 END ATOM
M  V30 BEGIN BOND
M  V30 1 2 1 2
M  V30 2 1 2 3
M  V30 3 1 3 4
M  V30 4 1 4 5
M  V30 5 1 5 6
M  V30 6 1 6 7
M  V30 7 1 7 8
M  V30 8 1 8 9
M  V30 9 1 9 10
M  V30 10 1 10 11
M  V30 11 1 2 12
M  V30 12 1 12 13
M  V30 13 2 13 14
M  V30 14 1 14 15
M  V30 15 2 15 16
M  V30 16 1 16 17
M  V30 17 1 17 18
M  V30 18 2 18 19
M  V30 19 1 19 20
M  V30 20 2 20 21
M  V30 21 1 21 22
M  V30 22 2 22 23
M  V30 23 1 23 24
M  V30 24 1 24 25
M  V30 25 2 25 26
M  V30 26 1 25 27
M  V30 27 1 27 28
M  V30 28 1 28 29
M  V30 29 1 23 30
M  V30 30 1 30 31
M  V30 31 2 31 32
M  V30 32 2 17 33
M  V30 33 1 11 6
M  V30 34 1 33 13
M  V30 35 1 32 18
M  V30 36 1 31 21
M  V30 37 1 29 27
M  V30 38 1 3 34
M  V30 39 1 4 35
M  V30 40 1 4 36
M  V30 41 1 5 37
M  V30 42 1 5 38
M  V30 43 1 7 39
M  V30 44 1 7 40
M  V30 45 1 8 41
M  V30 46 1 8 42
M  V30 47 1 10 43
M  V30 48 1 10 44
M  V30 49 1 11 45
M  V30 50 1 11 46
M  V30 51 1 12 47
M  V30 52 1 14 48
M  V30 53 1 15 49
M  V30 54 1 16 50
M  V30 55 1 19 51
M  V30 56 1 20 52
M  V30 57 1 24 53
M  V30 58 1 27 54
M  V30 59 1 28 55
M  V30 60 1 28 56
M  V30 61 1 29 57
M  V30 62 1 29 58
M  V30 63 1 33 59
M  V30 END BOND
M  V30 END CTAB
M  END
>  <Dataset>  (879) 
ChEMBL_Kinases

>  <Ligand_Instance>  (879) 
nan

>  <PDB_ID>  (879) 
nan

>  <Standardized_SMILES>  (879) 
O=C(NCCN1CCOCC1)Nc1cccc(-c2ccc3nc(NC(=O)C4CC4)sc3n2)c1

>  <Name>  (879) 
nan

>  <Pocket>  (879) 
nan

>  <ATP_Site>  (879) 
nan

>  <Peripheral>  (879) 
nan

>  <Num_H_Atoms_ProtBoundConf>  (879) 
nan

>  <Num_Resolved_Atoms>  (879) 
nan

>  <Num_Not_Resolved_Atoms>  (879) 
nan

$$$$
CHEMBL4786077
     RDKit          3D

  0  0  0  0  0  0  0  0  0  0999 V3000
M  V30 BEGIN CTAB
M  V30 COUNTS 57 59 0 0 0
M  V30 BEGIN ATOM
M  V30 1 C 2.570461 -0.837978 3.253018 0
M  V30 2 N 2.696682 -2.034564 2.428811 0
M  V30 3 C 2.389233 -3.204237 3.231479 0
M  V30 4 S 4.323894 -2.136317 1.872034 0
M  V30 5 O 5.260624 -1.414764 2.817087 0
M  V30 6 O 4.779679 -3.545828 1.813718 0
M  V30 7 N 4.433638 -1.355162 0.339807 0
M  V30 8 C 4.224923 -0.049569 -0.154645 0
M  V30 9 C 5.252482 0.499033 -0.934557 0
M  V30 10 C 5.245653 1.761277 -1.482009 0
M  V30 11 C 4.122477 2.511144 -1.218947 0
M  V30 12 C 3.117406 2.005331 -0.469840 0
M  V30 13 C 1.856853 2.783965 -0.113091 0
M  V30 14 N 0.876944 2.658263 0.417928 0
M  V30 15 C -0.101261 3.517063 0.610016 0
M  V30 16 C -1.341746 3.168153 1.328026 0
M  V30 17 C -1.995264 2.050261 1.084182 0
M  V30 18 S -1.426391 0.871396 -0.143142 0
M  V30 19 C -2.806940 -0.274041 0.139766 0
M  V30 20 N -3.067391 -1.521833 -0.524736 0
M  V30 21 C -4.077091 -2.383572 0.029892 0
M  V30 22 C -4.237961 -3.600627 -0.831672 0
M  V30 23 C -5.288093 -4.551479 -0.233194 0
M  V30 24 C -2.980445 -4.389212 -1.023249 0
M  V30 25 C -4.772891 -3.159341 -2.192813 0
M  V30 26 O -3.950479 -2.286718 -2.856288 0
M  V30 27 N -3.577943 0.198789 1.059572 0
M  V30 28 C -3.202384 1.423629 1.598451 0
M  V30 29 O -3.876451 2.006781 2.518847 0
M  V30 30 C 0.115036 4.776062 0.069887 0
M  V30 31 S 1.816396 4.569768 -0.707401 0
M  V30 32 C 3.136929 0.764608 0.061568 0
M  V30 33 H 1.513701 -0.483397 3.283167 0
M  V30 34 H 2.842552 -1.153454 4.293694 0
M  V30 35 H 3.249434 -0.080679 2.830709 0
M  V30 36 H 1.834816 -3.968332 2.636450 0
M  V30 37 H 3.361632 -3.618934 3.592347 0
M  V30 38 H 1.798995 -2.872519 4.118547 0
M  V30 39 H 4.723997 -1.996674 -0.445133 0
M  V30 40 H 6.148864 -0.108423 -1.140742 0
M  V30 41 H 6.065446 2.134314 -2.076531 0
M  V30 42 H 4.036471 3.509660 -1.610133 0
M  V30 43 H -1.810761 3.790547 2.103407 0
M  V30 44 H -2.418287 -1.604474 -1.365536 0
M  V30 45 H -5.039869 -1.843208 0.156344 0
M  V30 46 H -3.726318 -2.745225 1.038128 0
M  V30 47 H -5.844134 -5.011201 -1.060195 0
M  V30 48 H -6.016038 -3.957989 0.375575 0
M  V30 49 H -4.825857 -5.335588 0.380863 0
M  V30 50 H -2.348471 -4.014258 -1.861167 0
M  V30 51 H -2.391941 -4.498992 -0.089287 0
M  V30 52 H -3.285682 -5.417602 -1.339998 0
M  V30 53 H -5.744708 -2.628533 -1.983369 0
M  V30 54 H -4.980009 -4.053016 -2.825627 0
M  V30 55 H -4.298676 -1.355449 -2.918256 0
M  V30 56 H -0.636585 5.626623 0.152413 0
M  V30 57 H 2.336866 0.352770 0.656916 0
M  V30 END ATOM
M  V30 BEGIN BOND
M  V30 1 1 1 2
M  V30 2 1 2 3
M  V30 3 1 2 4
M  V30 4 2 4 5
M  V30 5 2 4 6
M  V30 6 1 4 7
M  V30 7 1 7 8
M  V30 8 2 8 9
M  V30 9 1 9 10
M  V30 10 2 10 11
M  V30 11 1 11 12
M  V30 12 1 12 13
M  V30 13 2 13 14
M  V30 14 1 14 15
M  V30 15 1 15 16
M  V30 16 2 16 17
M  V30 17 1 17 18
M  V30 18 1 18 19
M  V30 19 1 19 20
M  V30 20 1 20 21
M  V30 21 1 21 22
M  V30 22 1 22 23
M  V30 23 1 22 24
M  V30 24 1 22 25
M  V30 25 1 25 26
M  V30 26 2 19 27
M  V30 27 1 27 28
M  V30 28 2 28 29
M  V30 29 2 15 30
M  V30 30 1 30 31
M  V30 31 2 12 32
M  V30 32 1 32 8
M  V30 33 1 31 13
M  V30 34 1 28 17
M  V30 35 1 1 33
M  V30 36 1 1 34
M  V30 37 1 1 35
M  V30 38 1 3 36
M  V30 39 1 3 37
M  V30 40 1 3 38
M  V30 41 1 7 39
M  V30 42 1 9 40
M  V30 43 1 10 41
M  V30 44 1 11 42
M  V30 45 1 16 43
M  V30 46 1 20 44
M  V30 47 1 21 45
M  V30 48 1 21 46
M  V30 49 1 23 47
M  V30 50 1 23 48
M  V30 51 1 23 49
M  V30 52 1 24 50
M  V30 53 1 24 51
M  V30 54 1 24 52
M  V30 55 1 25 53
M  V30 56 1 25 54
M  V30 57 1 26 55
M  V30 58 1 30 56
M  V30 59 1 32 57
M  V30 END BOND
M  V30 END CTAB
M  END
>  <Dataset>  (880) 
ChEMBL_Kinases

>  <Ligand_Instance>  (880) 
nan

>  <PDB_ID>  (880) 
nan

>  <Standardized_SMILES>  (880) 
CN(C)S(=O)(=O)Nc1cccc(-c2nc(/C=C3\SC(NCC(C)(C)CO)=NC3=O)cs2)c1

>  <Name>  (880) 
nan

>  <Pocket>  (880) 
nan

>  <ATP_Site>  (880) 
nan

>  <Peripheral>  (880) 
nan

>  <Num_H_Atoms_ProtBoundConf>  (880) 
nan

>  <Num_Resolved_Atoms>  (880) 
nan

>  <Num_Not_Resolved_Atoms>  (880) 
nan

$$$$
CHEMBL4171103
     RDKit          3D

  0  0  0  0  0  0  0  0  0  0999 V3000
M  V30 BEGIN CTAB
M  V30 COUNTS 49 52 0 0 0
M  V30 BEGIN ATOM
M  V30 1 N -0.841848 -2.632285 -0.805618 0
M  V30 2 C 0.117308 -3.320217 -1.685653 0
M  V30 3 C 0.115665 -2.610803 -2.993341 0
M  V30 4 C 1.424460 -2.566909 -3.686420 0
M  V30 5 C 2.594244 -2.226772 -2.833461 0
M  V30 6 C 2.513525 -2.543693 -1.400620 0
M  V30 7 C 2.455153 -1.376846 -0.492835 0
M  V30 8 O 3.294685 -1.151698 0.450911 0
M  V30 9 N 1.475496 -0.347263 -0.531721 0
M  V30 10 C 1.474022 0.749905 0.372048 0
M  V30 11 C 2.095437 1.951714 0.209277 0
M  V30 12 C 1.995072 2.928440 1.197098 0
M  V30 13 C 1.256296 2.631913 2.320464 0
M  V30 14 N 0.980045 3.359224 3.428882 0
M  V30 15 N 0.210780 2.651424 4.270911 0
M  V30 16 C -0.048728 1.432387 3.749933 0
M  V30 17 N -0.808321 0.368515 4.281650 0
M  V30 18 C -2.200595 0.217724 4.046154 0
M  V30 19 C -2.882590 1.113712 3.278433 0
M  V30 20 C -4.247641 0.989651 3.031538 0
M  V30 21 C -4.875219 -0.095311 3.609451 0
M  V30 22 C -4.208065 -1.017135 4.390959 0
M  V30 23 C -2.854212 -0.857462 4.611191 0
M  V30 24 C 0.609594 1.424556 2.525463 0
M  V30 25 C 0.730495 0.473662 1.520861 0
M  V30 26 C 1.435691 -3.501755 -1.026737 0
M  V30 27 H -0.775926 -2.991986 0.170660 0
M  V30 28 H -1.784771 -2.814510 -1.200969 0
M  V30 29 H -0.329191 -4.361676 -1.770145 0
M  V30 30 H -0.577762 -3.194659 -3.672459 0
M  V30 31 H -0.379259 -1.595505 -2.969162 0
M  V30 32 H 1.333402 -1.778538 -4.490342 0
M  V30 33 H 1.563425 -3.511479 -4.274096 0
M  V30 34 H 2.921199 -1.159248 -3.014593 0
M  V30 35 H 3.455720 -2.803916 -3.282029 0
M  V30 36 H 3.481233 -3.066458 -1.094827 0
M  V30 37 H 0.734124 -0.384776 -1.240319 0
M  V30 38 H 2.642776 2.056996 -0.716952 0
M  V30 39 H 2.492223 3.856789 1.039680 0
M  V30 40 H 1.331832 4.343175 3.586061 0
M  V30 41 H -0.274799 -0.307294 4.865295 0
M  V30 42 H -2.362066 1.942354 2.847027 0
M  V30 43 H -4.830667 1.689673 2.419578 0
M  V30 44 H -5.949098 -0.246120 3.451014 0
M  V30 45 H -4.775342 -1.841970 4.808494 0
M  V30 46 H -2.394411 -1.600397 5.222196 0
M  V30 47 H 0.205601 -0.466557 1.719873 0
M  V30 48 H 1.246097 -3.360324 0.081497 0
M  V30 49 H 1.807807 -4.555702 -1.078704 0
M  V30 END ATOM
M  V30 BEGIN BOND
M  V30 1 1 1 2
M  V30 2 1 2 3
M  V30 3 1 3 4
M  V30 4 1 4 5
M  V30 5 1 5 6
M  V30 6 1 6 7
M  V30 7 2 7 8
M  V30 8 1 7 9
M  V30 9 1 9 10
M  V30 10 2 10 11
M  V30 11 1 11 12
M  V30 12 2 12 13
M  V30 13 1 13 14
M  V30 14 1 14 15
M  V30 15 2 15 16
M  V30 16 1 16 17
M  V30 17 1 17 18
M  V30 18 2 18 19
M  V30 19 1 19 20
M  V30 20 2 20 21
M  V30 21 1 21 22
M  V30 22 2 22 23
M  V30 23 1 16 24
M  V30 24 2 24 25
M  V30 25 1 6 26
M  V30 26 1 26 2
M  V30 27 1 25 10
M  V30 28 1 24 13
M  V30 29 1 23 18
M  V30 30 1 1 27
M  V30 31 1 1 28
M  V30 32 1 2 29
M  V30 33 1 3 30
M  V30 34 1 3 31
M  V30 35 1 4 32
M  V30 36 1 4 33
M  V30 37 1 5 34
M  V30 38 1 5 35
M  V30 39 1 6 36
M  V30 40 1 9 37
M  V30 41 1 11 38
M  V30 42 1 12 39
M  V30 43 1 14 40
M  V30 44 1 17 41
M  V30 45 1 19 42
M  V30 46 1 20 43
M  V30 47 1 21 44
M  V30 48 1 22 45
M  V30 49 1 23 46
M  V30 50 1 25 47
M  V30 51 1 26 48
M  V30 52 1 26 49
M  V30 END BOND
M  V30 END CTAB
M  END
>  <Dataset>  (881) 
ChEMBL_Kinases

>  <Ligand_Instance>  (881) 
nan

>  <PDB_ID>  (881) 
nan

>  <Standardized_SMILES>  (881) 
NC1CCCC(C(=O)Nc2ccc3[nH]nc(Nc4ccccc4)c3c2)C1

>  <Name>  (881) 
nan

>  <Pocket>  (881) 
nan

>  <ATP_Site>  (881) 
nan

>  <Peripheral>  (881) 
nan

>  <Num_H_Atoms_ProtBoundConf>  (881) 
nan

>  <Num_Resolved_Atoms>  (881) 
nan

>  <Num_Not_Resolved_Atoms>  (881) 
nan

$$$$
CHEMBL4171089
     RDKit          3D

  0  0  0  0  0  0  0  0  0  0999 V3000
M  V30 BEGIN CTAB
M  V30 COUNTS 55 58 0 0 0
M  V30 BEGIN ATOM
M  V30 1 C -1.880938 -0.937188 2.669010 0
M  V30 2 O -1.968587 0.067338 1.653169 0
M  V30 3 C -0.943268 0.955065 1.442865 0
M  V30 4 C 0.237218 0.991575 2.155077 0
M  V30 5 C 1.168594 1.946484 1.824506 0
M  V30 6 N 2.373053 1.995154 2.556599 0
M  V30 7 C 2.722878 1.204444 3.701954 0
M  V30 8 C 4.064255 0.569089 3.671215 0
M  V30 9 N 4.792834 0.732528 2.453671 0
M  V30 10 C 4.668069 -0.352967 1.528506 0
M  V30 11 C 4.727699 2.035307 1.877630 0
M  V30 12 C 3.530923 2.835638 2.336550 0
M  V30 13 C 0.921141 2.838355 0.807628 0
M  V30 14 C -0.250082 2.823388 0.080315 0
M  V30 15 C -1.199781 1.849795 0.417388 0
M  V30 16 N -2.424186 1.842226 -0.348880 0
M  V30 17 C -2.451309 0.513034 -1.000190 0
M  V30 18 N -2.079359 0.198785 -1.966058 0
M  V30 19 C -1.926225 -0.771124 -2.802871 0
M  V30 20 N -1.336726 -0.849417 -4.122286 0
M  V30 21 C -2.458578 -1.892818 -2.243455 0
M  V30 22 C -2.566756 -3.234249 -2.676421 0
M  V30 23 O -2.059397 -3.443542 -3.803924 0
M  V30 24 C -3.174285 -4.369878 -1.994624 0
M  V30 25 C -4.121028 -4.285914 -0.998912 0
M  V30 26 C -4.692043 -5.371020 -0.332468 0
M  V30 27 C -4.262183 -6.621152 -0.714234 0
M  V30 28 C -3.310064 -6.748157 -1.713549 0
M  V30 29 C -2.764004 -5.649213 -2.354502 0
M  V30 30 S -3.059627 -1.243270 -0.610916 0
M  V30 31 H -0.891068 -1.391609 2.727111 0
M  V30 32 H -2.628541 -1.743063 2.453714 0
M  V30 33 H -2.119902 -0.510394 3.671366 0
M  V30 34 H 0.302829 0.251240 2.910601 0
M  V30 35 H 2.718213 1.932551 4.571184 0
M  V30 36 H 1.985860 0.440747 3.995304 0
M  V30 37 H 4.005669 -0.521881 3.891228 0
M  V30 38 H 4.739792 0.970778 4.483218 0
M  V30 39 H 3.905765 -1.109319 1.803701 0
M  V30 40 H 4.403366 0.049704 0.530185 0
M  V30 41 H 5.683143 -0.813776 1.435185 0
M  V30 42 H 5.639502 2.596390 2.170751 0
M  V30 43 H 4.722413 1.952274 0.772396 0
M  V30 44 H 3.778522 3.469386 3.232761 0
M  V30 45 H 3.327146 3.557155 1.520929 0
M  V30 46 H 1.599647 3.612053 0.490106 0
M  V30 47 H -0.471985 3.514995 -0.727483 0
M  V30 48 H -3.211000 2.488229 -0.529009 0
M  V30 49 H -1.853988 -0.643820 -5.004770 0
M  V30 50 H -0.338408 -1.125701 -4.221581 0
M  V30 51 H -4.469498 -3.313827 -0.695085 0
M  V30 52 H -5.433318 -5.192908 0.439439 0
M  V30 53 H -4.707914 -7.446246 -0.193892 0
M  V30 54 H -2.996126 -7.746827 -1.987280 0
M  V30 55 H -2.023278 -5.845362 -3.125621 0
M  V30 END ATOM
M  V30 BEGIN BOND
M  V30 1 1 1 2
M  V30 2 1 2 3
M  V30 3 2 3 4
M  V30 4 1 4 5
M  V30 5 1 5 6
M  V30 6 1 6 7
M  V30 7 1 7 8
M  V30 8 1 8 9
M  V30 9 1 9 10
M  V30 10 1 9 11
M  V30 11 1 11 12
M  V30 12 2 5 13
M  V30 13 1 13 14
M  V30 14 2 14 15
M  V30 15 1 15 16
M  V30 16 1 16 17
M  V30 17 2 17 18
M  V30 18 1 18 19
M  V30 19 1 19 20
M  V30 20 2 19 21
M  V30 21 1 21 22
M  V30 22 2 22 23
M  V30 23 1 22 24
M  V30 24 2 24 25
M  V30 25 1 25 26
M  V30 26 2 26 27
M  V30 27 1 27 28
M  V30 28 2 28 29
M  V30 29 1 21 30
M  V30 30 1 15 3
M  V30 31 1 30 17
M  V30 32 1 12 6
M  V30 33 1 29 24
M  V30 34 1 1 31
M  V30 35 1 1 32
M  V30 36 1 1 33
M  V30 37 1 4 34
M  V30 38 1 7 35
M  V30 39 1 7 36
M  V30 40 1 8 37
M  V30 41 1 8 38
M  V30 42 1 10 39
M  V30 43 1 10 40
M  V30 44 1 10 41
M  V30 45 1 11 42
M  V30 46 1 11 43
M  V30 47 1 12 44
M  V30 48 1 12 45
M  V30 49 1 13 46
M  V30 50 1 14 47
M  V30 51 1 16 48
M  V30 52 1 20 49
M  V30 53 1 20 50
M  V30 54 1 25 51
M  V30 55 1 26 52
M  V30 56 1 27 53
M  V30 57 1 28 54
M  V30 58 1 29 55
M  V30 END BOND
M  V30 END CTAB
M  END
>  <Dataset>  (882) 
ChEMBL_Kinases

>  <Ligand_Instance>  (882) 
nan

>  <PDB_ID>  (882) 
nan

>  <Standardized_SMILES>  (882) 
COc1cc(N2CCN(C)CC2)ccc1Nc1nc(N)c(C(=O)c2ccccc2)s1

>  <Name>  (882) 
nan

>  <Pocket>  (882) 
nan

>  <ATP_Site>  (882) 
nan

>  <Peripheral>  (882) 
nan

>  <Num_H_Atoms_ProtBoundConf>  (882) 
nan

>  <Num_Resolved_Atoms>  (882) 
nan

>  <Num_Not_Resolved_Atoms>  (882) 
nan

$$$$
CHEMBL4170989
     RDKit          3D

  0  0  0  0  0  0  0  0  0  0999 V3000
M  V30 BEGIN CTAB
M  V30 COUNTS 50 54 0 0 0
M  V30 BEGIN ATOM
M  V30 1 N -0.836687 -2.032329 0.413556 0
M  V30 2 C -0.707336 -3.152445 0.237637 0
M  V30 3 C -0.569203 -4.552869 0.026713 0
M  V30 4 C 0.671326 -4.968504 -0.381445 0
M  V30 5 S 2.156250 -4.062861 -0.699839 0
M  V30 6 C 2.069635 -2.321031 -0.461228 0
M  V30 7 C 2.384041 -1.824402 0.810967 0
M  V30 8 C 2.326135 -0.454077 0.983301 0
M  V30 9 C 1.970838 0.365849 -0.070108 0
M  V30 10 C 1.909958 1.825181 0.116394 0
M  V30 11 N 2.178884 2.470177 1.266414 0
M  V30 12 C 2.032890 3.807965 1.112516 0
M  V30 13 C 2.198415 4.852735 2.001229 0
M  V30 14 C 1.967748 6.131715 1.525819 0
M  V30 15 C 2.106625 7.326668 2.360670 0
M  V30 16 N 2.497596 7.131049 3.716597 0
M  V30 17 O 1.934801 8.526933 2.076011 0
M  V30 18 C 1.583345 6.338919 0.196585 0
M  V30 19 C 1.427846 5.269283 -0.662909 0
M  V30 20 C 1.654816 3.973654 -0.205388 0
M  V30 21 N 1.583475 2.757132 -0.801831 0
M  V30 22 C 1.667825 -0.163301 -1.310250 0
M  V30 23 C 1.704695 -1.528649 -1.557056 0
M  V30 24 N 0.855067 -6.298257 -0.594906 0
M  V30 25 C -0.162783 -7.144203 -0.403200 0
M  V30 26 S -0.068370 -8.919167 -0.644574 0
M  V30 27 N -1.398714 -6.749709 0.001045 0
M  V30 28 C -1.610883 -5.423891 0.222175 0
M  V30 29 C -2.900955 -4.905605 0.658499 0
M  V30 30 C -3.436479 -5.662158 1.680784 0
M  V30 31 C -4.660205 -5.348875 2.246355 0
M  V30 32 C -5.369438 -4.261846 1.789117 0
M  V30 33 Cl -6.915665 -3.725999 2.382408 0
M  V30 34 C -4.826193 -3.505312 0.761520 0
M  V30 35 C -3.606473 -3.820038 0.199901 0
M  V30 36 H 2.654585 -2.511043 1.595810 0
M  V30 37 H 2.568289 -0.065073 1.964858 0
M  V30 38 H 2.494879 4.711557 3.031487 0
M  V30 39 H 2.495262 6.430122 4.493112 0
M  V30 40 H 2.541635 6.500965 4.548798 0
M  V30 41 H 1.407821 7.346217 -0.155834 0
M  V30 42 H 1.126535 5.404491 -1.712397 0
M  V30 43 H 1.322185 2.563301 -1.798589 0
M  V30 44 H 1.385924 0.486490 -2.146433 0
M  V30 45 H 1.480333 -2.004915 -2.498623 0
M  V30 46 H 0.137914 -9.105050 -2.042840 0
M  V30 47 H -2.992042 -6.537700 2.135823 0
M  V30 48 H -5.141716 -5.889415 3.044358 0
M  V30 49 H -5.279092 -2.631622 0.313783 0
M  V30 50 H -3.113818 -3.291491 -0.597527 0
M  V30 END ATOM
M  V30 BEGIN BOND
M  V30 1 3 1 2
M  V30 2 1 2 3
M  V30 3 2 3 4
M  V30 4 1 4 5
M  V30 5 1 5 6
M  V30 6 2 6 7
M  V30 7 1 7 8
M  V30 8 2 8 9
M  V30 9 1 9 10
M  V30 10 2 10 11
M  V30 11 1 11 12
M  V30 12 2 12 13
M  V30 13 1 13 14
M  V30 14 1 14 15
M  V30 15 1 15 16
M  V30 16 2 15 17
M  V30 17 2 14 18
M  V30 18 1 18 19
M  V30 19 2 19 20
M  V30 20 1 20 21
M  V30 21 1 9 22
M  V30 22 2 22 23
M  V30 23 1 4 24
M  V30 24 2 24 25
M  V30 25 1 25 26
M  V30 26 1 25 27
M  V30 27 2 27 28
M  V30 28 1 28 29
M  V30 29 2 29 30
M  V30 30 1 30 31
M  V30 31 2 31 32
M  V30 32 1 32 33
M  V30 33 1 32 34
M  V30 34 2 34 35
M  V30 35 1 28 3
M  V30 36 1 35 29
M  V30 37 1 23 6
M  V30 38 1 21 10
M  V30 39 1 20 12
M  V30 40 1 7 36
M  V30 41 1 8 37
M  V30 42 1 13 38
M  V30 43 1 16 39
M  V30 44 1 16 40
M  V30 45 1 18 41
M  V30 46 1 19 42
M  V30 47 1 21 43
M  V30 48 1 22 44
M  V30 49 1 23 45
M  V30 50 1 26 46
M  V30 51 1 30 47
M  V30 52 1 31 48
M  V30 53 1 34 49
M  V30 54 1 35 50
M  V30 END BOND
M  V30 END CTAB
M  END
>  <Dataset>  (883) 
ChEMBL_Kinases

>  <Ligand_Instance>  (883) 
nan

>  <PDB_ID>  (883) 
nan

>  <Standardized_SMILES>  (883) 
N#Cc1c(Sc2ccc(-c3nc4cc(C(N)=O)ccc4[nH]3)cc2)nc(S)nc1-c1ccc(Cl)cc1

>  <Name>  (883) 
nan

>  <Pocket>  (883) 
nan

>  <ATP_Site>  (883) 
nan

>  <Peripheral>  (883) 
nan

>  <Num_H_Atoms_ProtBoundConf>  (883) 
nan

>  <Num_Resolved_Atoms>  (883) 
nan

>  <Num_Not_Resolved_Atoms>  (883) 
nan

$$$$
CHEMBL4170978
     RDKit          3D

  0  0  0  0  0  0  0  0  0  0999 V3000
M  V30 BEGIN CTAB
M  V30 COUNTS 76 81 0 0 0
M  V30 BEGIN ATOM
M  V30 1 C 7.328053 -2.466400 1.734388 0
M  V30 2 C 6.053459 -2.063910 1.099949 0
M  V30 3 O 5.172745 -2.068428 1.995608 0
M  V30 4 N 5.960546 -1.751257 -0.284028 0
M  V30 5 C 7.208357 -1.852172 -1.060045 0
M  V30 6 C 4.743946 -1.352117 -0.942699 0 CFG=1
M  V30 7 C 3.753883 -2.476440 -0.834913 0
M  V30 8 C 2.372296 -2.081287 -1.282236 0
M  V30 9 C 1.901976 -0.942020 -0.415467 0 CFG=1
M  V30 10 C 1.901842 -1.376102 1.022535 0
M  V30 11 C 2.828907 0.223034 -0.626378 0 CFG=1
M  V30 12 C 2.307234 1.355265 0.231754 0
M  V30 13 C 0.997288 1.812695 -0.417987 0
M  V30 14 C 0.007806 0.671327 -0.156759 0 CFG=2
M  V30 15 C 0.517019 -0.542898 -0.874241 0 CFG=2
M  V30 16 C -0.401848 -1.704059 -0.870327 0
M  V30 17 C -1.848204 -1.362959 -1.097027 0
M  V30 18 C -2.241455 -0.161087 -0.278091 0 CFG=2
M  V30 19 C -2.099673 -0.517298 1.158056 0
M  V30 20 C -3.618549 0.343660 -0.605268 0 CFG=1
M  V30 21 C -4.640714 0.045348 0.416594 0
M  V30 22 C -4.761415 0.697434 1.648519 0
M  V30 23 C -5.730465 0.384111 2.577110 0
M  V30 24 C -6.644299 -0.615369 2.315479 0
M  V30 25 C -7.639638 -0.981570 3.197331 0
M  V30 26 C -8.554991 -1.999907 2.907107 0
M  V30 27 N -8.425031 -2.616278 1.718928 0
M  V30 28 C -7.480082 -2.312038 0.811618 0
M  V30 29 C -6.590279 -1.304828 1.121620 0
M  V30 30 C -5.602636 -0.954318 0.225511 0
M  V30 31 C -3.457729 1.824696 -0.822850 0
M  V30 32 C -2.056721 2.153449 -0.276636 0
M  V30 33 C -1.332741 0.954846 -0.749928 0 CFG=1
M  V30 34 C 4.254603 -0.079861 -0.304660 0
M  V30 35 H 8.166023 -2.495000 1.002541 0
M  V30 36 H 7.209713 -3.458420 2.235034 0
M  V30 37 H 7.566564 -1.738376 2.544708 0
M  V30 38 H 7.921754 -1.137869 -0.632380 0
M  V30 39 H 7.614582 -2.894317 -0.920469 0
M  V30 40 H 6.987555 -1.728335 -2.121853 0
M  V30 41 H 4.969359 -1.177113 -2.010745 0
M  V30 42 H 3.680813 -2.922178 0.164281 0
M  V30 43 H 4.104916 -3.278859 -1.521296 0
M  V30 44 H 2.382121 -1.809381 -2.352044 0
M  V30 45 H 1.750543 -2.995702 -1.153565 0
M  V30 46 H 2.759751 -0.879759 1.528595 0
M  V30 47 H 1.010402 -1.017263 1.586195 0
M  V30 48 H 1.990500 -2.450355 1.192464 0
M  V30 49 H 2.706300 0.589323 -1.684141 0
M  V30 50 H 2.999458 2.206080 0.198456 0
M  V30 51 H 2.162606 1.054128 1.275822 0
M  V30 52 H 0.643222 2.749324 0.025417 0
M  V30 53 H 1.179670 1.851430 -1.492969 0
M  V30 54 H -0.049865 0.591543 0.930733 0
M  V30 55 H 0.646630 -0.227027 -1.949411 0
M  V30 56 H -0.253653 -2.399294 -0.017758 0
M  V30 57 H -0.129171 -2.335119 -1.768945 0
M  V30 58 H -1.967185 -1.081032 -2.163964 0
M  V30 59 H -2.427608 -2.270827 -0.865890 0
M  V30 60 H -1.338829 -1.328623 1.334360 0
M  V30 61 H -1.973544 0.319274 1.843713 0
M  V30 62 H -3.057086 -1.039580 1.454809 0
M  V30 63 H -3.932342 -0.211881 -1.532619 0
M  V30 64 H -4.069033 1.470584 1.868707 0
M  V30 65 H -5.793933 0.906762 3.515687 0
M  V30 66 H -7.724362 -0.460998 4.162577 0
M  V30 67 H -9.334950 -2.285445 3.600396 0
M  V30 68 H -7.411315 -2.833087 -0.132131 0
M  V30 69 H -5.550292 -1.489264 -0.714934 0
M  V30 70 H -4.244168 2.421686 -0.326920 0
M  V30 71 H -3.414246 2.012275 -1.915895 0
M  V30 72 H -2.050723 2.210241 0.808983 0
M  V30 73 H -1.711725 3.087515 -0.774289 0
M  V30 74 H -1.285785 0.885884 -1.856296 0
M  V30 75 H 4.443546 -0.015564 0.784854 0
M  V30 76 H 4.872897 0.741525 -0.744931 0
M  V30 END ATOM
M  V30 BEGIN BOND
M  V30 1 1 1 2
M  V30 2 2 2 3
M  V30 3 1 2 4
M  V30 4 1 4 5
M  V30 5 1 4 6
M  V30 6 1 6 7
M  V30 7 1 7 8
M  V30 8 1 8 9
M  V30 9 1 9 10 CFG=1
M  V30 10 1 9 11
M  V30 11 1 11 12
M  V30 12 1 12 13
M  V30 13 1 13 14
M  V30 14 1 14 15
M  V30 15 1 15 16
M  V30 16 1 16 17
M  V30 17 1 17 18
M  V30 18 1 18 19 CFG=1
M  V30 19 1 18 20
M  V30 20 1 20 21
M  V30 21 2 21 22
M  V30 22 1 22 23
M  V30 23 2 23 24
M  V30 24 1 24 25
M  V30 25 2 25 26
M  V30 26 1 26 27
M  V30 27 2 27 28
M  V30 28 1 28 29
M  V30 29 2 29 30
M  V30 30 1 20 31
M  V30 31 1 31 32
M  V30 32 1 32 33
M  V30 33 1 11 34
M  V30 34 1 34 6
M  V30 35 1 15 9
M  V30 36 1 33 18
M  V30 37 1 33 14
M  V30 38 1 30 21
M  V30 39 1 29 24
M  V30 40 1 1 35
M  V30 41 1 1 36
M  V30 42 1 1 37
M  V30 43 1 5 38
M  V30 44 1 5 39
M  V30 45 1 5 40
M  V30 46 1 6 41 CFG=3
M  V30 47 1 7 42
M  V30 48 1 7 43
M  V30 49 1 8 44
M  V30 50 1 8 45
M  V30 51 1 10 46
M  V30 52 1 10 47
M  V30 53 1 10 48
M  V30 54 1 11 49 CFG=3
M  V30 55 1 12 50
M  V30 56 1 12 51
M  V30 57 1 13 52
M  V30 58 1 13 53
M  V30 59 1 14 54 CFG=1
M  V30 60 1 15 55 CFG=3
M  V30 61 1 16 56
M  V30 62 1 16 57
M  V30 63 1 17 58
M  V30 64 1 17 59
M  V30 65 1 19 60
M  V30 66 1 19 61
M  V30 67 1 19 62
M  V30 68 1 20 63 CFG=3
M  V30 69 1 22 64
M  V30 70 1 23 65
M  V30 71 1 25 66
M  V30 72 1 26 67
M  V30 73 1 28 68
M  V30 74 1 30 69
M  V30 75 1 31 70
M  V30 76 1 31 71
M  V30 77 1 32 72
M  V30 78 1 32 73
M  V30 79 1 33 74 CFG=3
M  V30 80 1 34 75
M  V30 81 1 34 76
M  V30 END BOND
M  V30 END CTAB
M  END
>  <Dataset>  (884) 
ChEMBL_Kinases

>  <Ligand_Instance>  (884) 
nan

>  <PDB_ID>  (884) 
nan

>  <Standardized_SMILES>  (884) 
CC(=O)N(C)[C@H]1CC[C@@]2(C)[C@@H](CC[C@@H]3[C@@H]2CC[C@]2(C)[C@@H](c4ccc5ccncc5c4)CC[C@@H]32)C1

>  <Name>  (884) 
nan

>  <Pocket>  (884) 
nan

>  <ATP_Site>  (884) 
nan

>  <Peripheral>  (884) 
nan

>  <Num_H_Atoms_ProtBoundConf>  (884) 
nan

>  <Num_Resolved_Atoms>  (884) 
nan

>  <Num_Not_Resolved_Atoms>  (884) 
nan

$$$$
CHEMBL4170874
     RDKit          3D

  0  0  0  0  0  0  0  0  0  0999 V3000
M  V30 BEGIN CTAB
M  V30 COUNTS 61 65 0 0 0
M  V30 BEGIN ATOM
M  V30 1 C 3.834912 -2.583382 2.180593 0
M  V30 2 O 3.174442 -1.489728 1.627159 0
M  V30 3 C 3.679655 -0.571885 0.724383 0
M  V30 4 O 4.640939 -1.327122 0.896989 0
M  V30 5 C 2.642340 0.400762 0.419007 0
M  V30 6 C 2.636691 1.499630 1.248007 0
M  V30 7 C 3.599507 1.691980 2.353763 0
M  V30 8 N 1.662398 2.418106 0.971982 0
M  V30 9 C 0.824774 2.167153 -0.055970 0
M  V30 10 N -0.221159 3.037064 -0.438955 0
M  V30 11 N -1.481502 2.854519 0.161745 0
M  V30 12 C -1.636482 1.810001 1.113584 0
M  V30 13 O -0.650317 1.055283 1.412672 0
M  V30 14 C -2.824474 1.417688 1.870932 0
M  V30 15 C -3.333549 2.353690 2.751489 0
M  V30 16 C -4.448733 2.101981 3.522915 0
M  V30 17 C -5.058745 0.869735 3.394461 0
M  V30 18 C -4.557720 -0.069321 2.519037 0
M  V30 19 C -5.192511 -1.301528 2.410429 0
M  V30 20 O -6.201359 -1.621226 3.062264 0
M  V30 21 C -4.617902 -2.173320 1.509300 0
M  V30 22 C -5.213623 -3.428410 1.355893 0
M  V30 23 C -4.749535 -4.387688 0.498398 0
M  V30 24 C -3.630193 -4.139221 -0.277555 0
M  V30 25 C -3.033860 -2.903987 -0.134848 0
M  V30 26 C -3.489330 -1.935087 0.720338 0
M  V30 27 N -2.910761 -0.722220 0.864119 0
M  V30 28 C -3.428636 0.167608 1.728974 0
M  V30 29 N 0.862523 1.061512 -0.858146 0
M  V30 30 C 1.811797 0.103598 -0.636937 0
M  V30 31 C 1.898018 -1.093467 -1.458104 0
M  V30 32 C 0.683860 -1.734418 -1.716692 0
M  V30 33 C 0.691069 -2.872419 -2.490959 0
M  V30 34 C 1.873152 -3.344020 -2.983059 0
M  V30 35 C 3.089543 -2.710571 -2.729819 0
M  V30 36 O 4.224021 -3.283496 -3.283800 0
M  V30 37 C 5.532737 -2.785164 -3.135734 0
M  V30 38 C 3.091601 -1.571635 -1.956676 0
M  V30 39 H 3.109680 -3.071754 2.897449 0
M  V30 40 H 4.735752 -2.335264 2.789426 0
M  V30 41 H 4.036966 -3.322599 1.374577 0
M  V30 42 H 3.978177 0.762152 2.770957 0
M  V30 43 H 4.432899 2.349689 1.975277 0
M  V30 44 H 3.095594 2.268444 3.170715 0
M  V30 45 H -0.183555 3.821865 -1.129604 0
M  V30 46 H -2.337060 3.389363 0.002188 0
M  V30 47 H -2.882527 3.327378 2.876947 0
M  V30 48 H -4.901967 2.785343 4.231840 0
M  V30 49 H -5.937704 0.634064 3.984420 0
M  V30 50 H -6.107369 -3.745311 1.915987 0
M  V30 51 H -5.207385 -5.355357 0.377950 0
M  V30 52 H -3.241594 -4.871296 -0.958701 0
M  V30 53 H -2.159767 -2.699246 -0.735638 0
M  V30 54 H -2.070739 -0.492563 0.302704 0
M  V30 55 H -0.244309 -1.348359 -1.319596 0
M  V30 56 H -0.276944 -3.343791 -2.670268 0
M  V30 57 H 1.772610 -4.243370 -3.578171 0
M  V30 58 H 5.483586 -1.698677 -3.033491 0
M  V30 59 H 6.142525 -3.108079 -4.016091 0
M  V30 60 H 5.954447 -3.246292 -2.199090 0
M  V30 61 H 4.007284 -1.077948 -1.755534 0
M  V30 END ATOM
M  V30 BEGIN BOND
M  V30 1 1 1 2
M  V30 2 1 2 3
M  V30 3 2 3 4
M  V30 4 1 3 5
M  V30 5 2 5 6
M  V30 6 1 6 7
M  V30 7 1 6 8
M  V30 8 2 8 9
M  V30 9 1 9 10
M  V30 10 1 10 11
M  V30 11 1 11 12
M  V30 12 2 12 13
M  V30 13 1 12 14
M  V30 14 2 14 15
M  V30 15 1 15 16
M  V30 16 2 16 17
M  V30 17 1 17 18
M  V30 18 1 18 19
M  V30 19 2 19 20
M  V30 20 1 19 21
M  V30 21 2 21 22
M  V30 22 1 22 23
M  V30 23 2 23 24
M  V30 24 1 24 25
M  V30 25 2 25 26
M  V30 26 1 26 27
M  V30 27 1 27 28
M  V30 28 1 9 29
M  V30 29 2 29 30
M  V30 30 1 30 31
M  V30 31 2 31 32
M  V30 32 1 32 33
M  V30 33 2 33 34
M  V30 34 1 34 35
M  V30 35 1 35 36
M  V30 36 1 36 37
M  V30 37 2 35 38
M  V30 38 1 30 5
M  V30 39 1 38 31
M  V30 40 1 28 14
M  V30 41 2 28 18
M  V30 42 1 26 21
M  V30 43 1 1 39
M  V30 44 1 1 40
M  V30 45 1 1 41
M  V30 46 1 7 42
M  V30 47 1 7 43
M  V30 48 1 7 44
M  V30 49 1 10 45
M  V30 50 1 11 46
M  V30 51 1 15 47
M  V30 52 1 16 48
M  V30 53 1 17 49
M  V30 54 1 22 50
M  V30 55 1 23 51
M  V30 56 1 24 52
M  V30 57 1 25 53
M  V30 58 1 27 54
M  V30 59 1 32 55
M  V30 60 1 33 56
M  V30 61 1 34 57
M  V30 62 1 37 58
M  V30 63 1 37 59
M  V30 64 1 37 60
M  V30 65 1 38 61
M  V30 END BOND
M  V30 END CTAB
M  END
>  <Dataset>  (885) 
ChEMBL_Kinases

>  <Ligand_Instance>  (885) 
nan

>  <PDB_ID>  (885) 
nan

>  <Standardized_SMILES>  (885) 
COC(=O)c1c(C)nc(NNC(=O)c2cccc3c(=O)c4ccccc4[nH]c23)nc1-c1cccc(OC)c1

>  <Name>  (885) 
nan

>  <Pocket>  (885) 
nan

>  <ATP_Site>  (885) 
nan

>  <Peripheral>  (885) 
nan

>  <Num_H_Atoms_ProtBoundConf>  (885) 
nan

>  <Num_Resolved_Atoms>  (885) 
nan

>  <Num_Not_Resolved_Atoms>  (885) 
nan

$$$$
CHEMBL4170718
     RDKit          3D

  0  0  0  0  0  0  0  0  0  0999 V3000
M  V30 BEGIN CTAB
M  V30 COUNTS 52 54 0 0 0
M  V30 BEGIN ATOM
M  V30 1 C -0.491289 -3.257504 5.159508 0
M  V30 2 C 0.992412 -3.525669 5.038015 0
M  V30 3 C 1.721250 -2.203890 4.769876 0
M  V30 4 C 3.207261 -2.416735 4.639843 0
M  V30 5 O 3.939259 -1.246672 4.394730 0
M  V30 6 C 3.731602 -0.446804 3.268167 0
M  V30 7 N 4.227176 0.554185 2.887162 0
M  V30 8 C 3.962728 1.238520 1.804688 0
M  V30 9 C 4.674476 2.494038 1.445394 0
M  V30 10 C 2.945573 0.725478 0.960334 0
M  V30 11 C 2.340196 1.155585 -0.321573 0
M  V30 12 C 2.559500 2.220063 -1.116969 0
M  V30 13 C 1.924881 2.506219 -2.297581 0
M  V30 14 N 0.996440 1.602982 -2.657386 0
M  V30 15 C 0.720566 0.516639 -1.918157 0
M  V30 16 N -0.268216 -0.414933 -2.332363 0
M  V30 17 C -1.648375 -0.496799 -2.068462 0
M  V30 18 C -2.165648 0.500527 -1.254351 0
M  V30 19 C -3.527756 0.435112 -0.980834 0
M  V30 20 C -4.308177 -0.576794 -1.501231 0
M  V30 21 O -5.683217 -0.701196 -1.265686 0
M  V30 22 C -6.386645 0.222251 -0.459275 0
M  V30 23 C -3.738308 -1.542017 -2.305380 0
M  V30 24 C -2.392871 -1.529230 -2.611539 0
M  V30 25 O -1.729767 -2.452706 -3.408614 0
M  V30 26 C -2.488891 -3.509889 -3.965493 0
M  V30 27 N 1.388009 0.310101 -0.774135 0
M  V30 28 S 2.487864 -0.725740 1.867780 0
M  V30 29 H -0.762556 -3.090797 6.210821 0
M  V30 30 H -1.090725 -4.140404 4.813663 0
M  V30 31 H -0.718307 -2.370280 4.548261 0
M  V30 32 H 1.175074 -4.260206 4.250591 0
M  V30 33 H 1.323156 -3.963141 6.003812 0
M  V30 34 H 1.295237 -1.796542 3.841699 0
M  V30 35 H 1.462345 -1.500649 5.573564 0
M  V30 36 H 3.327904 -3.072384 3.727638 0
M  V30 37 H 3.638897 -2.897450 5.516826 0
M  V30 38 H 4.010918 3.380563 1.408043 0
M  V30 39 H 5.486510 2.740140 2.167097 0
M  V30 40 H 5.219838 2.382756 0.470175 0
M  V30 41 H 3.314746 2.883863 -0.747907 0
M  V30 42 H 2.222431 3.404882 -2.812480 0
M  V30 43 H 0.321714 -1.052885 -2.910047 0
M  V30 44 H -1.543786 1.288250 -0.852659 0
M  V30 45 H -4.001580 1.181836 -0.350932 0
M  V30 46 H -6.108423 0.159527 0.612562 0
M  V30 47 H -7.465049 -0.086486 -0.546394 0
M  V30 48 H -6.279928 1.265874 -0.771142 0
M  V30 49 H -4.326906 -2.349110 -2.728392 0
M  V30 50 H -3.113125 -3.165293 -4.819096 0
M  V30 51 H -3.197258 -3.969803 -3.234899 0
M  V30 52 H -1.816820 -4.303924 -4.383583 0
M  V30 END ATOM
M  V30 BEGIN BOND
M  V30 1 1 1 2
M  V30 2 1 2 3
M  V30 3 1 3 4
M  V30 4 1 4 5
M  V30 5 1 5 6
M  V30 6 2 6 7
M  V30 7 1 7 8
M  V30 8 1 8 9
M  V30 9 2 8 10
M  V30 10 1 10 11
M  V30 11 2 11 12
M  V30 12 1 12 13
M  V30 13 2 13 14
M  V30 14 1 14 15
M  V30 15 1 15 16
M  V30 16 1 16 17
M  V30 17 2 17 18
M  V30 18 1 18 19
M  V30 19 2 19 20
M  V30 20 1 20 21
M  V30 21 1 21 22
M  V30 22 1 20 23
M  V30 23 2 23 24
M  V30 24 1 24 25
M  V30 25 1 25 26
M  V30 26 2 15 27
M  V30 27 1 10 28
M  V30 28 1 28 6
M  V30 29 1 27 11
M  V30 30 1 24 17
M  V30 31 1 1 29
M  V30 32 1 1 30
M  V30 33 1 1 31
M  V30 34 1 2 32
M  V30 35 1 2 33
M  V30 36 1 3 34
M  V30 37 1 3 35
M  V30 38 1 4 36
M  V30 39 1 4 37
M  V30 40 1 9 38
M  V30 41 1 9 39
M  V30 42 1 9 40
M  V30 43 1 12 41
M  V30 44 1 13 42
M  V30 45 1 16 43
M  V30 46 1 18 44
M  V30 47 1 19 45
M  V30 48 1 22 46
M  V30 49 1 22 47
M  V30 50 1 22 48
M  V30 51 1 23 49
M  V30 52 1 26 50
M  V30 53 1 26 51
M  V30 54 1 26 52
M  V30 END BOND
M  V30 END CTAB
M  END
>  <Dataset>  (886) 
ChEMBL_Kinases

>  <Ligand_Instance>  (886) 
nan

>  <PDB_ID>  (886) 
nan

>  <Standardized_SMILES>  (886) 
CCCCOc1nc(C)c(-c2ccnc(Nc3ccc(OC)cc3OC)n2)s1

>  <Name>  (886) 
nan

>  <Pocket>  (886) 
nan

>  <ATP_Site>  (886) 
nan

>  <Peripheral>  (886) 
nan

>  <Num_H_Atoms_ProtBoundConf>  (886) 
nan

>  <Num_Resolved_Atoms>  (886) 
nan

>  <Num_Not_Resolved_Atoms>  (886) 
nan

$$$$
CHEMBL4170698
     RDKit          3D

  0  0  0  0  0  0  0  0  0  0999 V3000
M  V30 BEGIN CTAB
M  V30 COUNTS 44 47 0 0 0
M  V30 BEGIN ATOM
M  V30 1 C 2.057741 -4.271907 4.090689 0
M  V30 2 O 1.795872 -5.093178 2.979084 0
M  V30 3 C 1.195435 -4.687703 1.807372 0
M  V30 4 C 0.740145 -3.424403 1.488504 0
M  V30 5 C 0.146308 -3.103501 0.284734 0
M  V30 6 C -0.304313 -1.751090 -0.018092 0
M  V30 7 C 0.471359 -0.744454 0.555739 0
M  V30 8 N 0.097895 0.523890 0.316629 0
M  V30 9 C -0.954255 0.892447 -0.423764 0
M  V30 10 C -1.421775 2.172071 -0.718174 0
M  V30 11 N -0.779606 3.373730 -0.256419 0
M  V30 12 C 0.070598 4.339580 -0.921446 0
M  V30 13 C 1.431054 4.297320 -0.309445 0
M  V30 14 C 1.475865 4.354697 1.177802 0
M  V30 15 F 1.582203 5.680316 1.589546 0
M  V30 16 F 2.673546 3.731616 1.561109 0
M  V30 17 C 0.360450 3.642424 1.888840 0
M  V30 18 C -0.966508 3.729759 1.159613 0
M  V30 19 S -2.827953 2.038276 -1.709677 0
M  V30 20 N -2.834555 0.171724 -1.765872 0
M  V30 21 C -1.731601 -0.083537 -0.997625 0
M  V30 22 C -1.395998 -1.405533 -0.787638 0
M  V30 23 C 0.040327 -4.158189 -0.590342 0
M  V30 24 C 0.449273 -5.455145 -0.399992 0
M  V30 25 C 1.033369 -5.682486 0.835885 0
M  V30 26 N 1.480688 -7.032932 1.075397 0
M  V30 27 H 3.097726 -4.445431 4.496409 0
M  V30 28 H 1.302072 -4.578618 4.871551 0
M  V30 29 H 1.915199 -3.209773 3.878351 0
M  V30 30 H 0.865387 -2.661213 2.242184 0
M  V30 31 H 1.349071 -0.818960 1.178347 0
M  V30 32 H 0.176968 4.116935 -2.001140 0
M  V30 33 H -0.381848 5.341163 -0.722764 0
M  V30 34 H 1.972165 5.216173 -0.685389 0
M  V30 35 H 2.022303 3.453761 -0.746751 0
M  V30 36 H 0.222208 4.176551 2.859879 0
M  V30 37 H 0.589343 2.592021 2.154414 0
M  V30 38 H -1.339882 4.755388 1.251651 0
M  V30 39 H -1.661973 3.044023 1.648822 0
M  V30 40 H -1.875546 -2.290009 -1.146549 0
M  V30 41 H -0.422482 -3.938031 -1.545589 0
M  V30 42 H 0.340531 -6.243293 -1.124602 0
M  V30 43 H 2.468689 -7.333545 1.329559 0
M  V30 44 H 0.872390 -7.901751 1.026748 0
M  V30 END ATOM
M  V30 BEGIN BOND
M  V30 1 1 1 2
M  V30 2 1 2 3
M  V30 3 2 3 4
M  V30 4 1 4 5
M  V30 5 1 5 6
M  V30 6 1 6 7
M  V30 7 2 7 8
M  V30 8 1 8 9
M  V30 9 2 9 10
M  V30 10 1 10 11
M  V30 11 1 11 12
M  V30 12 1 12 13
M  V30 13 1 13 14
M  V30 14 1 14 15
M  V30 15 1 14 16
M  V30 16 1 14 17
M  V30 17 1 17 18
M  V30 18 1 10 19
M  V30 19 1 19 20
M  V30 20 2 20 21
M  V30 21 1 21 22
M  V30 22 2 5 23
M  V30 23 1 23 24
M  V30 24 2 24 25
M  V30 25 1 25 26
M  V30 26 1 25 3
M  V30 27 2 22 6
M  V30 28 1 21 9
M  V30 29 1 18 11
M  V30 30 1 1 27
M  V30 31 1 1 28
M  V30 32 1 1 29
M  V30 33 1 4 30
M  V30 34 1 7 31
M  V30 35 1 12 32
M  V30 36 1 12 33
M  V30 37 1 13 34
M  V30 38 1 13 35
M  V30 39 1 17 36
M  V30 40 1 17 37
M  V30 41 1 18 38
M  V30 42 1 18 39
M  V30 43 1 22 40
M  V30 44 1 23 41
M  V30 45 1 24 42
M  V30 46 1 26 43
M  V30 47 1 26 44
M  V30 END BOND
M  V30 END CTAB
M  END
>  <Dataset>  (887) 
ChEMBL_Kinases

>  <Ligand_Instance>  (887) 
nan

>  <PDB_ID>  (887) 
nan

>  <Standardized_SMILES>  (887) 
COc1cc(-c2cnc3c(N4CCC(F)(F)CC4)snc3c2)ccc1N

>  <Name>  (887) 
nan

>  <Pocket>  (887) 
nan

>  <ATP_Site>  (887) 
nan

>  <Peripheral>  (887) 
nan

>  <Num_H_Atoms_ProtBoundConf>  (887) 
nan

>  <Num_Resolved_Atoms>  (887) 
nan

>  <Num_Not_Resolved_Atoms>  (887) 
nan

$$$$
CHEMBL4170643
     RDKit          3D

  0  0  0  0  0  0  0  0  0  0999 V3000
M  V30 BEGIN CTAB
M  V30 COUNTS 46 50 0 0 0
M  V30 BEGIN ATOM
M  V30 1 C 0.334642 -5.177366 3.539972 0
M  V30 2 O -0.880161 -5.567606 2.956025 0
M  V30 3 C -1.437500 -4.824044 1.946068 0
M  V30 4 C -1.038420 -3.667685 1.311337 0
M  V30 5 C -1.728106 -3.042896 0.296306 0
M  V30 6 C -1.101429 -1.818238 -0.225035 0
M  V30 7 C -0.369954 -1.051952 0.692154 0
M  V30 8 N 0.226915 0.061148 0.247926 0
M  V30 9 C 0.205793 0.539007 -0.995834 0
M  V30 10 C 0.764481 1.632925 -1.572973 0
M  V30 11 N 1.574594 2.562542 -0.728443 0
M  V30 12 C 0.954024 3.770007 -0.168588 0
M  V30 13 C 1.287129 3.805987 1.313265 0
M  V30 14 C 2.456296 4.723771 1.589809 0
M  V30 15 C 3.559041 3.728969 1.884478 0
M  V30 16 C 3.006803 2.471034 1.245148 0
M  V30 17 C 2.971715 2.551068 -0.265787 0
M  V30 18 O 1.678528 2.535691 1.695506 0
M  V30 19 S 0.383503 1.703106 -3.224171 0
M  V30 20 N -0.636657 0.129718 -3.234015 0
M  V30 21 C -0.500477 -0.187906 -1.912025 0
M  V30 22 C -1.141342 -1.347125 -1.526024 0
M  V30 23 C -2.936770 -3.608103 -0.146771 0
M  V30 24 C -3.362706 -4.781529 0.483611 0
M  V30 25 C -2.626874 -5.352388 1.490358 0
M  V30 26 N -3.212757 -6.537868 2.015195 0
M  V30 27 H 1.158237 -5.894644 3.340359 0
M  V30 28 H 0.609537 -4.137165 3.311235 0
M  V30 29 H 0.210959 -5.216618 4.660130 0
M  V30 30 H -0.105768 -3.274119 1.679269 0
M  V30 31 H -0.229690 -1.258441 1.744072 0
M  V30 32 H -0.139895 3.748889 -0.261726 0
M  V30 33 H 1.314663 4.675401 -0.708176 0
M  V30 34 H 0.417257 4.129821 1.904888 0
M  V30 35 H 2.250916 5.423239 2.422453 0
M  V30 36 H 2.737370 5.235251 0.633946 0
M  V30 37 H 4.534372 4.037614 1.458204 0
M  V30 38 H 3.586442 3.538398 2.977858 0
M  V30 39 H 3.544686 1.613649 1.646625 0
M  V30 40 H 3.483712 1.712085 -0.768056 0
M  V30 41 H 3.433983 3.487824 -0.591035 0
M  V30 42 H -1.751213 -2.059254 -2.104958 0
M  V30 43 H -3.404472 -3.055809 -0.937534 0
M  V30 44 H -4.297940 -5.152662 0.089145 0
M  V30 45 H -3.430116 -6.345649 3.025143 0
M  V30 46 H -3.465054 -7.504544 1.658568 0
M  V30 END ATOM
M  V30 BEGIN BOND
M  V30 1 1 1 2
M  V30 2 1 2 3
M  V30 3 2 3 4
M  V30 4 1 4 5
M  V30 5 1 5 6
M  V30 6 1 6 7
M  V30 7 2 7 8
M  V30 8 1 8 9
M  V30 9 2 9 10
M  V30 10 1 10 11
M  V30 11 1 11 12
M  V30 12 1 12 13
M  V30 13 1 13 14
M  V30 14 1 14 15
M  V30 15 1 15 16
M  V30 16 1 16 17
M  V30 17 1 16 18
M  V30 18 1 10 19
M  V30 19 1 19 20
M  V30 20 2 20 21
M  V30 21 1 21 22
M  V30 22 2 5 23
M  V30 23 1 23 24
M  V30 24 2 24 25
M  V30 25 1 25 26
M  V30 26 1 25 3
M  V30 27 2 22 6
M  V30 28 1 21 9
M  V30 29 1 17 11
M  V30 30 1 18 13
M  V30 31 1 1 27
M  V30 32 1 1 28
M  V30 33 1 1 29
M  V30 34 1 4 30
M  V30 35 1 7 31
M  V30 36 1 12 32
M  V30 37 1 12 33
M  V30 38 1 13 34
M  V30 39 1 14 35
M  V30 40 1 14 36
M  V30 41 1 15 37
M  V30 42 1 15 38
M  V30 43 1 16 39
M  V30 44 1 17 40
M  V30 45 1 17 41
M  V30 46 1 22 42
M  V30 47 1 23 43
M  V30 48 1 24 44
M  V30 49 1 26 45
M  V30 50 1 26 46
M  V30 END BOND
M  V30 END CTAB
M  END
>  <Dataset>  (888) 
ChEMBL_Kinases

>  <Ligand_Instance>  (888) 
nan

>  <PDB_ID>  (888) 
nan

>  <Standardized_SMILES>  (888) 
COc1cc(-c2cnc3c(N4CC5CCC(C4)O5)snc3c2)ccc1N

>  <Name>  (888) 
nan

>  <Pocket>  (888) 
nan

>  <ATP_Site>  (888) 
nan

>  <Peripheral>  (888) 
nan

>  <Num_H_Atoms_ProtBoundConf>  (888) 
nan

>  <Num_Resolved_Atoms>  (888) 
nan

>  <Num_Not_Resolved_Atoms>  (888) 
nan

$$$$
CHEMBL4170635
     RDKit          3D

  0  0  0  0  0  0  0  0  0  0999 V3000
M  V30 BEGIN CTAB
M  V30 COUNTS 44 47 0 0 0
M  V30 BEGIN ATOM
M  V30 1 O 4.908519 -1.198605 1.492071 0
M  V30 2 C 3.767420 -1.015189 0.992353 0
M  V30 3 O 2.829513 -2.009257 1.230849 0
M  V30 4 C 3.528475 0.198282 0.221264 0
M  V30 5 N 4.565327 1.046118 0.100173 0
M  V30 6 C 4.450340 2.209343 -0.598443 0
M  V30 7 C 5.533400 3.056427 -0.703503 0
M  V30 8 C 5.374683 4.224940 -1.420615 0
M  V30 9 C 4.148705 4.503123 -2.002709 0
M  V30 10 C 3.058253 3.644578 -1.893680 0
M  V30 11 C 3.217644 2.476125 -1.176370 0
M  V30 12 N 2.177838 1.623275 -1.053481 0
M  V30 13 C 2.303000 0.462622 -0.352902 0
M  V30 14 N 1.231767 -0.459875 -0.204376 0
M  V30 15 C 0.288108 -0.461921 0.856593 0
M  V30 16 C 0.376549 0.474547 1.856466 0
M  V30 17 C -0.576494 0.428637 2.878845 0
M  V30 18 C -1.541383 -0.553311 2.815231 0
M  V30 19 C -1.653882 -1.504203 1.825443 0
M  V30 20 N -2.644904 -2.499794 1.776987 0
M  V30 21 C -3.690055 -2.687595 2.761059 0
M  V30 22 C -5.015002 -2.799478 1.994573 0
M  V30 23 O -4.995520 -3.858279 1.113703 0
M  V30 24 C -3.762274 -4.430932 0.917528 0
M  V30 25 C -2.653013 -3.432744 0.666864 0
M  V30 26 C -0.692749 -1.415600 0.844111 0
M  V30 27 H 3.109486 -2.992489 1.213533 0
M  V30 28 H 6.454815 2.764779 -0.219062 0
M  V30 29 H 6.222146 4.896824 -1.507793 0
M  V30 30 H 4.121646 5.439609 -2.542881 0
M  V30 31 H 2.120233 3.926994 -2.378491 0
M  V30 32 H 1.208509 -1.157402 -0.978908 0
M  V30 33 H 1.140467 1.233420 1.885142 0
M  V30 34 H -0.537141 1.150128 3.682282 0
M  V30 35 H -2.246371 -0.541127 3.626178 0
M  V30 36 H -3.505413 -3.681656 3.264121 0
M  V30 37 H -3.736357 -1.909621 3.524052 0
M  V30 38 H -5.111572 -1.856564 1.419245 0
M  V30 39 H -5.846187 -2.871758 2.730862 0
M  V30 40 H -3.840390 -5.037492 -0.015845 0
M  V30 41 H -3.486682 -5.071960 1.775140 0
M  V30 42 H -2.794507 -2.875005 -0.273723 0
M  V30 43 H -1.686603 -3.966345 0.711780 0
M  V30 44 H -0.722460 -2.142386 0.023920 0
M  V30 END ATOM
M  V30 BEGIN BOND
M  V30 1 2 1 2
M  V30 2 1 2 3
M  V30 3 1 2 4
M  V30 4 2 4 5
M  V30 5 1 5 6
M  V30 6 2 6 7
M  V30 7 1 7 8
M  V30 8 2 8 9
M  V30 9 1 9 10
M  V30 10 2 10 11
M  V30 11 1 11 12
M  V30 12 2 12 13
M  V30 13 1 13 14
M  V30 14 1 14 15
M  V30 15 2 15 16
M  V30 16 1 16 17
M  V30 17 2 17 18
M  V30 18 1 18 19
M  V30 19 1 19 20
M  V30 20 1 20 21
M  V30 21 1 21 22
M  V30 22 1 22 23
M  V30 23 1 23 24
M  V30 24 1 24 25
M  V30 25 2 19 26
M  V30 26 1 13 4
M  V30 27 1 26 15
M  V30 28 1 11 6
M  V30 29 1 25 20
M  V30 30 1 3 27
M  V30 31 1 7 28
M  V30 32 1 8 29
M  V30 33 1 9 30
M  V30 34 1 10 31
M  V30 35 1 14 32
M  V30 36 1 16 33
M  V30 37 1 17 34
M  V30 38 1 18 35
M  V30 39 1 21 36
M  V30 40 1 21 37
M  V30 41 1 22 38
M  V30 42 1 22 39
M  V30 43 1 24 40
M  V30 44 1 24 41
M  V30 45 1 25 42
M  V30 46 1 25 43
M  V30 47 1 26 44
M  V30 END BOND
M  V30 END CTAB
M  END
>  <Dataset>  (889) 
ChEMBL_Kinases

>  <Ligand_Instance>  (889) 
nan

>  <PDB_ID>  (889) 
nan

>  <Standardized_SMILES>  (889) 
O=C(O)c1nc2ccccc2nc1Nc1cccc(N2CCOCC2)c1

>  <Name>  (889) 
nan

>  <Pocket>  (889) 
nan

>  <ATP_Site>  (889) 
nan

>  <Peripheral>  (889) 
nan

>  <Num_H_Atoms_ProtBoundConf>  (889) 
nan

>  <Num_Resolved_Atoms>  (889) 
nan

>  <Num_Not_Resolved_Atoms>  (889) 
nan

$$$$
CHEMBL4170582
     RDKit          3D

  0  0  0  0  0  0  0  0  0  0999 V3000
M  V30 BEGIN CTAB
M  V30 COUNTS 65 70 0 0 0
M  V30 BEGIN ATOM
M  V30 1 C -1.165469 -1.463013 0.266201 0
M  V30 2 C -0.455617 -1.124173 1.525040 0 CFG=2
M  V30 3 C -0.993033 0.198800 2.010798 0
M  V30 4 C -0.687649 1.279491 1.031693 0
M  V30 5 C 0.681076 1.276684 0.459338 0 CFG=1
M  V30 6 C 1.270805 -0.088687 0.185587 0 CFG=1
M  V30 7 C 2.743240 0.082322 -0.079922 0
M  V30 8 C 3.105872 1.418928 -0.564420 0
M  V30 9 C 2.274664 2.382499 -0.922163 0
M  V30 10 C 2.810205 3.672115 -1.388188 0
M  V30 11 C 1.775417 4.745057 -1.480120 0 CFG=1
M  V30 12 O 2.176835 5.693069 -2.445761 0
M  V30 13 C 0.414884 4.271695 -1.874675 0
M  V30 14 C -0.062668 3.260028 -0.888032 0
M  V30 15 C 0.806977 2.043797 -0.810050 0 CFG=2
M  V30 16 C 0.527917 1.217999 -2.056406 0
M  V30 17 C 1.036075 -0.914464 1.390000 0 CFG=2
M  V30 18 C 1.571042 -2.299447 1.395682 0
M  V30 19 C 0.835962 -2.843533 2.633603 0
M  V30 20 C -0.556068 -2.220324 2.523274 0 CFG=2
M  V30 21 C -1.565692 -3.263787 2.212289 0
M  V30 22 C -2.688425 -3.312181 3.046929 0
M  V30 23 C -3.717598 -4.246935 2.881485 0
M  V30 24 C -3.637774 -5.166170 1.857882 0
M  V30 25 C -4.658862 -6.072919 1.715188 0
M  V30 26 N -4.564600 -6.962854 0.710828 0
M  V30 27 C -3.493514 -6.931784 -0.101045 0
M  V30 28 C -2.446856 -6.037406 0.008564 0
M  V30 29 C -2.532054 -5.119643 1.034861 0
M  V30 30 C -1.531430 -4.190491 1.217091 0
M  V30 31 H -0.584124 -2.044628 -0.477300 0
M  V30 32 H -2.141881 -1.920069 0.532048 0
M  V30 33 H -1.473221 -0.540837 -0.317683 0
M  V30 34 H -2.076082 0.145538 2.169982 0
M  V30 35 H -0.530886 0.428811 2.991419 0
M  V30 36 H -1.482468 1.417887 0.239989 0
M  V30 37 H -0.782002 2.244060 1.616930 0
M  V30 38 H 1.375891 1.742272 1.218161 0
M  V30 39 H 0.808267 -0.577649 -0.694470 0
M  V30 40 H 3.058247 -0.738540 -0.764779 0
M  V30 41 H 3.282833 -0.088086 0.882738 0
M  V30 42 H 4.167248 1.591013 -0.618939 0
M  V30 43 H 3.398627 3.603766 -2.316611 0
M  V30 44 H 3.541579 4.018929 -0.600351 0
M  V30 45 H 1.654133 5.320628 -0.518703 0
M  V30 46 H 1.447528 5.952223 -3.049333 0
M  V30 47 H -0.265108 5.161460 -1.765023 0
M  V30 48 H 0.329114 3.983013 -2.934604 0
M  V30 49 H -1.082586 2.920365 -1.232451 0
M  V30 50 H -0.116078 3.768865 0.100488 0
M  V30 51 H -0.449758 0.740747 -2.069816 0
M  V30 52 H 1.389754 0.546924 -2.294219 0
M  V30 53 H 0.519850 1.948035 -2.909569 0
M  V30 54 H 1.355090 -0.385005 2.315571 0
M  V30 55 H 1.304642 -2.834066 0.484965 0
M  V30 56 H 2.671227 -2.264973 1.587623 0
M  V30 57 H 0.821274 -3.935924 2.669747 0
M  V30 58 H 1.370720 -2.458905 3.519603 0
M  V30 59 H -0.829031 -1.800627 3.537886 0
M  V30 60 H -2.839218 -2.624527 3.884467 0
M  V30 61 H -4.567168 -4.255397 3.542476 0
M  V30 62 H -5.531639 -6.096015 2.379069 0
M  V30 63 H -3.414476 -7.649067 -0.912974 0
M  V30 64 H -1.597797 -6.038270 -0.661660 0
M  V30 65 H -0.687225 -4.174428 0.574561 0
M  V30 END ATOM
M  V30 BEGIN BOND
M  V30 1 1 2 1 CFG=3
M  V30 2 1 2 3
M  V30 3 1 3 4
M  V30 4 1 4 5
M  V30 5 1 5 6
M  V30 6 1 6 7
M  V30 7 1 7 8
M  V30 8 2 8 9
M  V30 9 1 9 10
M  V30 10 1 10 11
M  V30 11 1 11 12
M  V30 12 1 11 13
M  V30 13 1 13 14
M  V30 14 1 14 15
M  V30 15 1 15 16 CFG=3
M  V30 16 1 6 17
M  V30 17 1 17 18
M  V30 18 1 18 19
M  V30 19 1 19 20
M  V30 20 1 20 21
M  V30 21 2 21 22
M  V30 22 1 22 23
M  V30 23 2 23 24
M  V30 24 1 24 25
M  V30 25 2 25 26
M  V30 26 1 26 27
M  V30 27 2 27 28
M  V30 28 1 28 29
M  V30 29 2 29 30
M  V30 30 1 17 2
M  V30 31 1 30 21
M  V30 32 1 20 2
M  V30 33 1 29 24
M  V30 34 1 15 5
M  V30 35 1 15 9
M  V30 36 1 1 31
M  V30 37 1 1 32
M  V30 38 1 1 33
M  V30 39 1 3 34
M  V30 40 1 3 35
M  V30 41 1 4 36
M  V30 42 1 4 37
M  V30 43 1 5 38 CFG=1
M  V30 44 1 6 39 CFG=3
M  V30 45 1 7 40
M  V30 46 1 7 41
M  V30 47 1 8 42
M  V30 48 1 10 43
M  V30 49 1 10 44
M  V30 50 1 11 45 CFG=1
M  V30 51 1 12 46
M  V30 52 1 13 47
M  V30 53 1 13 48
M  V30 54 1 14 49
M  V30 55 1 14 50
M  V30 56 1 16 51
M  V30 57 1 16 52
M  V30 58 1 16 53
M  V30 59 1 17 54 CFG=1
M  V30 60 1 18 55
M  V30 61 1 18 56
M  V30 62 1 19 57
M  V30 63 1 19 58
M  V30 64 1 20 59 CFG=1
M  V30 65 1 22 60
M  V30 66 1 23 61
M  V30 67 1 25 62
M  V30 68 1 27 63
M  V30 69 1 28 64
M  V30 70 1 30 65
M  V30 END BOND
M  V30 END CTAB
M  END
>  <Dataset>  (890) 
ChEMBL_Kinases

>  <Ligand_Instance>  (890) 
nan

>  <PDB_ID>  (890) 
nan

>  <Standardized_SMILES>  (890) 
C[C@]12CC[C@H]3[C@@H](CC=C4C[C@@H](O)CC[C@@]43C)[C@@H]1CC[C@@H]2c1ccc2cnccc2c1

>  <Name>  (890) 
nan

>  <Pocket>  (890) 
nan

>  <ATP_Site>  (890) 
nan

>  <Peripheral>  (890) 
nan

>  <Num_H_Atoms_ProtBoundConf>  (890) 
nan

>  <Num_Resolved_Atoms>  (890) 
nan

>  <Num_Not_Resolved_Atoms>  (890) 
nan

$$$$
CHEMBL4786053
     RDKit          3D

  0  0  0  0  0  0  0  0  0  0999 V3000
M  V30 BEGIN CTAB
M  V30 COUNTS 31 34 0 0 0
M  V30 BEGIN ATOM
M  V30 1 O -0.265148 -1.933966 2.777308 0
M  V30 2 C -0.035737 -1.028206 1.928150 0
M  V30 3 C 0.876663 -0.048709 2.271272 0
M  V30 4 C 1.493248 -0.093818 3.505920 0
M  V30 5 C 2.408891 0.912673 3.816834 0
M  V30 6 F 2.996786 0.844196 5.030095 0
M  V30 7 C 2.731721 1.952862 2.954432 0
M  V30 8 C 2.093427 1.967517 1.721760 0
M  V30 9 C 1.199954 0.984479 1.419657 0
M  V30 10 N 0.577343 0.981167 0.242157 0
M  V30 11 C 0.646885 1.811613 -0.803680 0
M  V30 12 S 1.500713 3.159183 -1.093764 0
M  V30 13 N -0.181485 1.384775 -1.771127 0
M  V30 14 N -0.775519 0.274442 -1.324184 0
M  V30 15 C -0.305789 0.019408 -0.070545 0
M  V30 16 N -0.642754 -0.990742 0.722429 0
M  V30 17 C -1.578039 -2.039980 0.434770 0
M  V30 18 C -0.879784 -3.228222 -0.230420 0
M  V30 19 C -1.693366 -4.396459 -0.594696 0
M  V30 20 C -1.155963 -3.477299 -1.667013 0
M  V30 21 H 1.288220 -0.875780 4.225720 0
M  V30 22 H 3.443085 2.675338 3.280294 0
M  V30 23 H 2.387455 2.793391 1.108719 0
M  V30 24 H -0.422958 1.734825 -2.726113 0
M  V30 25 H -2.081470 -2.348448 1.379525 0
M  V30 26 H -2.385311 -1.712473 -0.264153 0
M  V30 27 H 0.199877 -3.326125 0.042595 0
M  V30 28 H -1.255739 -5.417026 -0.499274 0
M  V30 29 H -2.769348 -4.374301 -0.386245 0
M  V30 30 H -0.383614 -3.921489 -2.300799 0
M  V30 31 H -1.877605 -2.807139 -2.214159 0
M  V30 END ATOM
M  V30 BEGIN BOND
M  V30 1 2 1 2
M  V30 2 1 2 3
M  V30 3 2 3 4
M  V30 4 1 4 5
M  V30 5 1 5 6
M  V30 6 2 5 7
M  V30 7 1 7 8
M  V30 8 2 8 9
M  V30 9 1 9 10
M  V30 10 1 10 11
M  V30 11 2 11 12
M  V30 12 1 11 13
M  V30 13 1 13 14
M  V30 14 2 14 15
M  V30 15 1 15 16
M  V30 16 1 16 17
M  V30 17 1 17 18
M  V30 18 1 18 19
M  V30 19 1 19 20
M  V30 20 1 16 2
M  V30 21 1 20 18
M  V30 22 1 9 3
M  V30 23 1 15 10
M  V30 24 1 4 21
M  V30 25 1 7 22
M  V30 26 1 8 23
M  V30 27 1 13 24
M  V30 28 1 17 25
M  V30 29 1 17 26
M  V30 30 1 18 27
M  V30 31 1 19 28
M  V30 32 1 19 29
M  V30 33 1 20 30
M  V30 34 1 20 31
M  V30 END BOND
M  V30 END CTAB
M  END
>  <Dataset>  (891) 
ChEMBL_Kinases

>  <Ligand_Instance>  (891) 
nan

>  <PDB_ID>  (891) 
nan

>  <Standardized_SMILES>  (891) 
O=c1c2cc(F)ccc2n2c(=S)[nH]nc2n1CC1CC1

>  <Name>  (891) 
nan

>  <Pocket>  (891) 
nan

>  <ATP_Site>  (891) 
nan

>  <Peripheral>  (891) 
nan

>  <Num_H_Atoms_ProtBoundConf>  (891) 
nan

>  <Num_Resolved_Atoms>  (891) 
nan

>  <Num_Not_Resolved_Atoms>  (891) 
nan

$$$$
CHEMBL4173266
     RDKit          3D

  0  0  0  0  0  0  0  0  0  0999 V3000
M  V30 BEGIN CTAB
M  V30 COUNTS 32 34 0 0 0
M  V30 BEGIN ATOM
M  V30 1 C -0.589842 -4.630038 4.485375 0
M  V30 2 O 0.184274 -3.423149 4.544908 0
M  V30 3 C 0.218507 -2.538060 3.480258 0
M  V30 4 C 1.021286 -1.421429 3.715157 0
M  V30 5 C 1.145484 -0.446182 2.721723 0
M  V30 6 C 0.453670 -0.649874 1.545846 0
M  V30 7 C -0.349224 -1.740908 1.277857 0
M  V30 8 C -0.453817 -2.694201 2.283851 0
M  V30 9 N -0.883400 -1.645222 0.045340 0
M  V30 10 C -0.413067 -0.485908 -0.465179 0
M  V30 11 C -0.638084 0.110847 -1.698361 0
M  V30 12 C -1.524379 -0.513223 -2.738796 0
M  V30 13 N -0.050531 1.283028 -1.981829 0
M  V30 14 C 0.764876 1.952926 -1.147441 0
M  V30 15 C 1.367658 3.252331 -1.562488 0
M  V30 16 O 2.581909 3.102889 -2.191842 0
M  V30 17 C 1.005806 1.378964 0.089551 0
M  V30 18 C 0.418286 0.166587 0.424664 0
M  V30 19 H -0.184320 -5.226168 3.633876 0
M  V30 20 H -0.470594 -5.194193 5.409966 0
M  V30 21 H -1.649097 -4.458015 4.295600 0
M  V30 22 H 1.565440 -1.260540 4.639195 0
M  V30 23 H 1.758468 0.446871 2.849226 0
M  V30 24 H -1.058307 -3.583569 2.169267 0
M  V30 25 H -1.517420 -2.331983 -0.390597 0
M  V30 26 H -2.388949 0.151760 -2.974351 0
M  V30 27 H -0.954499 -0.819532 -3.627693 0
M  V30 28 H -1.957636 -1.422938 -2.275059 0
M  V30 29 H 1.377994 3.946152 -0.708722 0
M  V30 30 H 0.634398 3.706262 -2.291207 0
M  V30 31 H 2.634434 3.765819 -2.937284 0
M  V30 32 H 1.648564 1.876400 0.786564 0
M  V30 END ATOM
M  V30 BEGIN BOND
M  V30 1 1 1 2
M  V30 2 1 2 3
M  V30 3 2 3 4
M  V30 4 1 4 5
M  V30 5 2 5 6
M  V30 6 1 6 7
M  V30 7 2 7 8
M  V30 8 1 7 9
M  V30 9 1 9 10
M  V30 10 2 10 11
M  V30 11 1 11 12
M  V30 12 1 11 13
M  V30 13 2 13 14
M  V30 14 1 14 15
M  V30 15 1 15 16
M  V30 16 1 14 17
M  V30 17 2 17 18
M  V30 18 1 8 3
M  V30 19 1 18 10
M  V30 20 1 18 6
M  V30 21 1 1 19
M  V30 22 1 1 20
M  V30 23 1 1 21
M  V30 24 1 4 22
M  V30 25 1 5 23
M  V30 26 1 8 24
M  V30 27 1 9 25
M  V30 28 1 12 26
M  V30 29 1 12 27
M  V30 30 1 12 28
M  V30 31 1 15 29
M  V30 32 1 15 30
M  V30 33 1 16 31
M  V30 34 1 17 32
M  V30 END BOND
M  V30 END CTAB
M  END
>  <Dataset>  (892) 
ChEMBL_Kinases

>  <Ligand_Instance>  (892) 
nan

>  <PDB_ID>  (892) 
nan

>  <Standardized_SMILES>  (892) 
COc1ccc2c(c1)[nH]c1c(C)nc(CO)cc12

>  <Name>  (892) 
nan

>  <Pocket>  (892) 
nan

>  <ATP_Site>  (892) 
nan

>  <Peripheral>  (892) 
nan

>  <Num_H_Atoms_ProtBoundConf>  (892) 
nan

>  <Num_Resolved_Atoms>  (892) 
nan

>  <Num_Not_Resolved_Atoms>  (892) 
nan

$$$$
CHEMBL4173259
     RDKit          3D

  0  0  0  0  0  0  0  0  0  0999 V3000
M  V30 BEGIN CTAB
M  V30 COUNTS 36 38 0 0 0
M  V30 BEGIN ATOM
M  V30 1 N -1.377950 -4.865004 3.221584 0
M  V30 2 C 0.004389 -4.648586 2.947686 0
M  V30 3 N 1.093780 -5.225003 3.515800 0
M  V30 4 N 2.208327 -4.761858 2.992036 0
M  V30 5 C 1.893746 -3.840192 2.035380 0
M  V30 6 C 2.727467 -3.085781 1.215441 0
M  V30 7 C 2.125713 -2.210962 0.317675 0
M  V30 8 C 0.743163 -2.131811 0.281356 0
M  V30 9 N 0.192029 -1.199469 -0.678408 0
M  V30 10 C 0.062490 0.057917 -0.020397 0
M  V30 11 O 0.362231 0.356338 1.187079 0
M  V30 12 C -0.445773 1.341604 -0.544781 0
M  V30 13 C -0.339502 2.320468 0.625551 0
M  V30 14 C -0.833687 3.654382 0.170703 0
M  V30 15 N -1.241276 3.680102 -1.196905 0
M  V30 16 C -0.309878 3.144150 -2.139329 0
M  V30 17 C 0.464108 1.948815 -1.605708 0
M  V30 18 C -0.079554 -2.886753 1.101480 0
M  V30 19 C 0.512799 -3.767100 2.005366 0
M  V30 20 H -1.934942 -4.074425 3.633463 0
M  V30 21 H -1.922404 -5.752631 3.053848 0
M  V30 22 H 3.182916 -5.068982 3.281408 0
M  V30 23 H 3.802011 -3.212738 1.312346 0
M  V30 24 H 2.761840 -1.616897 -0.327295 0
M  V30 25 H -0.130110 -1.167884 -1.676441 0
M  V30 26 H -1.439092 1.312431 -0.999424 0
M  V30 27 H 0.744314 2.377717 0.859416 0
M  V30 28 H -0.865547 1.942456 1.524210 0
M  V30 29 H -1.761014 3.875110 0.776524 0
M  V30 30 H -0.090354 4.450735 0.374122 0
M  V30 31 H -2.236171 3.513724 -1.382966 0
M  V30 32 H -0.932287 2.743772 -2.992667 0
M  V30 33 H 0.364196 3.917449 -2.560150 0
M  V30 34 H 1.398446 2.338222 -1.138277 0
M  V30 35 H 0.666707 1.209570 -2.417176 0
M  V30 36 H -1.157465 -2.795760 1.042436 0
M  V30 END ATOM
M  V30 BEGIN BOND
M  V30 1 1 1 2
M  V30 2 2 2 3
M  V30 3 1 3 4
M  V30 4 1 4 5
M  V30 5 2 5 6
M  V30 6 1 6 7
M  V30 7 2 7 8
M  V30 8 1 8 9
M  V30 9 1 9 10
M  V30 10 2 10 11
M  V30 11 1 10 12
M  V30 12 1 12 13
M  V30 13 1 13 14
M  V30 14 1 14 15
M  V30 15 1 15 16
M  V30 16 1 16 17
M  V30 17 1 8 18
M  V30 18 2 18 19
M  V30 19 1 19 2
M  V30 20 1 19 5
M  V30 21 1 17 12
M  V30 22 1 1 20
M  V30 23 1 1 21
M  V30 24 1 4 22
M  V30 25 1 6 23
M  V30 26 1 7 24
M  V30 27 1 9 25
M  V30 28 1 12 26
M  V30 29 1 13 27
M  V30 30 1 13 28
M  V30 31 1 14 29
M  V30 32 1 14 30
M  V30 33 1 15 31
M  V30 34 1 16 32
M  V30 35 1 16 33
M  V30 36 1 17 34
M  V30 37 1 17 35
M  V30 38 1 18 36
M  V30 END BOND
M  V30 END CTAB
M  END
>  <Dataset>  (893) 
ChEMBL_Kinases

>  <Ligand_Instance>  (893) 
nan

>  <PDB_ID>  (893) 
nan

>  <Standardized_SMILES>  (893) 
Nc1n[nH]c2ccc(NC(=O)C3CCNCC3)cc12

>  <Name>  (893) 
nan

>  <Pocket>  (893) 
nan

>  <ATP_Site>  (893) 
nan

>  <Peripheral>  (893) 
nan

>  <Num_H_Atoms_ProtBoundConf>  (893) 
nan

>  <Num_Resolved_Atoms>  (893) 
nan

>  <Num_Not_Resolved_Atoms>  (893) 
nan

$$$$
CHEMBL4173126
     RDKit          3D

  0  0  0  0  0  0  0  0  0  0999 V3000
M  V30 BEGIN CTAB
M  V30 COUNTS 62 65 0 0 0
M  V30 BEGIN ATOM
M  V30 1 C 2.021575 -3.851925 -2.980166 0
M  V30 2 C 1.654845 -4.072121 -1.532273 0
M  V30 3 O 1.302391 -2.849782 -0.934031 0
M  V30 4 C 0.915115 -2.695729 0.381076 0
M  V30 5 O 1.006749 -3.887097 0.709754 0
M  V30 6 C 0.599546 -1.336267 0.771029 0
M  V30 7 C -0.724522 -1.008617 0.585606 0
M  V30 8 C -1.743253 -1.955614 0.085305 0
M  V30 9 N -1.062372 0.280010 0.898838 0
M  V30 10 C -0.119475 1.136200 1.356853 0
M  V30 11 N -0.493925 2.472140 1.667970 0
M  V30 12 N -1.858347 2.781141 1.422682 0
M  V30 13 C -1.790984 3.239017 0.053028 0
M  V30 14 O -0.606259 3.208493 -0.418659 0
M  V30 15 C -2.873609 3.718621 -0.837533 0
M  V30 16 C -3.658615 4.830997 -0.540941 0
M  V30 17 C -4.652104 5.233837 -1.408159 0
M  V30 18 C -4.845134 4.511198 -2.567476 0
M  V30 19 C -4.086247 3.389600 -2.911827 0
M  V30 20 C -4.299582 2.682243 -4.079573 0
M  V30 21 O -5.203030 3.046072 -4.871990 0
M  V30 22 C -3.523137 1.581600 -4.372534 0
M  V30 23 C -3.684557 0.832294 -5.522513 0
M  V30 24 C -2.918510 -0.276285 -5.841179 0
M  V30 25 C -1.929681 -0.625571 -4.912886 0
M  V30 26 C -1.743825 0.103008 -3.755472 0
M  V30 27 C -2.539170 1.208641 -3.480941 0
M  V30 28 N -2.385717 1.943717 -2.361277 0
M  V30 29 C -3.095120 3.014312 -2.013519 0
M  V30 30 N 1.156385 0.747374 1.514241 0
M  V30 31 C 1.593050 -0.511719 1.231636 0
M  V30 32 C 2.997517 -0.809312 1.487499 0
M  V30 33 C 3.336135 -1.426821 2.797936 0
M  V30 34 C 2.725200 -2.733496 3.126347 0
M  V30 35 C 4.860662 -1.643576 2.783589 0
M  V30 36 H 2.181030 -2.774251 -3.132740 0
M  V30 37 H 2.970252 -4.395204 -3.233007 0
M  V30 38 H 1.176831 -4.232871 -3.620643 0
M  V30 39 H 2.569668 -4.432103 -0.984760 0
M  V30 40 H 0.892117 -4.863191 -1.404485 0
M  V30 41 H -2.428675 -1.386820 -0.565244 0
M  V30 42 H -1.186915 -2.764792 -0.426925 0
M  V30 43 H -2.339294 -2.399691 0.901841 0
M  V30 44 H 0.163694 3.178551 2.045274 0
M  V30 45 H -2.851973 2.821707 1.783423 0
M  V30 46 H -3.441437 5.347714 0.396851 0
M  V30 47 H -5.250477 6.098786 -1.158611 0
M  V30 48 H -5.634171 4.826482 -3.263047 0
M  V30 49 H -4.447158 1.128821 -6.203702 0
M  V30 50 H -3.069041 -0.843840 -6.751505 0
M  V30 51 H -1.325300 -1.491923 -5.155648 0
M  V30 52 H -0.973486 -0.176434 -3.043291 0
M  V30 53 H -1.617348 1.587191 -1.741886 0
M  V30 54 H 3.582564 0.158618 1.445796 0
M  V30 55 H 3.462908 -1.400904 0.647818 0
M  V30 56 H 3.159915 -0.688223 3.616175 0
M  V30 57 H 3.100716 -3.534277 2.432513 0
M  V30 58 H 1.633176 -2.783612 3.154422 0
M  V30 59 H 3.041616 -2.989888 4.185699 0
M  V30 60 H 5.135437 -2.345616 1.964114 0
M  V30 61 H 5.086926 -2.145604 3.764587 0
M  V30 62 H 5.365132 -0.673395 2.685067 0
M  V30 END ATOM
M  V30 BEGIN BOND
M  V30 1 1 1 2
M  V30 2 1 2 3
M  V30 3 1 3 4
M  V30 4 2 4 5
M  V30 5 1 4 6
M  V30 6 2 6 7
M  V30 7 1 7 8
M  V30 8 1 7 9
M  V30 9 2 9 10
M  V30 10 1 10 11
M  V30 11 1 11 12
M  V30 12 1 12 13
M  V30 13 2 13 14
M  V30 14 1 13 15
M  V30 15 2 15 16
M  V30 16 1 16 17
M  V30 17 2 17 18
M  V30 18 1 18 19
M  V30 19 1 19 20
M  V30 20 2 20 21
M  V30 21 1 20 22
M  V30 22 2 22 23
M  V30 23 1 23 24
M  V30 24 2 24 25
M  V30 25 1 25 26
M  V30 26 2 26 27
M  V30 27 1 27 28
M  V30 28 1 28 29
M  V30 29 1 10 30
M  V30 30 2 30 31
M  V30 31 1 31 32
M  V30 32 1 32 33
M  V30 33 1 33 34
M  V30 34 1 33 35
M  V30 35 1 31 6
M  V30 36 1 29 15
M  V30 37 2 29 19
M  V30 38 1 27 22
M  V30 39 1 1 36
M  V30 40 1 1 37
M  V30 41 1 1 38
M  V30 42 1 2 39
M  V30 43 1 2 40
M  V30 44 1 8 41
M  V30 45 1 8 42
M  V30 46 1 8 43
M  V30 47 1 11 44
M  V30 48 1 12 45
M  V30 49 1 16 46
M  V30 50 1 17 47
M  V30 51 1 18 48
M  V30 52 1 23 49
M  V30 53 1 24 50
M  V30 54 1 25 51
M  V30 55 1 26 52
M  V30 56 1 28 53
M  V30 57 1 32 54
M  V30 58 1 32 55
M  V30 59 1 33 56
M  V30 60 1 34 57
M  V30 61 1 34 58
M  V30 62 1 34 59
M  V30 63 1 35 60
M  V30 64 1 35 61
M  V30 65 1 35 62
M  V30 END BOND
M  V30 END CTAB
M  END
>  <Dataset>  (894) 
ChEMBL_Kinases

>  <Ligand_Instance>  (894) 
nan

>  <PDB_ID>  (894) 
nan

>  <Standardized_SMILES>  (894) 
CCOC(=O)c1c(C)nc(NNC(=O)c2cccc3c(=O)c4ccccc4[nH]c23)nc1CC(C)C

>  <Name>  (894) 
nan

>  <Pocket>  (894) 
nan

>  <ATP_Site>  (894) 
nan

>  <Peripheral>  (894) 
nan

>  <Num_H_Atoms_ProtBoundConf>  (894) 
nan

>  <Num_Resolved_Atoms>  (894) 
nan

>  <Num_Not_Resolved_Atoms>  (894) 
nan

$$$$
CHEMBL4785607
     RDKit          3D

  0  0  0  0  0  0  0  0  0  0999 V3000
M  V30 BEGIN CTAB
M  V30 COUNTS 36 38 0 0 0
M  V30 BEGIN ATOM
M  V30 1 C -0.574221 -4.963234 0.572428 0
M  V30 2 O 0.082005 -3.729164 0.441776 0
M  V30 3 C 1.406828 -3.568364 0.116145 0
M  V30 4 C 2.056976 -4.764773 -0.077497 0
M  V30 5 C 3.387150 -4.835759 -0.410609 0
M  V30 6 C 4.073750 -3.655765 -0.550265 0
M  V30 7 C 3.370593 -2.495046 -0.344370 0
M  V30 8 C 2.039208 -2.372676 -0.009596 0
M  V30 9 C 1.358750 -1.106773 0.193424 0
M  V30 10 O 2.176262 -0.187592 0.014297 0
M  V30 11 C -0.041990 -1.009279 0.544748 0
M  V30 12 C -0.657335 0.135326 0.728377 0
M  V30 13 N 0.006970 1.380071 0.596086 0
M  V30 14 C -0.560992 2.667152 0.771743 0
M  V30 15 C 0.126871 3.852105 0.632016 0
M  V30 16 C -0.491947 5.064787 0.818375 0
M  V30 17 C -1.835734 5.131659 1.154743 0
M  V30 18 C -2.583854 3.964821 1.309957 0
M  V30 19 C -1.893370 2.789921 1.106760 0
M  V30 20 N -2.647884 1.595830 1.262861 0
M  V30 21 C -2.057196 0.303705 1.081409 0
M  V30 22 O -2.768619 -0.747810 1.230574 0
M  V30 23 H -1.649168 -4.793935 0.785215 0
M  V30 24 H -0.168163 -5.469994 1.490219 0
M  V30 25 H -0.436373 -5.595982 -0.333975 0
M  V30 26 H 1.567440 -5.739193 0.018573 0
M  V30 27 H 3.905476 -5.767237 -0.564401 0
M  V30 28 H 5.112190 -3.677766 -0.809416 0
M  V30 29 H 3.987771 -1.589736 -0.474027 0
M  V30 30 H -0.754557 -1.779296 0.701675 0
M  V30 31 H 1.008127 1.442118 0.348446 0
M  V30 32 H 1.189203 3.792129 0.365915 0
M  V30 33 H 0.103512 5.948787 0.693655 0
M  V30 34 H -2.314375 6.090505 1.299441 0
M  V30 35 H -3.632915 3.968052 1.571247 0
M  V30 36 H -3.676723 1.595533 1.519036 0
M  V30 END ATOM
M  V30 BEGIN BOND
M  V30 1 1 1 2
M  V30 2 1 2 3
M  V30 3 2 3 4
M  V30 4 1 4 5
M  V30 5 2 5 6
M  V30 6 1 6 7
M  V30 7 2 7 8
M  V30 8 1 8 9
M  V30 9 2 9 10
M  V30 10 1 9 11
M  V30 11 2 11 12
M  V30 12 1 12 13
M  V30 13 1 13 14
M  V30 14 2 14 15
M  V30 15 1 15 16
M  V30 16 2 16 17
M  V30 17 1 17 18
M  V30 18 2 18 19
M  V30 19 1 19 20
M  V30 20 1 20 21
M  V30 21 2 21 22
M  V30 22 1 8 3
M  V30 23 1 21 12
M  V30 24 1 19 14
M  V30 25 1 1 23
M  V30 26 1 1 24
M  V30 27 1 1 25
M  V30 28 1 4 26
M  V30 29 1 5 27
M  V30 30 1 6 28
M  V30 31 1 7 29
M  V30 32 1 11 30
M  V30 33 1 13 31
M  V30 34 1 15 32
M  V30 35 1 16 33
M  V30 36 1 17 34
M  V30 37 1 18 35
M  V30 38 1 20 36
M  V30 END BOND
M  V30 END CTAB
M  END
>  <Dataset>  (895) 
ChEMBL_Kinases

>  <Ligand_Instance>  (895) 
nan

>  <PDB_ID>  (895) 
nan

>  <Standardized_SMILES>  (895) 
COc1ccccc1C(=O)/C=C1\Nc2ccccc2NC1=O

>  <Name>  (895) 
nan

>  <Pocket>  (895) 
nan

>  <ATP_Site>  (895) 
nan

>  <Peripheral>  (895) 
nan

>  <Num_H_Atoms_ProtBoundConf>  (895) 
nan

>  <Num_Resolved_Atoms>  (895) 
nan

>  <Num_Not_Resolved_Atoms>  (895) 
nan

$$$$
CHEMBL4172847
     RDKit          3D

  0  0  0  0  0  0  0  0  0  0999 V3000
M  V30 BEGIN CTAB
M  V30 COUNTS 203 208 0 0 0
M  V30 BEGIN ATOM
M  V30 1 C 2.810343 -6.896084 -4.558427 0
M  V30 2 N 3.136716 -5.593181 -3.972085 0
M  V30 3 C 4.474031 -5.334016 -3.438405 0
M  V30 4 C 2.160931 -4.563137 -3.917761 0
M  V30 5 C 2.450985 -3.327133 -3.361500 0
M  V30 6 C 1.497059 -2.321787 -3.318355 0
M  V30 7 C 0.265678 -2.634493 -3.857300 0
M  V30 8 C -0.654930 -1.614388 -3.802003 0
M  V30 9 C -0.513278 -0.272156 -3.232039 0
M  V30 10 C -0.825274 0.210807 -1.991081 0
M  V30 11 C -0.616103 1.543013 -1.701666 0
M  V30 12 C -0.096681 2.414887 -2.627851 0
M  V30 13 C 0.084360 3.813838 -2.346428 0
M  V30 14 O -0.669766 4.234834 -1.437497 0
M  V30 15 N 0.966856 4.716700 -2.944730 0
M  V30 16 C 1.162030 6.121343 -2.714913 0
M  V30 17 C 2.336041 6.708269 -3.442581 0
M  V30 18 C 3.635780 6.212396 -2.865857 0
M  V30 19 C 3.862014 4.763174 -2.805657 0
M  V30 20 C 5.257204 4.449968 -2.151727 0 CFG=1
M  V30 21 N 5.298500 3.000157 -2.132049 0
M  V30 22 C 4.873557 2.521703 -0.853788 0
M  V30 23 O 4.515029 3.206169 0.112030 0
M  V30 24 C 4.774263 1.120236 -0.425982 0 CFG=1
M  V30 25 C 6.172677 0.539586 -0.526896 0
M  V30 26 C 7.152586 1.246006 0.335179 0
M  V30 27 O 8.307667 0.762873 0.257476 0
M  V30 28 O 6.908353 2.340985 1.178313 0
M  V30 29 N 4.201642 0.958785 0.873530 0
M  V30 30 C 3.279618 -0.064189 1.119455 0
M  V30 31 O 3.015485 -0.801854 0.091809 0
M  V30 32 C 2.441801 -0.671495 2.154570 0 CFG=1
M  V30 33 C 3.100853 -2.072347 2.364649 0
M  V30 34 C 2.453930 -2.907738 3.345044 0
M  V30 35 O 2.746505 -3.109800 4.576670 0
M  V30 36 O 1.331323 -3.603205 2.852409 0
M  V30 37 N 2.450713 0.073640 3.412274 0
M  V30 38 C 1.578584 -0.043544 4.491133 0
M  V30 39 O 0.682451 -0.948889 4.296774 0
M  V30 40 C 1.393928 0.556249 5.773169 0 CFG=1
M  V30 41 C 2.084068 -0.452440 6.767206 0
M  V30 42 C 3.499808 -0.627106 6.488691 0
M  V30 43 O 4.439369 -0.261257 5.727066 0
M  V30 44 O 4.040669 -1.530198 7.383676 0
M  V30 45 N 1.941788 1.856542 6.022545 0
M  V30 46 C 2.225664 2.587548 7.205111 0
M  V30 47 O 2.017188 2.022742 8.304061 0
M  V30 48 C 2.739771 3.934413 7.284495 0 CFG=1
M  V30 49 C 4.258135 3.979931 7.427754 0
M  V30 50 C 4.996273 3.360371 6.333930 0
M  V30 51 O 4.834722 2.747670 5.244464 0
M  V30 52 O 6.359278 3.484555 6.561773 0
M  V30 53 N 2.316516 4.738607 6.133101 0
M  V30 54 C 2.328059 6.162982 6.062772 0
M  V30 55 O 2.775870 6.868777 7.009945 0
M  V30 56 C 1.805091 6.886513 4.864736 0 CFG=1
M  V30 57 C 2.869662 7.404310 3.952553 0
M  V30 58 C 3.727666 6.370818 3.395727 0
M  V30 59 O 4.619131 6.924152 2.688243 0
M  V30 60 O 3.844203 5.004892 3.416910 0
M  V30 61 N 0.881268 5.992717 4.142139 0
M  V30 62 C -0.323725 6.641079 3.666979 0
M  V30 63 O -0.530415 7.893600 3.826566 0
M  V30 64 C -1.509107 6.044079 2.942900 0 CFG=1
M  V30 65 C -1.413611 6.449544 1.511617 0
M  V30 66 C -2.553579 5.941807 0.689956 0
M  V30 67 O -3.514029 5.168019 0.928170 0
M  V30 68 O -2.702949 6.327698 -0.628345 0
M  V30 69 N -1.353605 4.608704 3.180896 0
M  V30 70 C -2.530346 4.021825 3.736669 0
M  V30 71 O -3.622398 4.657524 3.955262 0
M  V30 72 C -3.023242 2.724093 4.239706 0
M  V30 73 C -4.503043 2.616907 4.046601 0
M  V30 74 C -5.054515 1.350155 4.686818 0
M  V30 75 C -6.497699 1.231842 4.302571 0
M  V30 76 C -7.212295 0.068461 4.957987 0
M  V30 77 N -6.567665 -1.187797 4.818574 0
M  V30 78 C -6.082743 -2.033720 3.790593 0
M  V30 79 O -6.289846 -1.492441 2.654955 0
M  V30 80 C -5.468559 -3.289659 4.220433 0
M  V30 81 C -4.599807 -3.983580 3.249946 0
M  V30 82 C -5.213353 -4.385014 1.972781 0
M  V30 83 O -6.330268 -4.268490 1.435115 0
M  V30 84 N -4.165548 -5.076758 1.253474 0
M  V30 85 C -4.044365 -5.730203 -0.043203 0
M  V30 86 N -3.625517 -4.976586 -1.170411 0
M  V30 87 C -3.571695 -5.768930 -2.238065 0
M  V30 88 C -3.823047 -7.113243 -2.492460 0
M  V30 89 C -3.660165 -7.690779 -3.750807 0
M  V30 90 C -2.484734 -7.375049 -4.392373 0
M  V30 91 C -2.231807 -7.902167 -5.658403 0
M  V30 92 C -3.182954 -8.728381 -6.218810 0
M  V30 93 C -2.883337 -9.253956 -7.529272 0
M  V30 94 O -1.798088 -8.954634 -8.085209 0
M  V30 95 O -3.595172 -10.080016 -8.364391 0
M  V30 96 C -4.364884 -9.029578 -5.540852 0
M  V30 97 C -4.635886 -8.508989 -4.269595 0
M  V30 98 Se -4.325263 -7.532561 -0.646652 0 VAL=2
M  V30 99 C 6.296851 4.967959 -3.053719 0
M  V30 100 O 6.845876 3.901729 -3.502948 0
M  V30 101 O 7.187819 5.691555 -3.832475 0
M  V30 102 C 0.218890 1.935618 -3.875536 0
M  V30 103 C 0.014852 0.598172 -4.187948 0
M  V30 104 C 0.391415 0.222238 -5.564236 0
M  V30 105 O 0.873938 1.032421 -6.426086 0
M  V30 106 O 0.311357 -0.999451 -6.180187 0 CHG=-1 VAL=1
M  V30 107 C -1.914867 -1.806581 -4.309032 0
M  V30 108 C -2.951898 -0.876003 -4.320276 0
M  V30 109 C -4.197140 -1.152204 -4.845255 0
M  V30 110 C -4.500466 -2.384605 -5.401801 0
M  V30 111 N -5.675856 -2.605203 -5.877313 0 CHG=1 VAL=4
M  V30 112 C -6.006551 -3.887871 -6.463192 0
M  V30 113 C -6.686301 -1.581085 -5.835936 0
M  V30 114 C -3.512396 -3.357121 -5.423124 0
M  V30 115 C -2.241630 -3.113154 -4.900523 0
M  V30 116 O -1.302541 -4.032563 -4.914680 0
M  V30 117 C -0.097867 -3.847059 -4.430040 0
M  V30 118 C 0.893032 -4.808376 -4.443943 0
M  V30 119 H 2.033615 -7.321748 -3.898935 0
M  V30 120 H 2.315385 -6.661284 -5.537299 0
M  V30 121 H 3.695998 -7.522590 -4.659216 0
M  V30 122 H 5.095323 -6.256477 -3.487072 0
M  V30 123 H 4.985966 -4.547295 -4.019384 0
M  V30 124 H 4.449174 -5.026110 -2.376784 0
M  V30 125 H 3.438709 -3.170892 -2.965310 0
M  V30 126 H 1.713220 -1.359126 -2.886219 0
M  V30 127 H -1.220778 -0.545116 -1.344704 0
M  V30 128 H -0.885708 1.870356 -0.698364 0
M  V30 129 H 1.503929 4.185468 -3.695878 0
M  V30 130 H 1.336009 6.248406 -1.616499 0
M  V30 131 H 0.231678 6.629426 -3.026615 0
M  V30 132 H 2.346319 6.435263 -4.514800 0
M  V30 133 H 2.304260 7.807394 -3.339939 0
M  V30 134 H 3.732361 6.718145 -1.869861 0
M  V30 135 H 4.438681 6.680186 -3.522045 0
M  V30 136 H 3.829828 4.208505 -3.751637 0
M  V30 137 H 3.111897 4.292038 -2.109269 0
M  V30 138 H 5.261421 4.858268 -1.150654 0
M  V30 139 H 5.564576 2.281535 -2.833626 0
M  V30 140 H 4.185970 0.550986 -1.154312 0
M  V30 141 H 6.497139 0.801131 -1.573718 0
M  V30 142 H 6.215633 -0.547094 -0.469222 0
M  V30 143 H 7.702077 2.681918 1.692714 0
M  V30 144 H 4.284075 1.448810 1.806413 0
M  V30 145 H 1.414393 -0.949776 1.887147 0
M  V30 146 H 4.182120 -1.849503 2.606223 0
M  V30 147 H 3.136131 -2.548794 1.367218 0
M  V30 148 H 0.773480 -4.126942 3.520975 0
M  V30 149 H 3.174811 0.809540 3.584271 0
M  V30 150 H 0.367003 0.511079 6.164261 0
M  V30 151 H 1.571797 -1.401220 6.513630 0
M  V30 152 H 1.869685 -0.207995 7.794344 0
M  V30 153 H 4.987517 -1.795379 7.515023 0
M  V30 154 H 2.155033 2.296915 5.102575 0
M  V30 155 H 2.386306 4.465458 8.187476 0
M  V30 156 H 4.496213 3.477717 8.385917 0
M  V30 157 H 4.561493 5.048518 7.597988 0
M  V30 158 H 7.108507 3.107464 6.034452 0
M  V30 159 H 1.968667 4.279361 5.267996 0
M  V30 160 H 1.200025 7.763111 5.158444 0
M  V30 161 H 2.329290 7.998788 3.155961 0
M  V30 162 H 3.492089 8.202901 4.463537 0
M  V30 163 H 4.673439 4.508065 3.127503 0
M  V30 164 H 0.767294 5.009115 3.826876 0
M  V30 165 H -2.434739 6.423382 3.352906 0
M  V30 166 H -1.371554 7.544731 1.391632 0
M  V30 167 H -0.501782 5.953162 1.090820 0
M  V30 168 H -3.586314 6.544645 -1.082950 0
M  V30 169 H -0.710378 3.804057 3.108992 0
M  V30 170 H -2.541917 1.909998 3.629985 0
M  V30 171 H -2.771151 2.554459 5.308663 0
M  V30 172 H -5.030110 3.478069 4.513529 0
M  V30 173 H -4.762478 2.556225 2.957202 0
M  V30 174 H -4.952433 1.482225 5.777665 0
M  V30 175 H -4.476429 0.471402 4.340427 0
M  V30 176 H -7.005277 2.161802 4.655303 0
M  V30 177 H -6.606229 1.205438 3.193642 0
M  V30 178 H -7.385531 0.379510 6.003152 0
M  V30 179 H -8.239348 0.072727 4.498843 0
M  V30 180 H -6.426102 -1.570069 5.791845 0
M  V30 181 H -4.925599 -3.094181 5.193846 0
M  V30 182 H -6.290892 -3.979362 4.522278 0
M  V30 183 H -3.689541 -3.358730 3.014072 0
M  V30 184 H -4.156351 -4.869197 3.792620 0
M  V30 185 H -3.164267 -5.249599 1.603533 0
M  V30 186 H -3.233674 -5.061460 -3.028909 0
M  V30 187 H -1.713782 -6.724221 -3.973103 0
M  V30 188 H -1.294688 -7.646239 -6.160644 0
M  V30 189 H -3.720086 -9.870065 -9.350179 0
M  V30 190 H -5.083887 -9.675620 -6.003334 0
M  V30 191 H -5.548044 -8.746522 -3.752103 0
M  V30 192 H 8.062510 6.055023 -3.439589 0
M  V30 193 H 0.637346 2.621830 -4.626558 0
M  V30 194 H -2.733332 0.090108 -3.893295 0
M  V30 195 H -4.916292 -0.332686 -4.790207 0
M  V30 196 H -6.999375 -3.895860 -6.929908 0
M  V30 197 H -5.264517 -4.113316 -7.266591 0
M  V30 198 H -6.024059 -4.689816 -5.673670 0
M  V30 199 H -6.909229 -1.416334 -4.747186 0
M  V30 200 H -7.628545 -1.915486 -6.324242 0
M  V30 201 H -6.342578 -0.600665 -6.217489 0
M  V30 202 H -3.758634 -4.310425 -5.857582 0
M  V30 203 H 0.590395 -5.749927 -4.894133 0
M  V30 END ATOM
M  V30 BEGIN BOND
M  V30 1 1 1 2
M  V30 2 1 2 3
M  V30 3 1 2 4
M  V30 4 2 4 5
M  V30 5 1 5 6
M  V30 6 2 6 7
M  V30 7 1 7 8
M  V30 8 1 8 9
M  V30 9 2 9 10
M  V30 10 1 10 11
M  V30 11 2 11 12
M  V30 12 1 12 13
M  V30 13 2 13 14
M  V30 14 1 13 15
M  V30 15 1 15 16
M  V30 16 1 16 17
M  V30 17 1 17 18
M  V30 18 1 18 19
M  V30 19 1 19 20
M  V30 20 1 20 21
M  V30 21 1 21 22
M  V30 22 2 22 23
M  V30 23 1 22 24
M  V30 24 1 24 25
M  V30 25 1 25 26
M  V30 26 2 26 27
M  V30 27 1 26 28
M  V30 28 1 24 29
M  V30 29 1 29 30
M  V30 30 2 30 31
M  V30 31 1 30 32
M  V30 32 1 32 33
M  V30 33 1 33 34
M  V30 34 2 34 35
M  V30 35 1 34 36
M  V30 36 1 32 37
M  V30 37 1 37 38
M  V30 38 2 38 39
M  V30 39 1 38 40
M  V30 40 1 40 41
M  V30 41 1 41 42
M  V30 42 2 42 43
M  V30 43 1 42 44
M  V30 44 1 40 45
M  V30 45 1 45 46
M  V30 46 2 46 47
M  V30 47 1 46 48
M  V30 48 1 48 49
M  V30 49 1 49 50
M  V30 50 2 50 51
M  V30 51 1 50 52
M  V30 52 1 48 53
M  V30 53 1 53 54
M  V30 54 2 54 55
M  V30 55 1 54 56
M  V30 56 1 56 57
M  V30 57 1 57 58
M  V30 58 2 58 59
M  V30 59 1 58 60
M  V30 60 1 56 61
M  V30 61 1 61 62
M  V30 62 2 62 63
M  V30 63 1 62 64
M  V30 64 1 64 65
M  V30 65 1 65 66
M  V30 66 2 66 67
M  V30 67 1 66 68
M  V30 68 1 64 69
M  V30 69 1 69 70
M  V30 70 2 70 71
M  V30 71 1 70 72
M  V30 72 1 72 73
M  V30 73 1 73 74
M  V30 74 1 74 75
M  V30 75 1 75 76
M  V30 76 1 76 77
M  V30 77 1 77 78
M  V30 78 2 78 79
M  V30 79 1 78 80
M  V30 80 1 80 81
M  V30 81 1 81 82
M  V30 82 2 82 83
M  V30 83 1 82 84
M  V30 84 1 84 85
M  V30 85 2 85 86
M  V30 86 1 86 87
M  V30 87 2 87 88
M  V30 88 1 88 89
M  V30 89 2 89 90
M  V30 90 1 90 91
M  V30 91 2 91 92
M  V30 92 1 92 93
M  V30 93 2 93 94
M  V30 94 1 93 95
M  V30 95 1 92 96
M  V30 96 2 96 97
M  V30 97 1 88 98
M  V30 98 1 20 99
M  V30 99 2 99 100
M  V30 100 1 99 101
M  V30 101 1 12 102
M  V30 102 2 102 103
M  V30 103 1 103 104
M  V30 104 2 104 105
M  V30 105 1 104 106
M  V30 106 2 8 107
M  V30 107 1 107 108
M  V30 108 2 108 109
M  V30 109 1 109 110
M  V30 110 2 110 111 CFG=2
M  V30 111 1 111 112
M  V30 112 1 111 113
M  V30 113 1 110 114
M  V30 114 2 114 115
M  V30 115 1 115 116
M  V30 116 1 116 117
M  V30 117 2 117 118
M  V30 118 1 118 4
M  V30 119 1 117 7
M  V30 120 1 103 9
M  V30 121 1 115 107
M  V30 122 1 98 85
M  V30 123 1 97 89
M  V30 124 1 1 119
M  V30 125 1 1 120
M  V30 126 1 1 121
M  V30 127 1 3 122
M  V30 128 1 3 123
M  V30 129 1 3 124
M  V30 130 1 5 125
M  V30 131 1 6 126
M  V30 132 1 10 127
M  V30 133 1 11 128
M  V30 134 1 15 129
M  V30 135 1 16 130
M  V30 136 1 16 131
M  V30 137 1 17 132
M  V30 138 1 17 133
M  V30 139 1 18 134
M  V30 140 1 18 135
M  V30 141 1 19 136
M  V30 142 1 19 137
M  V30 143 1 20 138 CFG=1
M  V30 144 1 21 139
M  V30 145 1 24 140 CFG=3
M  V30 146 1 25 141
M  V30 147 1 25 142
M  V30 148 1 28 143
M  V30 149 1 29 144
M  V30 150 1 32 145 CFG=3
M  V30 151 1 33 146
M  V30 152 1 33 147
M  V30 153 1 36 148
M  V30 154 1 37 149
M  V30 155 1 40 150 CFG=1
M  V30 156 1 41 151
M  V30 157 1 41 152
M  V30 158 1 44 153
M  V30 159 1 45 154
M  V30 160 1 48 155 CFG=1
M  V30 161 1 49 156
M  V30 162 1 49 157
M  V30 163 1 52 158
M  V30 164 1 53 159
M  V30 165 1 56 160 CFG=1
M  V30 166 1 57 161
M  V30 167 1 57 162
M  V30 168 1 60 163
M  V30 169 1 61 164
M  V30 170 1 64 165 CFG=1
M  V30 171 1 65 166
M  V30 172 1 65 167
M  V30 173 1 68 168
M  V30 174 1 69 169
M  V30 175 1 72 170
M  V30 176 1 72 171
M  V30 177 1 73 172
M  V30 178 1 73 173
M  V30 179 1 74 174
M  V30 180 1 74 175
M  V30 181 1 75 176
M  V30 182 1 75 177
M  V30 183 1 76 178
M  V30 184 1 76 179
M  V30 185 1 77 180
M  V30 186 1 80 181
M  V30 187 1 80 182
M  V30 188 1 81 183
M  V30 189 1 81 184
M  V30 190 1 84 185
M  V30 191 1 87 186
M  V30 192 1 90 187
M  V30 193 1 91 188
M  V30 194 1 95 189
M  V30 195 1 96 190
M  V30 196 1 97 191
M  V30 197 1 101 192
M  V30 198 1 102 193
M  V30 199 1 108 194
M  V30 200 1 109 195
M  V30 201 1 112 196
M  V30 202 1 112 197
M  V30 203 1 112 198
M  V30 204 1 113 199
M  V30 205 1 113 200
M  V30 206 1 113 201
M  V30 207 1 114 202
M  V30 208 1 118 203
M  V30 END BOND
M  V30 END CTAB
M  END
>  <Dataset>  (896) 
ChEMBL_Kinases

>  <Ligand_Instance>  (896) 
nan

>  <PDB_ID>  (896) 
nan

>  <Standardized_SMILES>  (896) 
CN(C)c1ccc2c(-c3ccc(C(=O)NCCCC[C@@H](NC(=O)[C@@H](CC(=O)O)NC(=O)[C@@H](CC(=O)O)NC(=O)[C@@H](CC(=O)O)NC(=O)[C@@H](CC(=O)O)NC(=O)[C@@H](CC(=O)O)NC(=O)[C@@H](CC(=O)O)NC(=O)CCCCCNC(=O)CCC(=O)Nc4ncc(-c5ccc(C(=O)O)cc5)[se]4)C(=O)O)cc3C(=O)[O-])c3ccc(=[N+](C)C)cc-3oc2c1

>  <Name>  (896) 
nan

>  <Pocket>  (896) 
nan

>  <ATP_Site>  (896) 
nan

>  <Peripheral>  (896) 
nan

>  <Num_H_Atoms_ProtBoundConf>  (896) 
nan

>  <Num_Resolved_Atoms>  (896) 
nan

>  <Num_Not_Resolved_Atoms>  (896) 
nan

$$$$
CHEMBL4172756
     RDKit          3D

  0  0  0  0  0  0  0  0  0  0999 V3000
M  V30 BEGIN CTAB
M  V30 COUNTS 47 51 0 0 0
M  V30 BEGIN ATOM
M  V30 1 C 4.095484 -5.971352 2.605524 0
M  V30 2 O 3.993381 -4.558622 2.631695 0
M  V30 3 C 3.013995 -3.968064 1.844144 0
M  V30 4 C 2.183934 -4.763968 1.072777 0
M  V30 5 C 1.200378 -4.195914 0.279866 0
M  V30 6 C 1.086276 -2.810221 0.293645 0
M  V30 7 C 1.909050 -1.986406 1.061036 0
M  V30 8 C 2.875652 -2.594258 1.836305 0
M  V30 9 N 1.534395 -0.690857 0.845488 0
M  V30 10 C 0.522472 -0.742480 -0.021259 0
M  V30 11 C -0.176523 0.333840 -0.530857 0
M  V30 12 N 0.008013 1.717959 -0.262596 0
M  V30 13 C 1.191252 2.477885 -0.499637 0
M  V30 14 C 1.329950 3.314859 0.733355 0
M  V30 15 C -0.092794 3.452414 1.242207 0
M  V30 16 C -0.966897 2.651513 0.308831 0
M  V30 17 C -2.091331 1.998190 0.973349 0
M  V30 18 C -1.991130 0.943786 1.832867 0
M  V30 19 C -3.109368 0.385242 2.418429 0
M  V30 20 C -4.380842 0.840239 2.184109 0
M  V30 21 C -4.519842 1.908508 1.317455 0
M  V30 22 C -3.397588 2.448746 0.746565 0
M  V30 23 N -1.189283 0.149804 -1.408933 0
M  V30 24 C -1.550183 -1.101997 -1.816903 0
M  V30 25 C -0.850053 -2.178154 -1.306321 0
M  V30 26 C 0.193371 -2.017689 -0.403998 0
M  V30 27 H 4.442118 -6.333269 1.601074 0
M  V30 28 H 4.771646 -6.341571 3.418805 0
M  V30 29 H 3.126705 -6.473160 2.772225 0
M  V30 30 H 2.248842 -5.843157 1.041626 0
M  V30 31 H 0.523342 -4.789077 -0.344801 0
M  V30 32 H 3.539418 -1.995613 2.450100 0
M  V30 33 H 1.977714 0.142823 1.290198 0
M  V30 34 H 1.037050 3.166718 -1.371470 0
M  V30 35 H 2.083937 1.883161 -0.750526 0
M  V30 36 H 1.912595 2.875371 1.542298 0
M  V30 37 H 1.784809 4.312684 0.525380 0
M  V30 38 H -0.388189 4.515617 1.260636 0
M  V30 39 H -0.226588 2.989274 2.251111 0
M  V30 40 H -1.344085 3.349169 -0.468622 0
M  V30 41 H -1.036830 0.538646 2.061299 0
M  V30 42 H -2.980380 -0.459312 3.101471 0
M  V30 43 H -5.198481 0.354590 2.676054 0
M  V30 44 H -5.505733 2.269733 1.128804 0
M  V30 45 H -3.552107 3.291564 0.067797 0
M  V30 46 H -2.362827 -1.252369 -2.521694 0
M  V30 47 H -1.084638 -3.189095 -1.587311 0
M  V30 END ATOM
M  V30 BEGIN BOND
M  V30 1 1 1 2
M  V30 2 1 2 3
M  V30 3 2 3 4
M  V30 4 1 4 5
M  V30 5 2 5 6
M  V30 6 1 6 7
M  V30 7 2 7 8
M  V30 8 1 7 9
M  V30 9 1 9 10
M  V30 10 2 10 11
M  V30 11 1 11 12
M  V30 12 1 12 13
M  V30 13 1 13 14
M  V30 14 1 14 15
M  V30 15 1 15 16
M  V30 16 1 16 17
M  V30 17 2 17 18
M  V30 18 1 18 19
M  V30 19 2 19 20
M  V30 20 1 20 21
M  V30 21 2 21 22
M  V30 22 1 11 23
M  V30 23 2 23 24
M  V30 24 1 24 25
M  V30 25 2 25 26
M  V30 26 1 8 3
M  V30 27 1 26 10
M  V30 28 1 26 6
M  V30 29 1 16 12
M  V30 30 1 22 17
M  V30 31 1 1 27
M  V30 32 1 1 28
M  V30 33 1 1 29
M  V30 34 1 4 30
M  V30 35 1 5 31
M  V30 36 1 8 32
M  V30 37 1 9 33
M  V30 38 1 13 34
M  V30 39 1 13 35
M  V30 40 1 14 36
M  V30 41 1 14 37
M  V30 42 1 15 38
M  V30 43 1 15 39
M  V30 44 1 16 40
M  V30 45 1 18 41
M  V30 46 1 19 42
M  V30 47 1 20 43
M  V30 48 1 21 44
M  V30 49 1 22 45
M  V30 50 1 24 46
M  V30 51 1 25 47
M  V30 END BOND
M  V30 END CTAB
M  END
>  <Dataset>  (897) 
ChEMBL_Kinases

>  <Ligand_Instance>  (897) 
nan

>  <PDB_ID>  (897) 
nan

>  <Standardized_SMILES>  (897) 
COc1ccc2c(c1)[nH]c1c(N3CCCC3c3ccccc3)nccc12

>  <Name>  (897) 
nan

>  <Pocket>  (897) 
nan

>  <ATP_Site>  (897) 
nan

>  <Peripheral>  (897) 
nan

>  <Num_H_Atoms_ProtBoundConf>  (897) 
nan

>  <Num_Resolved_Atoms>  (897) 
nan

>  <Num_Not_Resolved_Atoms>  (897) 
nan

$$$$
CHEMBL4172737
     RDKit          3D

  0  0  0  0  0  0  0  0  0  0999 V3000
M  V30 BEGIN CTAB
M  V30 COUNTS 66 71 0 0 0
M  V30 BEGIN ATOM
M  V30 1 C -1.164555 -1.175136 0.099121 0
M  V30 2 C -0.281572 -1.520466 1.240924 0 CFG=2
M  V30 3 C -0.614845 -0.619319 2.404317 0
M  V30 4 C -0.293284 0.808923 2.094426 0
M  V30 5 C 1.016207 1.038669 1.452513 0 CFG=1
M  V30 6 C 1.354089 0.029570 0.365854 0 CFG=1
M  V30 7 C 2.769923 0.215205 -0.067362 0
M  V30 8 C 3.288320 1.564475 0.181842 0
M  V30 9 C 2.635183 2.643195 0.595053 0
M  V30 10 C 3.207318 3.992512 0.833888 0
M  V30 11 C 2.267396 5.117192 0.570672 0 CFG=1
M  V30 12 O 2.181665 5.423133 -0.802959 0
M  V30 13 C 0.949550 4.860085 1.212995 0
M  V30 14 C 0.748798 3.497424 1.784127 0
M  V30 15 C 1.160576 2.399830 0.829445 0 CFG=2
M  V30 16 C 0.363213 2.539109 -0.427675 0
M  V30 17 C 1.199629 -1.301034 0.995885 0 CFG=2
M  V30 18 C 1.653654 -2.492577 0.251908 0
M  V30 19 C 0.999745 -3.590442 1.102934 0
M  V30 20 C -0.306261 -2.973885 1.578451 0 CFG=2
M  V30 21 C -1.385938 -3.736686 0.906780 0
M  V30 22 C -2.409858 -4.252241 1.705428 0
M  V30 23 C -3.485420 -4.997967 1.213830 0
M  V30 24 C -3.546300 -5.243531 -0.139482 0
M  V30 25 N -4.554599 -5.953007 -0.667246 0
M  V30 26 C -4.567580 -6.167834 -2.013488 0
M  V30 27 N -5.615641 -6.917541 -2.642299 0
M  V30 28 N -3.624245 -5.709601 -2.858048 0
M  V30 29 C -2.597123 -4.987324 -2.323146 0
M  V30 30 C -2.547958 -4.745811 -0.949948 0
M  V30 31 C -1.498559 -4.014165 -0.443013 0
M  V30 32 H -1.533586 -0.104845 0.155888 0
M  V30 33 H -0.740025 -1.263383 -0.901145 0
M  V30 34 H -2.126285 -1.751995 0.242591 0
M  V30 35 H -0.033381 -0.916558 3.301194 0
M  V30 36 H -1.682599 -0.662524 2.680347 0
M  V30 37 H -1.171713 1.276186 1.608790 0
M  V30 38 H -0.250986 1.321524 3.102514 0
M  V30 39 H 1.813509 0.936054 2.218903 0
M  V30 40 H 0.687261 0.129838 -0.506691 0
M  V30 41 H 2.823208 0.041530 -1.169488 0
M  V30 42 H 3.439031 -0.567313 0.394343 0
M  V30 43 H 4.361446 1.715831 0.006410 0
M  V30 44 H 3.593876 4.111122 1.866635 0
M  V30 45 H 4.108089 4.118438 0.164543 0
M  V30 46 H 2.778783 6.032239 0.998714 0
M  V30 47 H 1.296386 5.764154 -1.061209 0
M  V30 48 H 0.091761 5.201947 0.565839 0
M  V30 49 H 0.878845 5.570358 2.093283 0
M  V30 50 H -0.340458 3.381250 1.985774 0
M  V30 51 H 1.321814 3.453718 2.738444 0
M  V30 52 H 0.839362 2.087276 -1.321943 0
M  V30 53 H -0.644783 2.081722 -0.232030 0
M  V30 54 H 0.158271 3.587578 -0.660880 0
M  V30 55 H 1.684512 -1.293157 1.995918 0
M  V30 56 H 2.759323 -2.601916 0.405473 0
M  V30 57 H 1.388037 -2.538948 -0.798743 0
M  V30 58 H 0.868958 -4.518456 0.537480 0
M  V30 59 H 1.636304 -3.801091 1.985801 0
M  V30 60 H -0.443611 -3.158918 2.668735 0
M  V30 61 H -2.428622 -4.098035 2.785901 0
M  V30 62 H -4.246314 -5.370904 1.873661 0
M  V30 63 H -6.251707 -6.265632 -3.147769 0
M  V30 64 H -5.802695 -7.939412 -2.655137 0
M  V30 65 H -1.846414 -4.627001 -3.023094 0
M  V30 66 H -0.730341 -3.635730 -1.067540 0
M  V30 END ATOM
M  V30 BEGIN BOND
M  V30 1 1 2 1 CFG=3
M  V30 2 1 2 3
M  V30 3 1 3 4
M  V30 4 1 4 5
M  V30 5 1 5 6
M  V30 6 1 6 7
M  V30 7 1 7 8
M  V30 8 2 8 9
M  V30 9 1 9 10
M  V30 10 1 10 11
M  V30 11 1 11 12
M  V30 12 1 11 13
M  V30 13 1 13 14
M  V30 14 1 14 15
M  V30 15 1 15 16 CFG=3
M  V30 16 1 6 17
M  V30 17 1 17 18
M  V30 18 1 18 19
M  V30 19 1 19 20
M  V30 20 1 20 21
M  V30 21 2 21 22
M  V30 22 1 22 23
M  V30 23 2 23 24
M  V30 24 1 24 25
M  V30 25 2 25 26
M  V30 26 1 26 27
M  V30 27 1 26 28
M  V30 28 2 28 29
M  V30 29 1 29 30
M  V30 30 2 30 31
M  V30 31 1 17 2
M  V30 32 1 31 21
M  V30 33 1 20 2
M  V30 34 1 30 24
M  V30 35 1 15 5
M  V30 36 1 15 9
M  V30 37 1 1 32
M  V30 38 1 1 33
M  V30 39 1 1 34
M  V30 40 1 3 35
M  V30 41 1 3 36
M  V30 42 1 4 37
M  V30 43 1 4 38
M  V30 44 1 5 39 CFG=1
M  V30 45 1 6 40 CFG=3
M  V30 46 1 7 41
M  V30 47 1 7 42
M  V30 48 1 8 43
M  V30 49 1 10 44
M  V30 50 1 10 45
M  V30 51 1 11 46 CFG=1
M  V30 52 1 12 47
M  V30 53 1 13 48
M  V30 54 1 13 49
M  V30 55 1 14 50
M  V30 56 1 14 51
M  V30 57 1 16 52
M  V30 58 1 16 53
M  V30 59 1 16 54
M  V30 60 1 17 55 CFG=1
M  V30 61 1 18 56
M  V30 62 1 18 57
M  V30 63 1 19 58
M  V30 64 1 19 59
M  V30 65 1 20 60 CFG=1
M  V30 66 1 22 61
M  V30 67 1 23 62
M  V30 68 1 27 63
M  V30 69 1 27 64
M  V30 70 1 29 65
M  V30 71 1 31 66
M  V30 END BOND
M  V30 END CTAB
M  END
>  <Dataset>  (898) 
ChEMBL_Kinases

>  <Ligand_Instance>  (898) 
nan

>  <PDB_ID>  (898) 
nan

>  <Standardized_SMILES>  (898) 
C[C@]12CC[C@H]3[C@@H](CC=C4C[C@@H](O)CC[C@@]43C)[C@@H]1CC[C@@H]2c1ccc2nc(N)ncc2c1

>  <Name>  (898) 
nan

>  <Pocket>  (898) 
nan

>  <ATP_Site>  (898) 
nan

>  <Peripheral>  (898) 
nan

>  <Num_H_Atoms_ProtBoundConf>  (898) 
nan

>  <Num_Resolved_Atoms>  (898) 
nan

>  <Num_Not_Resolved_Atoms>  (898) 
nan

$$$$
CHEMBL4172716
     RDKit          3D

  0  0  0  0  0  0  0  0  0  0999 V3000
M  V30 BEGIN CTAB
M  V30 COUNTS 57 61 0 0 0
M  V30 BEGIN ATOM
M  V30 1 C 4.041883 -4.589992 0.880630 0
M  V30 2 O 3.612384 -3.267788 1.066295 0
M  V30 3 C 3.002724 -2.483195 0.112980 0
M  V30 4 O 3.158678 -3.507189 -0.558856 0
M  V30 5 C 2.542514 -1.111890 0.260584 0
M  V30 6 C 2.728751 -0.536954 1.494965 0
M  V30 7 C 3.373303 -1.250058 2.606820 0
M  V30 8 N 2.264932 0.723710 1.576529 0
M  V30 9 C 1.676903 1.348770 0.542053 0
M  V30 10 N 1.181888 2.683970 0.611554 0
M  V30 11 N -0.151607 2.506225 1.045496 0
M  V30 12 C -0.720331 2.462432 2.368996 0
M  V30 13 O 0.032838 2.598926 3.378333 0
M  V30 14 C -2.179348 2.254389 2.403481 0
M  V30 15 C -3.064875 3.198879 2.870144 0
M  V30 16 C -4.422786 2.926307 2.868189 0
M  V30 17 C -4.883852 1.716925 2.402072 0
M  V30 18 C -4.034533 0.717822 1.915558 0
M  V30 19 C -4.490881 -0.488984 1.449246 0
M  V30 20 O -5.722358 -0.739114 1.445676 0
M  V30 21 C -3.610056 -1.438044 0.980932 0
M  V30 22 C -3.982262 -2.664531 0.501044 0
M  V30 23 C -3.102314 -3.608664 0.035818 0
M  V30 24 C -1.760279 -3.286103 0.059522 0
M  V30 25 C -1.375128 -2.050422 0.542433 0
M  V30 26 C -2.274164 -1.111083 1.007722 0
M  V30 27 N -1.861493 0.076830 1.469717 0
M  V30 28 C -2.676950 1.039362 1.938076 0
M  V30 29 N 1.514680 0.736738 -0.664097 0
M  V30 30 C 1.954271 -0.542801 -0.843098 0
M  V30 31 C 1.734694 -1.107539 -2.156291 0
M  V30 32 C 0.419263 -0.927356 -2.599445 0
M  V30 33 C -0.010666 -1.380246 -3.842695 0
M  V30 34 C 0.887009 -2.026666 -4.664814 0
M  V30 35 C 2.189744 -2.215309 -4.249393 0
M  V30 36 C 2.590276 -1.758421 -3.016917 0
M  V30 37 H 3.255677 -5.309393 0.623150 0
M  V30 38 H 4.884584 -4.565718 0.163610 0
M  V30 39 H 4.451284 -4.927887 1.871507 0
M  V30 40 H 2.822689 -2.132574 2.933944 0
M  V30 41 H 4.464239 -1.417150 2.443472 0
M  V30 42 H 3.336525 -0.535568 3.486950 0
M  V30 43 H 1.632547 3.607773 0.407926 0
M  V30 44 H -0.751375 2.395906 0.180715 0
M  V30 45 H -2.677147 4.144663 3.233277 0
M  V30 46 H -5.127022 3.669792 3.235207 0
M  V30 47 H -5.948908 1.450895 2.379033 0
M  V30 48 H -5.055965 -2.903309 0.490340 0
M  V30 49 H -3.415719 -4.582165 -0.345833 0
M  V30 50 H -1.045444 -4.027415 -0.310918 0
M  V30 51 H -0.305397 -1.856432 0.535034 0
M  V30 52 H -0.838244 0.236880 1.449444 0
M  V30 53 H -0.366126 -0.425591 -2.018511 0
M  V30 54 H -1.024642 -1.240886 -4.175606 0
M  V30 55 H 0.634746 -2.414908 -5.652856 0
M  V30 56 H 2.974108 -2.715959 -4.832619 0
M  V30 57 H 3.578753 -1.863645 -2.645435 0
M  V30 END ATOM
M  V30 BEGIN BOND
M  V30 1 1 1 2
M  V30 2 1 2 3
M  V30 3 2 3 4
M  V30 4 1 3 5
M  V30 5 2 5 6
M  V30 6 1 6 7
M  V30 7 1 6 8
M  V30 8 2 8 9
M  V30 9 1 9 10
M  V30 10 1 10 11
M  V30 11 1 11 12
M  V30 12 2 12 13
M  V30 13 1 12 14
M  V30 14 2 14 15
M  V30 15 1 15 16
M  V30 16 2 16 17
M  V30 17 1 17 18
M  V30 18 1 18 19
M  V30 19 2 19 20
M  V30 20 1 19 21
M  V30 21 2 21 22
M  V30 22 1 22 23
M  V30 23 2 23 24
M  V30 24 1 24 25
M  V30 25 2 25 26
M  V30 26 1 26 27
M  V30 27 1 27 28
M  V30 28 1 9 29
M  V30 29 2 29 30
M  V30 30 1 30 31
M  V30 31 2 31 32
M  V30 32 1 32 33
M  V30 33 2 33 34
M  V30 34 1 34 35
M  V30 35 2 35 36
M  V30 36 1 30 5
M  V30 37 1 36 31
M  V30 38 1 28 14
M  V30 39 2 28 18
M  V30 40 1 26 21
M  V30 41 1 1 37
M  V30 42 1 1 38
M  V30 43 1 1 39
M  V30 44 1 7 40
M  V30 45 1 7 41
M  V30 46 1 7 42
M  V30 47 1 10 43
M  V30 48 1 11 44
M  V30 49 1 15 45
M  V30 50 1 16 46
M  V30 51 1 17 47
M  V30 52 1 22 48
M  V30 53 1 23 49
M  V30 54 1 24 50
M  V30 55 1 25 51
M  V30 56 1 27 52
M  V30 57 1 32 53
M  V30 58 1 33 54
M  V30 59 1 34 55
M  V30 60 1 35 56
M  V30 61 1 36 57
M  V30 END BOND
M  V30 END CTAB
M  END
>  <Dataset>  (899) 
ChEMBL_Kinases

>  <Ligand_Instance>  (899) 
nan

>  <PDB_ID>  (899) 
nan

>  <Standardized_SMILES>  (899) 
COC(=O)c1c(C)nc(NNC(=O)c2cccc3c(=O)c4ccccc4[nH]c23)nc1-c1ccccc1

>  <Name>  (899) 
nan

>  <Pocket>  (899) 
nan

>  <ATP_Site>  (899) 
nan

>  <Peripheral>  (899) 
nan

>  <Num_H_Atoms_ProtBoundConf>  (899) 
nan

>  <Num_Resolved_Atoms>  (899) 
nan

>  <Num_Not_Resolved_Atoms>  (899) 
nan

$$$$
CHEMBL4172550
     RDKit          3D

  0  0  0  0  0  0  0  0  0  0999 V3000
M  V30 BEGIN CTAB
M  V30 COUNTS 48 51 0 0 0
M  V30 BEGIN ATOM
M  V30 1 C -0.359245 -5.231591 2.815328 0
M  V30 2 O -1.770922 -5.423842 2.851816 0
M  V30 3 C -2.588788 -4.505785 2.172530 0
M  V30 4 C -2.032775 -3.448810 1.490832 0
M  V30 5 C -2.689223 -2.467677 0.778952 0
M  V30 6 C -1.919037 -1.413507 0.135206 0
M  V30 7 C -0.756653 -1.064184 0.816068 0
M  V30 8 N 0.023171 -0.099412 0.308327 0
M  V30 9 C -0.223602 0.577506 -0.826150 0
M  V30 10 C 0.459369 1.555412 -1.430240 0
M  V30 11 N 1.716913 2.080650 -0.912355 0
M  V30 12 C 2.044281 3.466903 -0.741801 0
M  V30 13 C 3.294131 3.516129 0.137717 0 CFG=1
M  V30 14 C 3.603587 4.934746 0.557951 0
M  V30 15 O 3.060700 2.704718 1.244759 0
M  V30 16 C 3.324996 1.388157 0.824987 0 CFG=1
M  V30 17 C 2.902380 0.376830 1.864391 0
M  V30 18 C 2.748225 1.120940 -0.536457 0
M  V30 19 S -0.381594 2.064960 -2.911445 0
M  V30 20 N -1.765291 0.833405 -2.661369 0
M  V30 21 C -1.362856 0.250582 -1.512557 0
M  V30 22 C -2.208079 -0.737372 -1.040171 0
M  V30 23 C -4.079478 -2.586802 0.765153 0
M  V30 24 C -4.697619 -3.632239 1.435091 0
M  V30 25 C -3.962778 -4.579216 2.130185 0
M  V30 26 N -4.586309 -5.663850 2.832646 0
M  V30 27 H -0.019794 -5.287336 1.746343 0
M  V30 28 H 0.165268 -6.034846 3.366440 0
M  V30 29 H -0.060600 -4.246243 3.232966 0
M  V30 30 H -0.945605 -3.391172 1.519063 0
M  V30 31 H -0.352482 -1.474691 1.757312 0
M  V30 32 H 1.278720 4.039724 -0.174287 0
M  V30 33 H 2.234093 4.015920 -1.681171 0
M  V30 34 H 4.133684 3.064171 -0.448591 0
M  V30 35 H 4.616499 4.965322 1.001519 0
M  V30 36 H 3.429620 5.660313 -0.239960 0
M  V30 37 H 2.891030 5.206963 1.383197 0
M  V30 38 H 4.438499 1.322966 0.733169 0
M  V30 39 H 3.704183 0.181027 2.598183 0
M  V30 40 H 2.674825 -0.596745 1.338912 0
M  V30 41 H 1.948843 0.672411 2.373724 0
M  V30 42 H 2.294822 0.112239 -0.493805 0
M  V30 43 H 3.529773 1.060679 -1.326160 0
M  V30 44 H -3.138269 -1.139479 -1.424688 0
M  V30 45 H -4.620437 -1.825405 0.210676 0
M  V30 46 H -5.785248 -3.697948 1.407021 0
M  V30 47 H -4.575219 -6.548945 2.285729 0
M  V30 48 H -4.891687 -5.242788 3.739739 0
M  V30 END ATOM
M  V30 BEGIN BOND
M  V30 1 1 1 2
M  V30 2 1 2 3
M  V30 3 2 3 4
M  V30 4 1 4 5
M  V30 5 1 5 6
M  V30 6 1 6 7
M  V30 7 2 7 8
M  V30 8 1 8 9
M  V30 9 2 9 10
M  V30 10 1 10 11
M  V30 11 1 11 12
M  V30 12 1 12 13
M  V30 13 1 13 14
M  V30 14 1 13 15
M  V30 15 1 15 16
M  V30 16 1 16 17
M  V30 17 1 16 18
M  V30 18 1 10 19
M  V30 19 1 19 20
M  V30 20 2 20 21
M  V30 21 1 21 22
M  V30 22 2 5 23
M  V30 23 1 23 24
M  V30 24 2 24 25
M  V30 25 1 25 26
M  V30 26 1 25 3
M  V30 27 2 22 6
M  V30 28 1 21 9
M  V30 29 1 18 11
M  V30 30 1 1 27
M  V30 31 1 1 28
M  V30 32 1 1 29
M  V30 33 1 4 30
M  V30 34 1 7 31
M  V30 35 1 12 32
M  V30 36 1 12 33
M  V30 37 1 13 34 CFG=3
M  V30 38 1 14 35
M  V30 39 1 14 36
M  V30 40 1 14 37
M  V30 41 1 16 38 CFG=3
M  V30 42 1 17 39
M  V30 43 1 17 40
M  V30 44 1 17 41
M  V30 45 1 18 42
M  V30 46 1 18 43
M  V30 47 1 22 44
M  V30 48 1 23 45
M  V30 49 1 24 46
M  V30 50 1 26 47
M  V30 51 1 26 48
M  V30 END BOND
M  V30 END CTAB
M  END
>  <Dataset>  (900) 
ChEMBL_Kinases

>  <Ligand_Instance>  (900) 
nan

>  <PDB_ID>  (900) 
nan

>  <Standardized_SMILES>  (900) 
COc1cc(-c2cnc3c(N4C[C@@H](C)O[C@@H](C)C4)snc3c2)ccc1N

>  <Name>  (900) 
nan

>  <Pocket>  (900) 
nan

>  <ATP_Site>  (900) 
nan

>  <Peripheral>  (900) 
nan

>  <Num_H_Atoms_ProtBoundConf>  (900) 
nan

>  <Num_Resolved_Atoms>  (900) 
nan

>  <Num_Not_Resolved_Atoms>  (900) 
nan

$$$$
CHEMBL417255
     RDKit          3D

  0  0  0  0  0  0  0  0  0  0999 V3000
M  V30 BEGIN CTAB
M  V30 COUNTS 59 63 0 0 0
M  V30 BEGIN ATOM
M  V30 1 C 4.312002 -3.434794 1.806994 0
M  V30 2 C 3.831896 -2.049210 2.065369 0
M  V30 3 C 3.506686 -1.641013 3.356056 0
M  V30 4 C 3.052560 -0.347256 3.636184 0
M  V30 5 C 2.713666 0.054078 5.029341 0
M  V30 6 C 2.943941 0.509795 2.551450 0
M  V30 7 C 3.258999 0.130565 1.267217 0
M  V30 8 O 3.088949 1.126549 0.296302 0
M  V30 9 C 1.844923 1.207002 -0.313959 0
M  V30 10 N 1.656200 2.167336 -1.262081 0
M  V30 11 C 0.463475 2.284265 -1.882985 0
M  V30 12 C -0.589008 1.442188 -1.577993 0
M  V30 13 C -0.403140 0.457507 -0.609037 0
M  V30 14 C -1.295969 -0.540768 -0.087666 0
M  V30 15 C -2.414368 -0.238182 0.624917 0
M  V30 16 C -3.042239 0.995855 1.062332 0
M  V30 17 C -3.610506 2.015385 0.325734 0
M  V30 18 C -4.160505 3.120374 0.893072 0
M  V30 19 C -4.169799 3.265267 2.273291 0
M  V30 20 F -4.750980 4.417081 2.707070 0
M  V30 21 C -3.612498 2.270700 3.049566 0
M  V30 22 C -3.058352 1.155253 2.453827 0
M  V30 23 N -2.992627 -1.421683 0.943998 0
M  V30 24 C -2.217637 -2.411417 0.421377 0
M  V30 25 N -1.144292 -1.871288 -0.231984 0
M  V30 26 C -0.111772 -2.617281 -0.908298 0
M  V30 27 C -0.577040 -4.062148 -1.089314 0
M  V30 28 C -1.757631 -4.126843 -2.056987 0
M  V30 29 N -1.229948 -3.777485 -3.374179 0
M  V30 30 C -0.896201 -2.348059 -3.275158 0
M  V30 31 C 0.209586 -2.126786 -2.286885 0
M  V30 32 N 0.829145 0.392595 -0.018058 0
M  V30 33 C 3.704572 -1.152982 1.022151 0
M  V30 34 H 3.850049 -4.176724 2.491645 0
M  V30 35 H 5.408578 -3.486254 1.762380 0
M  V30 36 H 3.951429 -3.696327 0.770338 0
M  V30 37 H 3.609516 -2.357651 4.184039 0
M  V30 38 H 1.667477 -0.190304 5.265944 0
M  V30 39 H 3.410669 -0.393791 5.768848 0
M  V30 40 H 2.803115 1.171484 5.104466 0
M  V30 41 H 2.592030 1.495722 2.804093 0
M  V30 42 H 0.191218 2.997090 -2.643611 0
M  V30 43 H -1.574447 1.415225 -1.982231 0
M  V30 44 H -3.569146 1.834382 -0.739591 0
M  V30 45 H -4.561979 3.824460 0.196726 0
M  V30 46 H -3.651495 2.442264 4.114790 0
M  V30 47 H -2.662431 0.465287 3.180240 0
M  V30 48 H -2.485298 -3.452727 0.551530 0
M  V30 49 H 0.834018 -2.669173 -0.327096 0
M  V30 50 H 0.234442 -4.629893 -1.588055 0
M  V30 51 H -0.897787 -4.533047 -0.157651 0
M  V30 52 H -2.172915 -5.136680 -2.016170 0
M  V30 53 H -2.529582 -3.369884 -1.846251 0
M  V30 54 H -0.344691 -4.302100 -3.481868 0
M  V30 55 H -1.827640 -1.850743 -2.946908 0
M  V30 56 H -0.555551 -1.979995 -4.259853 0
M  V30 57 H 1.064653 -2.772381 -2.635620 0
M  V30 58 H 0.562369 -1.103124 -2.367758 0
M  V30 59 H 3.940184 -1.404657 -0.004493 0
M  V30 END ATOM
M  V30 BEGIN BOND
M  V30 1 1 1 2
M  V30 2 2 2 3
M  V30 3 1 3 4
M  V30 4 1 4 5
M  V30 5 2 4 6
M  V30 6 1 6 7
M  V30 7 1 7 8
M  V30 8 1 8 9
M  V30 9 2 9 10
M  V30 10 1 10 11
M  V30 11 2 11 12
M  V30 12 1 12 13
M  V30 13 1 13 14
M  V30 14 2 14 15
M  V30 15 1 15 16
M  V30 16 2 16 17
M  V30 17 1 17 18
M  V30 18 2 18 19
M  V30 19 1 19 20
M  V30 20 1 19 21
M  V30 21 2 21 22
M  V30 22 1 15 23
M  V30 23 2 23 24
M  V30 24 1 24 25
M  V30 25 1 25 26
M  V30 26 1 26 27
M  V30 27 1 27 28
M  V30 28 1 28 29
M  V30 29 1 29 30
M  V30 30 1 30 31
M  V30 31 2 13 32
M  V30 32 2 7 33
M  V30 33 1 33 2
M  V30 34 1 32 9
M  V30 35 1 25 14
M  V30 36 1 31 26
M  V30 37 1 22 16
M  V30 38 1 1 34
M  V30 39 1 1 35
M  V30 40 1 1 36
M  V30 41 1 3 37
M  V30 42 1 5 38
M  V30 43 1 5 39
M  V30 44 1 5 40
M  V30 45 1 6 41
M  V30 46 1 11 42
M  V30 47 1 12 43
M  V30 48 1 17 44
M  V30 49 1 18 45
M  V30 50 1 21 46
M  V30 51 1 22 47
M  V30 52 1 24 48
M  V30 53 1 26 49
M  V30 54 1 27 50
M  V30 55 1 27 51
M  V30 56 1 28 52
M  V30 57 1 28 53
M  V30 58 1 29 54
M  V30 59 1 30 55
M  V30 60 1 30 56
M  V30 61 1 31 57
M  V30 62 1 31 58
M  V30 63 1 33 59
M  V30 END BOND
M  V30 END CTAB
M  END
>  <Dataset>  (901) 
ChEMBL_Kinases

>  <Ligand_Instance>  (901) 
nan

>  <PDB_ID>  (901) 
nan

>  <Standardized_SMILES>  (901) 
Cc1cc(C)cc(Oc2nccc(-c3c(-c4ccc(F)cc4)ncn3C3CCNCC3)n2)c1

>  <Name>  (901) 
nan

>  <Pocket>  (901) 
nan

>  <ATP_Site>  (901) 
nan

>  <Peripheral>  (901) 
nan

>  <Num_H_Atoms_ProtBoundConf>  (901) 
nan

>  <Num_Resolved_Atoms>  (901) 
nan

>  <Num_Not_Resolved_Atoms>  (901) 
nan

$$$$
CHEMBL4785614
     RDKit          3D

  0  0  0  0  0  0  0  0  0  0999 V3000
M  V30 BEGIN CTAB
M  V30 COUNTS 54 58 0 0 0
M  V30 BEGIN ATOM
M  V30 1 C 1.603399 -3.263036 7.120688 0
M  V30 2 N 1.328237 -3.241424 5.696251 0
M  V30 3 C 1.883244 -2.416893 4.773444 0
M  V30 4 C 1.307667 -2.777837 3.571770 0
M  V30 5 C 1.631946 -2.123357 2.287001 0
M  V30 6 C 1.963443 -0.786161 2.350562 0
M  V30 7 C 2.268946 -0.151602 1.160458 0
M  V30 8 C 2.246336 -0.824853 -0.061045 0
M  V30 9 C 2.558040 -0.148821 -1.237722 0
M  V30 10 N 2.909957 1.239811 -1.219710 0
M  V30 11 C 1.844884 2.211858 -1.287623 0
M  V30 12 C 2.113422 3.584302 -1.331597 0
M  V30 13 C 1.044128 4.456627 -1.390133 0
M  V30 14 C -0.246445 3.997200 -1.404901 0
M  V30 15 C -0.552492 2.670631 -1.363321 0
M  V30 16 N -1.912838 2.276706 -1.380118 0
M  V30 17 C -2.503203 1.007349 -1.337376 0
M  V30 18 O -1.746839 -0.006429 -1.271738 0
M  V30 19 N -3.864404 0.676833 -1.356827 0
M  V30 20 C -3.985708 -0.761762 -1.293289 0
M  V30 21 C -4.073728 -1.376403 -0.036623 0
M  V30 22 C -4.188085 -2.749222 0.077073 0
M  V30 23 C -4.211044 -3.470242 -1.080837 0
M  V30 24 F -4.324537 -4.819882 -0.935716 0
M  V30 25 C -4.126883 -2.900916 -2.333218 0
M  V30 26 C -4.011739 -1.523440 -2.459901 0
M  V30 27 C 0.523515 1.819503 -1.305662 0
M  V30 28 N 2.506622 -0.879693 -2.362698 0
M  V30 29 C 2.178505 -2.184520 -2.386103 0
M  V30 30 N 1.883733 -2.805359 -1.233721 0
M  V30 31 C 1.902799 -2.175391 -0.053379 0
M  V30 32 C 1.588930 -2.861914 1.098496 0
M  V30 33 C 0.413837 -3.812899 3.777795 0
M  V30 34 N 0.466914 -4.061185 5.119246 0
M  V30 35 H 0.748874 -3.691124 7.684133 0
M  V30 36 H 2.471104 -3.952623 7.282444 0
M  V30 37 H 1.926980 -2.266181 7.457362 0
M  V30 38 H 2.606959 -1.651986 4.926706 0
M  V30 39 H 1.986509 -0.249975 3.283222 0
M  V30 40 H 2.528183 0.893042 1.207689 0
M  V30 41 H 3.876694 1.568198 -1.161138 0
M  V30 42 H 3.132108 3.929613 -1.319229 0
M  V30 43 H 1.193999 5.524204 -1.425693 0
M  V30 44 H -1.062693 4.722618 -1.451469 0
M  V30 45 H -2.657584 3.010413 -1.432879 0
M  V30 46 H -4.540405 1.497801 -1.412083 0
M  V30 47 H -4.054374 -0.794279 0.880838 0
M  V30 48 H -4.254617 -3.202739 1.055290 0
M  V30 49 H -4.146713 -3.485956 -3.239939 0
M  V30 50 H -3.939432 -0.976227 -3.390161 0
M  V30 51 H 0.379945 0.771766 -1.270797 0
M  V30 52 H 2.139250 -2.771256 -3.305197 0
M  V30 53 H 1.322370 -3.911196 1.098893 0
M  V30 54 H -0.186759 -4.305145 3.031180 0
M  V30 END ATOM
M  V30 BEGIN BOND
M  V30 1 1 1 2
M  V30 2 1 2 3
M  V30 3 2 3 4
M  V30 4 1 4 5
M  V30 5 2 5 6
M  V30 6 1 6 7
M  V30 7 2 7 8
M  V30 8 1 8 9
M  V30 9 1 9 10
M  V30 10 1 10 11
M  V30 11 2 11 12
M  V30 12 1 12 13
M  V30 13 2 13 14
M  V30 14 1 14 15
M  V30 15 1 15 16
M  V30 16 1 16 17
M  V30 17 2 17 18
M  V30 18 1 17 19
M  V30 19 1 19 20
M  V30 20 2 20 21
M  V30 21 1 21 22
M  V30 22 2 22 23
M  V30 23 1 23 24
M  V30 24 1 23 25
M  V30 25 2 25 26
M  V30 26 2 15 27
M  V30 27 2 9 28
M  V30 28 1 28 29
M  V30 29 2 29 30
M  V30 30 1 30 31
M  V30 31 2 31 32
M  V30 32 1 4 33
M  V30 33 2 33 34
M  V30 34 1 34 2
M  V30 35 1 32 5
M  V30 36 1 31 8
M  V30 37 1 27 11
M  V30 38 1 26 20
M  V30 39 1 1 35
M  V30 40 1 1 36
M  V30 41 1 1 37
M  V30 42 1 3 38
M  V30 43 1 6 39
M  V30 44 1 7 40
M  V30 45 1 10 41
M  V30 46 1 12 42
M  V30 47 1 13 43
M  V30 48 1 14 44
M  V30 49 1 16 45
M  V30 50 1 19 46
M  V30 51 1 21 47
M  V30 52 1 22 48
M  V30 53 1 25 49
M  V30 54 1 26 50
M  V30 55 1 27 51
M  V30 56 1 29 52
M  V30 57 1 32 53
M  V30 58 1 33 54
M  V30 END BOND
M  V30 END CTAB
M  END
>  <Dataset>  (902) 
ChEMBL_Kinases

>  <Ligand_Instance>  (902) 
nan

>  <PDB_ID>  (902) 
nan

>  <Standardized_SMILES>  (902) 
Cn1cc(-c2ccc3c(Nc4cccc(NC(=O)Nc5ccc(F)cc5)c4)ncnc3c2)cn1

>  <Name>  (902) 
nan

>  <Pocket>  (902) 
nan

>  <ATP_Site>  (902) 
nan

>  <Peripheral>  (902) 
nan

>  <Num_H_Atoms_ProtBoundConf>  (902) 
nan

>  <Num_Resolved_Atoms>  (902) 
nan

>  <Num_Not_Resolved_Atoms>  (902) 
nan

$$$$
CHEMBL4171912
     RDKit          3D

  0  0  0  0  0  0  0  0  0  0999 V3000
M  V30 BEGIN CTAB
M  V30 COUNTS 46 50 0 0 0
M  V30 BEGIN ATOM
M  V30 1 O 0.572980 -4.171520 1.066293 0
M  V30 2 C 0.624982 -4.602002 -0.118609 0
M  V30 3 N 1.484345 -3.876709 -1.014696 0
M  V30 4 C 2.053806 -2.815855 -0.225369 0
M  V30 5 C 3.239313 -2.969953 0.471544 0
M  V30 6 C 3.734969 -1.911951 1.212659 0
M  V30 7 C 3.004154 -0.738324 1.215164 0
M  V30 8 N 3.331182 0.381793 1.873367 0
M  V30 9 N 2.362984 1.240051 1.597621 0
M  V30 10 C 1.435046 0.729948 0.799360 0
M  V30 11 N 0.243834 1.281885 0.258345 0
M  V30 12 C -0.313334 2.574162 0.442928 0
M  V30 13 C -0.486910 3.408983 -0.653517 0
M  V30 14 C -1.020148 4.678254 -0.570440 0
M  V30 15 C -1.411341 5.171843 0.655941 0
M  V30 16 C -1.258076 4.377863 1.774328 0
M  V30 17 C -1.650837 4.865881 3.004445 0
M  V30 18 C -1.497074 4.056407 4.136531 0
M  V30 19 C -0.959365 2.789645 4.014014 0
M  V30 20 C -0.580529 2.340669 2.771530 0
M  V30 21 C -0.720536 3.115810 1.643344 0
M  V30 22 C 1.824499 -0.563668 0.530160 0
M  V30 23 C 1.340438 -1.633039 -0.208044 0
M  V30 24 C -0.214207 -5.809257 -0.433203 0
M  V30 25 C -1.206051 -5.435052 -1.533053 0
M  V30 26 N -2.188997 -6.193720 -0.787610 0
M  V30 27 C -1.454344 -5.846942 0.424338 0
M  V30 28 H 1.494654 -4.272442 -1.989262 0
M  V30 29 H 3.752311 -3.928463 0.415911 0
M  V30 30 H 4.660362 -2.053327 1.748419 0
M  V30 31 H 4.136247 0.649322 2.495725 0
M  V30 32 H -0.393145 0.780382 -0.367954 0
M  V30 33 H -0.210837 3.112547 -1.657510 0
M  V30 34 H -1.153549 5.324884 -1.426803 0
M  V30 35 H -1.835369 6.161535 0.774302 0
M  V30 36 H -2.076370 5.857581 3.130102 0
M  V30 37 H -1.792095 4.391248 5.143551 0
M  V30 38 H -0.857657 2.189902 4.929131 0
M  V30 39 H -0.169482 1.342440 2.728659 0
M  V30 40 H 0.412830 -1.452712 -0.729503 0
M  V30 41 H 0.323951 -6.743012 -0.583811 0
M  V30 42 H -1.463208 -4.359005 -1.501335 0
M  V30 43 H -0.944029 -5.827882 -2.536495 0
M  V30 44 H -2.074462 -7.210079 -1.004334 0
M  V30 45 H -1.504743 -6.632401 1.188685 0
M  V30 46 H -1.707896 -4.822190 0.783054 0
M  V30 END ATOM
M  V30 BEGIN BOND
M  V30 1 2 1 2
M  V30 2 1 2 3
M  V30 3 1 3 4
M  V30 4 2 4 5
M  V30 5 1 5 6
M  V30 6 2 6 7
M  V30 7 1 7 8
M  V30 8 1 8 9
M  V30 9 2 9 10
M  V30 10 1 10 11
M  V30 11 1 11 12
M  V30 12 2 12 13
M  V30 13 1 13 14
M  V30 14 2 14 15
M  V30 15 1 15 16
M  V30 16 2 16 17
M  V30 17 1 17 18
M  V30 18 2 18 19
M  V30 19 1 19 20
M  V30 20 2 20 21
M  V30 21 1 10 22
M  V30 22 2 22 23
M  V30 23 1 2 24
M  V30 24 1 24 25
M  V30 25 1 25 26
M  V30 26 1 26 27
M  V30 27 1 23 4
M  V30 28 1 27 24
M  V30 29 1 22 7
M  V30 30 1 21 12
M  V30 31 1 21 16
M  V30 32 1 3 28
M  V30 33 1 5 29
M  V30 34 1 6 30
M  V30 35 1 8 31
M  V30 36 1 11 32
M  V30 37 1 13 33
M  V30 38 1 14 34
M  V30 39 1 15 35
M  V30 40 1 17 36
M  V30 41 1 18 37
M  V30 42 1 19 38
M  V30 43 1 20 39
M  V30 44 1 23 40
M  V30 45 1 24 41
M  V30 46 1 25 42
M  V30 47 1 25 43
M  V30 48 1 26 44
M  V30 49 1 27 45
M  V30 50 1 27 46
M  V30 END BOND
M  V30 END CTAB
M  END
>  <Dataset>  (903) 
ChEMBL_Kinases

>  <Ligand_Instance>  (903) 
nan

>  <PDB_ID>  (903) 
nan

>  <Standardized_SMILES>  (903) 
O=C(Nc1ccc2[nH]nc(Nc3cccc4ccccc34)c2c1)C1CNC1

>  <Name>  (903) 
nan

>  <Pocket>  (903) 
nan

>  <ATP_Site>  (903) 
nan

>  <Peripheral>  (903) 
nan

>  <Num_H_Atoms_ProtBoundConf>  (903) 
nan

>  <Num_Resolved_Atoms>  (903) 
nan

>  <Num_Not_Resolved_Atoms>  (903) 
nan

$$$$
CHEMBL4785650
     RDKit          3D

  0  0  0  0  0  0  0  0  0  0999 V3000
M  V30 BEGIN CTAB
M  V30 COUNTS 51 54 0 0 0
M  V30 BEGIN ATOM
M  V30 1 C 0.407416 -4.560957 1.494175 0
M  V30 2 N 1.860759 -4.685310 1.587938 0
M  V30 3 C 2.373845 -3.410130 2.003984 0
M  V30 4 C 2.142158 -2.467206 0.796316 0
M  V30 5 N 3.026611 -2.842114 -0.261560 0
M  V30 6 C 3.925555 -1.832598 -0.623496 0
M  V30 7 C 3.524755 -0.639602 -1.376940 0
M  V30 8 C 2.488001 0.274552 -0.920955 0
M  V30 9 N 1.140628 -0.170177 -0.840412 0
M  V30 10 C 0.212923 0.730444 -0.195209 0
M  V30 11 N 0.704329 1.914175 0.273154 0
M  V30 12 C -0.129028 2.803022 0.898555 0
M  V30 13 C -1.466115 2.515902 1.062334 0
M  V30 14 C -2.266054 3.441872 1.698471 0
M  V30 15 C -3.619021 3.141637 1.859564 0
M  V30 16 C -4.398521 4.081550 2.499353 0
M  V30 17 N -5.710393 3.815138 2.668617 0
M  V30 18 C -6.241035 2.661069 2.223276 0
M  V30 19 C -5.429138 1.735385 1.583160 0
M  V30 20 C -4.066317 1.932753 1.368599 0
M  V30 21 C -3.280860 0.997828 0.730931 0
M  V30 22 N -3.828884 -0.210553 0.264714 0 CHG=1 VAL=4
M  V30 23 O -4.020303 -0.835392 1.318825 0
M  V30 24 O -4.106218 -0.639769 -1.018969 0 CHG=-1 VAL=1
M  V30 25 C -1.943844 1.293017 0.571390 0
M  V30 26 N -1.101902 0.433599 -0.041320 0
M  V30 27 C 3.598275 -4.154403 -0.054500 0
M  V30 28 C 2.443327 -5.080901 0.337910 0
M  V30 29 H -0.115787 -5.422355 1.956727 0
M  V30 30 H 0.028362 -3.633450 1.973653 0
M  V30 31 H 0.129168 -4.561953 0.420462 0
M  V30 32 H 3.432618 -3.396916 2.257307 0
M  V30 33 H 1.795610 -2.983046 2.845193 0
M  V30 34 H 2.351239 -1.456157 1.231814 0
M  V30 35 H 1.094453 -2.602371 0.487480 0
M  V30 36 H 4.467773 -1.542934 0.352079 0
M  V30 37 H 4.824976 -2.261746 -1.206193 0
M  V30 38 H 4.476677 -0.005970 -1.476538 0
M  V30 39 H 3.329222 -0.872805 -2.476463 0
M  V30 40 H 2.734442 0.786381 0.057713 0
M  V30 41 H 2.471563 1.150808 -1.642871 0
M  V30 42 H 0.678782 -1.051709 -1.190513 0
M  V30 43 H 0.322960 3.721138 1.245738 0
M  V30 44 H -1.809363 4.358563 2.043322 0
M  V30 45 H -3.952599 5.009257 2.851836 0
M  V30 46 H -7.295124 2.421872 2.347070 0
M  V30 47 H -5.872243 0.793456 1.222044 0
M  V30 48 H 4.423477 -4.187388 0.663018 0
M  V30 49 H 3.992278 -4.554053 -1.026714 0
M  V30 50 H 1.694140 -4.951643 -0.489870 0
M  V30 51 H 2.804132 -6.126518 0.370458 0
M  V30 END ATOM
M  V30 BEGIN BOND
M  V30 1 1 1 2
M  V30 2 1 2 3
M  V30 3 1 3 4
M  V30 4 1 4 5
M  V30 5 1 5 6
M  V30 6 1 6 7
M  V30 7 1 7 8
M  V30 8 1 8 9
M  V30 9 1 9 10
M  V30 10 2 10 11
M  V30 11 1 11 12
M  V30 12 2 12 13
M  V30 13 1 13 14
M  V30 14 2 14 15
M  V30 15 1 15 16
M  V30 16 2 16 17
M  V30 17 1 17 18
M  V30 18 2 18 19
M  V30 19 1 19 20
M  V30 20 2 20 21
M  V30 21 1 21 22
M  V30 22 2 22 23
M  V30 23 1 22 24
M  V30 24 1 21 25
M  V30 25 2 25 26
M  V30 26 1 5 27
M  V30 27 1 27 28
M  V30 28 1 28 2
M  V30 29 1 26 10
M  V30 30 1 25 13
M  V30 31 1 20 15
M  V30 32 1 1 29
M  V30 33 1 1 30
M  V30 34 1 1 31
M  V30 35 1 3 32
M  V30 36 1 3 33
M  V30 37 1 4 34
M  V30 38 1 4 35
M  V30 39 1 6 36
M  V30 40 1 6 37
M  V30 41 1 7 38
M  V30 42 1 7 39
M  V30 43 1 8 40
M  V30 44 1 8 41
M  V30 45 1 9 42
M  V30 46 1 12 43
M  V30 47 1 14 44
M  V30 48 1 16 45
M  V30 49 1 18 46
M  V30 50 1 19 47
M  V30 51 1 27 48
M  V30 52 1 27 49
M  V30 53 1 28 50
M  V30 54 1 28 51
M  V30 END BOND
M  V30 END CTAB
M  END
>  <Dataset>  (904) 
ChEMBL_Kinases

>  <Ligand_Instance>  (904) 
nan

>  <PDB_ID>  (904) 
nan

>  <Standardized_SMILES>  (904) 
CN1CCN(CCCNc2ncc3cc4cnccc4c([N+](=O)[O-])c3n2)CC1

>  <Name>  (904) 
nan

>  <Pocket>  (904) 
nan

>  <ATP_Site>  (904) 
nan

>  <Peripheral>  (904) 
nan

>  <Num_H_Atoms_ProtBoundConf>  (904) 
nan

>  <Num_Resolved_Atoms>  (904) 
nan

>  <Num_Not_Resolved_Atoms>  (904) 
nan

$$$$
CHEMBL4172418
     RDKit          3D

  0  0  0  0  0  0  0  0  0  0999 V3000
M  V30 BEGIN CTAB
M  V30 COUNTS 39 41 0 0 0
M  V30 BEGIN ATOM
M  V30 1 C 1.311028 -5.976395 -1.554856 0
M  V30 2 C 0.463558 -5.629674 -0.334525 0
M  V30 3 C -0.229277 -4.297088 -0.568296 0
M  V30 4 C 0.799113 -3.206113 -0.789138 0
M  V30 5 C 0.185990 -1.895338 -1.020627 0
M  V30 6 O -1.075553 -1.847107 -1.006366 0
M  V30 7 N 1.060249 -0.794902 -1.240504 0
M  V30 8 C 0.411955 0.475222 -1.463816 0
M  V30 9 N 0.020018 1.010560 -2.643250 0
M  V30 10 N -0.538775 2.194510 -2.434668 0
M  V30 11 C -0.519831 2.450796 -1.109981 0
M  V30 12 N -0.932839 3.462177 -0.343401 0
M  V30 13 N -0.801699 3.488090 0.972389 0
M  V30 14 C -0.232781 2.483887 1.663975 0
M  V30 15 C -0.093388 2.523238 3.115524 0
M  V30 16 C 0.479378 1.526749 3.876893 0
M  V30 17 C 0.562734 1.662417 5.248486 0
M  V30 18 C 0.078348 2.794275 5.903318 0
M  V30 19 C -0.505463 3.813835 5.144589 0
M  V30 20 C -0.568254 3.637220 3.777112 0
M  V30 21 C 0.204335 1.423441 0.897443 0
M  V30 22 C 0.075679 1.379665 -0.475903 0
M  V30 23 H 0.746175 -5.662653 -2.451690 0
M  V30 24 H 2.296290 -5.465940 -1.541685 0
M  V30 25 H 1.466040 -7.071084 -1.650612 0
M  V30 26 H 1.143577 -5.550120 0.516823 0
M  V30 27 H -0.289289 -6.432429 -0.266002 0
M  V30 28 H -0.826359 -4.104475 0.341371 0
M  V30 29 H -0.930980 -4.425514 -1.408397 0
M  V30 30 H 1.346756 -3.121544 0.191489 0
M  V30 31 H 1.543427 -3.507480 -1.541809 0
M  V30 32 H 2.091446 -0.930634 -1.234325 0
M  V30 33 H -0.929737 2.825292 -3.176417 0
M  V30 34 H 0.853992 0.652594 3.375810 0
M  V30 35 H 1.016431 0.864531 5.813085 0
M  V30 36 H 0.157233 2.873301 6.979528 0
M  V30 37 H -0.890774 4.701750 5.609704 0
M  V30 38 H -1.028457 4.451351 3.225808 0
M  V30 39 H 0.666669 0.582786 1.349035 0
M  V30 END ATOM
M  V30 BEGIN BOND
M  V30 1 1 1 2
M  V30 2 1 2 3
M  V30 3 1 3 4
M  V30 4 1 4 5
M  V30 5 2 5 6
M  V30 6 1 5 7
M  V30 7 1 7 8
M  V30 8 2 8 9
M  V30 9 1 9 10
M  V30 10 1 10 11
M  V30 11 2 11 12
M  V30 12 1 12 13
M  V30 13 2 13 14
M  V30 14 1 14 15
M  V30 15 2 15 16
M  V30 16 1 16 17
M  V30 17 2 17 18
M  V30 18 1 18 19
M  V30 19 2 19 20
M  V30 20 1 14 21
M  V30 21 2 21 22
M  V30 22 1 22 8
M  V30 23 1 22 11
M  V30 24 1 20 15
M  V30 25 1 1 23
M  V30 26 1 1 24
M  V30 27 1 1 25
M  V30 28 1 2 26
M  V30 29 1 2 27
M  V30 30 1 3 28
M  V30 31 1 3 29
M  V30 32 1 4 30
M  V30 33 1 4 31
M  V30 34 1 7 32
M  V30 35 1 10 33
M  V30 36 1 16 34
M  V30 37 1 17 35
M  V30 38 1 18 36
M  V30 39 1 19 37
M  V30 40 1 20 38
M  V30 41 1 21 39
M  V30 END BOND
M  V30 END CTAB
M  END
>  <Dataset>  (905) 
ChEMBL_Kinases

>  <Ligand_Instance>  (905) 
nan

>  <PDB_ID>  (905) 
nan

>  <Standardized_SMILES>  (905) 
CCCCC(=O)Nc1n[nH]c2nnc(-c3ccccc3)cc12

>  <Name>  (905) 
nan

>  <Pocket>  (905) 
nan

>  <ATP_Site>  (905) 
nan

>  <Peripheral>  (905) 
nan

>  <Num_H_Atoms_ProtBoundConf>  (905) 
nan

>  <Num_Resolved_Atoms>  (905) 
nan

>  <Num_Not_Resolved_Atoms>  (905) 
nan

$$$$
CHEMBL4785707
     RDKit          3D

  0  0  0  0  0  0  0  0  0  0999 V3000
M  V30 BEGIN CTAB
M  V30 COUNTS 51 55 0 0 0
M  V30 BEGIN ATOM
M  V30 1 O 2.363578 0.563505 1.420592 0
M  V30 2 C 1.975476 0.760875 2.589654 0
M  V30 3 N 2.394819 -0.197989 3.538651 0
M  V30 4 C 3.196943 -1.324317 3.252813 0
M  V30 5 C 4.598281 -1.255986 3.325754 0
M  V30 6 C 5.392150 -2.362684 3.044953 0
M  V30 7 C 4.809820 -3.578765 2.679990 0
M  V30 8 F 5.610126 -4.644466 2.410127 0
M  V30 9 C 3.437112 -3.674792 2.600093 0
M  V30 10 C 2.690317 -2.553676 2.887132 0
M  V30 11 N 1.167411 1.893053 2.884363 0
M  V30 12 C 0.923581 2.664391 1.686928 0
M  V30 13 C 1.798823 3.679746 1.340753 0
M  V30 14 C 1.451304 4.347608 0.160319 0
M  V30 15 C 0.339413 4.016743 -0.581106 0
M  V30 16 C -0.498680 2.994696 -0.188307 0
M  V30 17 N -1.649085 2.607063 -0.923391 0
M  V30 18 C -2.651886 1.674497 -0.568968 0
M  V30 19 N -3.768843 2.149206 -0.016802 0
M  V30 20 C -4.773860 1.336633 0.355208 0
M  V30 21 N -4.649917 -0.001937 0.164876 0
M  V30 22 C -3.534223 -0.513124 -0.390392 0
M  V30 23 C -3.484191 -1.880641 -0.543908 0
M  V30 24 C -2.335547 -2.374339 -1.105458 0
M  V30 25 C -2.069288 -3.747823 -1.350326 0
M  V30 26 C -2.918282 -4.739419 -1.060186 0
M  V30 27 C -2.792850 -6.075374 -1.234323 0
M  V30 28 C -1.444677 -6.318662 -1.856638 0
M  V30 29 S -0.666017 -4.613912 -2.053226 0
M  V30 30 C -1.293519 -1.563064 -1.494524 0
M  V30 31 C -1.354751 -0.178781 -1.334833 0
M  V30 32 C -2.503779 0.319984 -0.772147 0
M  V30 33 C -0.201286 2.294874 0.980642 0
M  V30 34 H 2.086910 -0.067049 4.543965 0
M  V30 35 H 5.085210 -0.317807 3.608936 0
M  V30 36 H 6.483086 -2.285668 3.109850 0
M  V30 37 H 2.973189 -4.619391 2.317054 0
M  V30 38 H 1.611215 -2.687657 2.808281 0
M  V30 39 H 0.853777 2.034717 3.890029 0
M  V30 40 H 2.660155 3.928673 1.925230 0
M  V30 41 H 2.079587 5.153233 -0.180964 0
M  V30 42 H 0.051772 4.521037 -1.496953 0
M  V30 43 H -1.777293 3.079917 -1.867893 0
M  V30 44 H -5.647361 1.802889 0.795761 0
M  V30 45 H -4.222191 -2.594079 -0.282535 0
M  V30 46 H -3.915407 -4.655647 -0.609831 0
M  V30 47 H -3.181432 -7.062182 -1.149026 0
M  V30 48 H -0.707384 -7.145599 -2.257671 0
M  V30 49 H -0.349574 -1.888992 -1.948626 0
M  V30 50 H -0.551370 0.478794 -1.631463 0
M  V30 51 H -0.843658 1.494982 1.302198 0
M  V30 END ATOM
M  V30 BEGIN BOND
M  V30 1 2 1 2
M  V30 2 1 2 3
M  V30 3 1 3 4
M  V30 4 2 4 5
M  V30 5 1 5 6
M  V30 6 2 6 7
M  V30 7 1 7 8
M  V30 8 1 7 9
M  V30 9 2 9 10
M  V30 10 1 2 11
M  V30 11 1 11 12
M  V30 12 2 12 13
M  V30 13 1 13 14
M  V30 14 2 14 15
M  V30 15 1 15 16
M  V30 16 1 16 17
M  V30 17 1 17 18
M  V30 18 2 18 19
M  V30 19 1 19 20
M  V30 20 2 20 21
M  V30 21 1 21 22
M  V30 22 2 22 23
M  V30 23 1 23 24
M  V30 24 1 24 25
M  V30 25 2 25 26
M  V30 26 1 26 27
M  V30 27 2 27 28
M  V30 28 1 28 29
M  V30 29 2 24 30
M  V30 30 1 30 31
M  V30 31 2 31 32
M  V30 32 2 16 33
M  V30 33 1 10 4
M  V30 34 1 33 12
M  V30 35 1 32 18
M  V30 36 1 32 22
M  V30 37 1 29 25
M  V30 38 1 3 34
M  V30 39 1 5 35
M  V30 40 1 6 36
M  V30 41 1 9 37
M  V30 42 1 10 38
M  V30 43 1 11 39
M  V30 44 1 13 40
M  V30 45 1 14 41
M  V30 46 1 15 42
M  V30 47 1 17 43
M  V30 48 1 20 44
M  V30 49 1 23 45
M  V30 50 1 26 46
M  V30 51 1 27 47
M  V30 52 1 28 48
M  V30 53 1 30 49
M  V30 54 1 31 50
M  V30 55 1 33 51
M  V30 END BOND
M  V30 END CTAB
M  END
>  <Dataset>  (906) 
ChEMBL_Kinases

>  <Ligand_Instance>  (906) 
nan

>  <PDB_ID>  (906) 
nan

>  <Standardized_SMILES>  (906) 
O=C(Nc1ccc(F)cc1)Nc1cccc(Nc2ncnc3cc(-c4cccs4)ccc23)c1

>  <Name>  (906) 
nan

>  <Pocket>  (906) 
nan

>  <ATP_Site>  (906) 
nan

>  <Peripheral>  (906) 
nan

>  <Num_H_Atoms_ProtBoundConf>  (906) 
nan

>  <Num_Resolved_Atoms>  (906) 
nan

>  <Num_Not_Resolved_Atoms>  (906) 
nan

$$$$
CHEMBL4172295
     RDKit          3D

  0  0  0  0  0  0  0  0  0  0999 V3000
M  V30 BEGIN CTAB
M  V30 COUNTS 63 69 0 0 0
M  V30 BEGIN ATOM
M  V30 1 O 0.043660 2.463654 3.388030 0
M  V30 2 C 1.107322 1.992541 2.896769 0
M  V30 3 N 1.326517 1.636797 1.512903 0
M  V30 4 C 2.652989 1.117602 1.238886 0
M  V30 5 C 2.512089 -0.363970 1.223073 0
M  V30 6 C 3.669318 -0.968641 1.658852 0
M  V30 7 C 3.722364 -2.346196 1.710823 0
M  V30 8 C 2.619041 -3.107493 1.326866 0
M  V30 9 C 1.489793 -2.473725 0.900296 0
M  V30 10 C 0.264088 -2.900092 0.468570 0
M  V30 11 C -0.213664 -4.292356 0.308627 0
M  V30 12 C -1.425913 -4.708056 0.721298 0
M  V30 13 C -2.420828 -3.867216 1.373985 0
M  V30 14 C -2.005018 -2.987330 2.383660 0
M  V30 15 N -3.064694 -2.280770 2.872384 0
M  V30 16 C -4.128181 -2.715601 2.174937 0
M  V30 17 C -5.467855 -2.356714 2.235254 0
M  V30 18 C -6.309088 -3.010355 1.358324 0
M  V30 19 C -5.916432 -3.965306 0.456452 0
M  V30 20 C -4.568223 -4.281680 0.442405 0
M  V30 21 N -3.743376 -3.650218 1.293003 0
M  V30 22 C -1.602554 -6.117472 0.427092 0
M  V30 23 O -2.538148 -6.922159 0.620578 0
M  V30 24 N -0.420841 -6.571871 -0.202938 0
M  V30 25 C 0.444632 -5.443203 -0.279700 0
M  V30 26 O 1.594488 -5.452472 -0.779249 0
M  V30 27 C -0.512528 -1.812493 0.161943 0
M  V30 28 N 0.215239 -0.682835 0.398023 0
M  V30 29 C 1.412826 -1.102947 0.840249 0
M  V30 30 C -0.440743 0.580160 0.130942 0
M  V30 31 C 0.294844 1.795008 0.497776 0
M  V30 32 N 0.851375 2.521487 -0.610417 0
M  V30 33 C -0.074889 3.001815 -1.581482 0
M  V30 34 C 0.709182 3.261588 -2.841398 0
M  V30 35 C 1.936978 4.068388 -2.636121 0
M  V30 36 C 2.543621 4.025239 -1.292178 0
M  V30 37 C 1.569534 3.707717 -0.189712 0
M  V30 38 H 0.086117 2.377823 3.036951 0
M  V30 39 H 3.024499 1.383385 0.231581 0
M  V30 40 H 3.344855 1.438841 2.037898 0
M  V30 41 H 4.544195 -0.414338 1.964700 0
M  V30 42 H 4.594072 -2.896185 2.041155 0
M  V30 43 H 2.651837 -4.168320 1.369974 0
M  V30 44 H -1.047724 -2.737297 2.865225 0
M  V30 45 H -5.741290 -1.607532 2.949811 0
M  V30 46 H -7.359181 -2.714002 1.418769 0
M  V30 47 H -6.682819 -4.395303 -0.167288 0
M  V30 48 H -4.249674 -5.026329 -0.267615 0
M  V30 49 H -0.166627 -7.518587 -0.563049 0
M  V30 50 H -1.539212 -1.868805 -0.212783 0
M  V30 51 H -1.449195 0.555587 0.646201 0
M  V30 52 H -0.696376 0.581239 -0.942592 0
M  V30 53 H -0.434968 2.520004 0.974197 0
M  V30 54 H -0.933286 2.390762 -1.813503 0
M  V30 55 H -0.482346 3.999114 -1.244377 0
M  V30 56 H 0.947345 2.272803 -3.300777 0
M  V30 57 H 0.077683 3.798631 -3.581674 0
M  V30 58 H 1.758288 5.144096 -2.924392 0
M  V30 59 H 2.704313 3.731666 -3.385596 0
M  V30 60 H 3.061342 4.998385 -1.090713 0
M  V30 61 H 3.321981 3.224094 -1.278506 0
M  V30 62 H 0.851503 4.570845 -0.133852 0
M  V30 63 H 2.032279 3.636029 0.781747 0
M  V30 END ATOM
M  V30 BEGIN BOND
M  V30 1 2 1 2
M  V30 2 1 2 3
M  V30 3 1 3 4
M  V30 4 1 4 5
M  V30 5 2 5 6
M  V30 6 1 6 7
M  V30 7 2 7 8
M  V30 8 1 8 9
M  V30 9 1 9 10
M  V30 10 1 10 11
M  V30 11 2 11 12
M  V30 12 1 12 13
M  V30 13 2 13 14
M  V30 14 1 14 15
M  V30 15 2 15 16
M  V30 16 1 16 17
M  V30 17 2 17 18
M  V30 18 1 18 19
M  V30 19 2 19 20
M  V30 20 1 20 21
M  V30 21 1 12 22
M  V30 22 2 22 23
M  V30 23 1 22 24
M  V30 24 1 24 25
M  V30 25 2 25 26
M  V30 26 2 10 27
M  V30 27 1 27 28
M  V30 28 1 28 29
M  V30 29 1 28 30
M  V30 30 1 30 31
M  V30 31 1 31 32
M  V30 32 1 32 33
M  V30 33 1 33 34
M  V30 34 1 34 35
M  V30 35 1 35 36
M  V30 36 1 36 37
M  V30 37 1 31 3
M  V30 38 1 37 32
M  V30 39 1 29 5
M  V30 40 2 29 9
M  V30 41 1 25 11
M  V30 42 1 21 13
M  V30 43 1 21 16
M  V30 44 1 2 38
M  V30 45 1 4 39
M  V30 46 1 4 40
M  V30 47 1 6 41
M  V30 48 1 7 42
M  V30 49 1 8 43
M  V30 50 1 14 44
M  V30 51 1 17 45
M  V30 52 1 18 46
M  V30 53 1 19 47
M  V30 54 1 20 48
M  V30 55 1 24 49
M  V30 56 1 27 50
M  V30 57 1 30 51
M  V30 58 1 30 52
M  V30 59 1 31 53
M  V30 60 1 33 54
M  V30 61 1 33 55
M  V30 62 1 34 56
M  V30 63 1 34 57
M  V30 64 1 35 58
M  V30 65 1 35 59
M  V30 66 1 36 60
M  V30 67 1 36 61
M  V30 68 1 37 62
M  V30 69 1 37 63
M  V30 END BOND
M  V30 END CTAB
M  END
>  <Dataset>  (907) 
ChEMBL_Kinases

>  <Ligand_Instance>  (907) 
nan

>  <PDB_ID>  (907) 
nan

>  <Standardized_SMILES>  (907) 
O=CN1Cc2cccc3c(C4=C(c5cnc6ccccn56)C(=O)NC4=O)cn(c23)CC1N1CCCCC1

>  <Name>  (907) 
nan

>  <Pocket>  (907) 
nan

>  <ATP_Site>  (907) 
nan

>  <Peripheral>  (907) 
nan

>  <Num_H_Atoms_ProtBoundConf>  (907) 
nan

>  <Num_Resolved_Atoms>  (907) 
nan

>  <Num_Not_Resolved_Atoms>  (907) 
nan

$$$$
CHEMBL4172279
     RDKit          3D

  0  0  0  0  0  0  0  0  0  0999 V3000
M  V30 BEGIN CTAB
M  V30 COUNTS 60 64 0 0 0
M  V30 BEGIN ATOM
M  V30 1 C 0.721960 -4.441516 2.986940 0
M  V30 2 O 1.253579 -3.144388 3.077225 0
M  V30 3 C 1.568946 -2.330562 2.022796 0
M  V30 4 C 2.085655 -1.112767 2.481085 0
M  V30 5 C 2.481298 -0.112550 1.602053 0
M  V30 6 C 2.370134 -0.304646 0.238287 0
M  V30 7 C 2.832800 0.694965 -0.704653 0
M  V30 8 C 2.147838 1.576298 -1.387864 0
M  V30 9 C 2.591033 2.579622 -2.342301 0
M  V30 10 O 3.771957 2.761660 -2.729178 0
M  V30 11 N 1.458325 3.320114 -2.764474 0
M  V30 12 C 0.339771 2.779641 -2.079461 0
M  V30 13 C -0.975260 3.180791 -2.154483 0
M  V30 14 C -1.948512 2.536391 -1.388431 0
M  V30 15 C -1.583314 1.480640 -0.543183 0
M  V30 16 C -2.665179 0.867042 0.224594 0
M  V30 17 O -3.811107 1.362385 0.110148 0
M  V30 18 N -2.498540 -0.248453 1.085731 0
M  V30 19 C -3.581404 -0.847392 1.845248 0 CFG=2
M  V30 20 C -3.279799 -1.048117 3.290654 0
M  V30 21 O -2.180331 -1.886905 3.495458 0
M  V30 22 C -3.839383 -2.187141 1.238364 0
M  V30 23 C -2.833880 -3.064501 0.878691 0
M  V30 24 C -3.153377 -4.290775 0.320550 0
M  V30 25 C -4.465996 -4.664830 0.111068 0
M  V30 26 C -5.533140 -3.823538 0.452590 0
M  V30 27 C -5.123259 -2.634338 0.997702 0
M  V30 28 C -0.256316 1.111901 -0.498986 0
M  V30 29 C 0.713199 1.733665 -1.245575 0
M  V30 30 C 4.309950 0.647508 -0.831733 0
M  V30 31 N 5.229199 1.645466 -0.881943 0
M  V30 32 C 6.457806 1.146487 -1.008090 0
M  V30 33 C 6.373427 -0.224489 -1.044502 0
M  V30 34 N 5.054622 -0.495442 -0.935133 0
M  V30 35 C 1.853101 -1.522514 -0.245606 0
M  V30 36 C 1.471875 -2.488970 0.658476 0
M  V30 37 H 1.100293 -4.972506 2.104127 0
M  V30 38 H -0.376375 -4.388078 2.908012 0
M  V30 39 H 0.991961 -5.065667 3.880873 0
M  V30 40 H 2.232728 -0.814965 3.519396 0
M  V30 41 H 2.881768 0.832171 1.896471 0
M  V30 42 H 1.505632 4.092431 -3.443594 0
M  V30 43 H -1.272273 3.996866 -2.804637 0
M  V30 44 H -2.959092 2.897454 -1.492821 0
M  V30 45 H -1.553573 -0.676987 1.192832 0
M  V30 46 H -4.524610 -0.287792 1.743179 0
M  V30 47 H -3.161869 -0.108513 3.845484 0
M  V30 48 H -4.164454 -1.583351 3.725505 0
M  V30 49 H -2.506353 -2.824082 3.340796 0
M  V30 50 H -1.814299 -2.782773 1.037426 0
M  V30 51 H -2.383114 -5.003122 0.026910 0
M  V30 52 H -4.735800 -5.631280 -0.329522 0
M  V30 53 H -6.584723 -4.023976 0.328506 0
M  V30 54 H -5.912496 -1.932446 1.286946 0
M  V30 55 H -0.112301 0.326179 0.179179 0
M  V30 56 H 7.383513 1.707730 -1.071555 0
M  V30 57 H 7.141702 -0.991292 -1.137175 0
M  V30 58 H 4.627401 -1.450220 -0.928431 0
M  V30 59 H 1.739010 -1.737241 -1.285330 0
M  V30 60 H 1.056321 -3.474244 0.410230 0
M  V30 END ATOM
M  V30 BEGIN BOND
M  V30 1 1 1 2
M  V30 2 1 2 3
M  V30 3 2 3 4
M  V30 4 1 4 5
M  V30 5 2 5 6
M  V30 6 1 6 7
M  V30 7 2 7 8
M  V30 8 1 8 9
M  V30 9 2 9 10
M  V30 10 1 9 11
M  V30 11 1 11 12
M  V30 12 2 12 13
M  V30 13 1 13 14
M  V30 14 2 14 15
M  V30 15 1 15 16
M  V30 16 2 16 17
M  V30 17 1 16 18
M  V30 18 1 18 19
M  V30 19 1 19 20
M  V30 20 1 20 21
M  V30 21 1 19 22
M  V30 22 2 22 23
M  V30 23 1 23 24
M  V30 24 2 24 25
M  V30 25 1 25 26
M  V30 26 2 26 27
M  V30 27 1 15 28
M  V30 28 2 28 29
M  V30 29 1 7 30
M  V30 30 2 30 31
M  V30 31 1 31 32
M  V30 32 2 32 33
M  V30 33 1 33 34
M  V30 34 1 6 35
M  V30 35 2 35 36
M  V30 36 1 36 3
M  V30 37 1 29 8
M  V30 38 1 34 30
M  V30 39 1 29 12
M  V30 40 1 27 22
M  V30 41 1 1 37
M  V30 42 1 1 38
M  V30 43 1 1 39
M  V30 44 1 4 40
M  V30 45 1 5 41
M  V30 46 1 11 42
M  V30 47 1 13 43
M  V30 48 1 14 44
M  V30 49 1 18 45
M  V30 50 1 19 46 CFG=1
M  V30 51 1 20 47
M  V30 52 1 20 48
M  V30 53 1 21 49
M  V30 54 1 23 50
M  V30 55 1 24 51
M  V30 56 1 25 52
M  V30 57 1 26 53
M  V30 58 1 27 54
M  V30 59 1 28 55
M  V30 60 1 32 56
M  V30 61 1 33 57
M  V30 62 1 34 58
M  V30 63 1 35 59
M  V30 64 1 36 60
M  V30 END BOND
M  V30 END CTAB
M  END
>  <Dataset>  (908) 
ChEMBL_Kinases

>  <Ligand_Instance>  (908) 
nan

>  <PDB_ID>  (908) 
nan

>  <Standardized_SMILES>  (908) 
COc1ccc(/C(=C2/C(=O)Nc3ccc(C(=O)N[C@H](CO)c4ccccc4)cc32)c2ncc[nH]2)cc1

>  <Name>  (908) 
nan

>  <Pocket>  (908) 
nan

>  <ATP_Site>  (908) 
nan

>  <Peripheral>  (908) 
nan

>  <Num_H_Atoms_ProtBoundConf>  (908) 
nan

>  <Num_Resolved_Atoms>  (908) 
nan

>  <Num_Not_Resolved_Atoms>  (908) 
nan

$$$$
CHEMBL4785799
     RDKit          3D

  0  0  0  0  0  0  0  0  0  0999 V3000
M  V30 BEGIN CTAB
M  V30 COUNTS 79 84 0 0 0
M  V30 BEGIN ATOM
M  V30 1 C 5.967154 -1.875510 3.484986 0
M  V30 2 C 4.740712 -1.813377 2.574208 0
M  V30 3 C 4.987371 -0.862763 1.423895 0 CFG=2
M  V30 4 C 5.252078 0.465079 1.983519 0
M  V30 5 N 6.186304 0.768741 2.913124 0
M  V30 6 N 6.129014 2.056358 3.182438 0
M  V30 7 C 5.155958 2.617906 2.432945 0
M  V30 8 C 4.833037 4.060958 2.492913 0
M  V30 9 N 4.644426 1.617027 1.715448 0
M  V30 10 C 3.617219 1.561055 0.750015 0
M  V30 11 C 2.939145 2.706864 0.425885 0
M  V30 12 N 1.948962 2.668070 -0.492917 0
M  V30 13 C 1.657262 1.472607 -1.071531 0
M  V30 14 N 0.581078 1.475156 -2.036238 0
M  V30 15 C -0.755637 1.008415 -1.740525 0
M  V30 16 C -0.888483 0.459274 -0.469965 0
M  V30 17 C -2.083865 -0.066305 -0.003897 0
M  V30 18 C -3.199228 -0.044027 -0.840153 0
M  V30 19 C -4.483704 -0.601608 -0.424688 0
M  V30 20 O -5.498108 -0.337451 -1.138449 0
M  V30 21 N -4.593874 -1.411131 0.727367 0
M  V30 22 C -5.786060 -2.013192 1.239067 0
M  V30 23 C -5.955944 -3.448359 0.754478 0
M  V30 24 C -7.412666 -3.772716 0.915019 0
M  V30 25 N -8.076299 -3.035828 1.926504 0
M  V30 26 C -9.103695 -2.127107 1.481489 0
M  V30 27 C -7.322622 -2.577061 3.031044 0
M  V30 28 C -5.939341 -2.053246 2.712975 0
M  V30 29 C -3.048704 0.504942 -2.097499 0
M  V30 30 C -1.866553 1.029171 -2.571445 0
M  V30 31 O -1.615801 1.590350 -3.790933 0
M  V30 32 C -2.510232 1.761182 -4.854615 0
M  V30 33 N 2.323258 0.355272 -0.750924 0
M  V30 34 C 3.311253 0.357326 0.156080 0
M  V30 35 N 3.944338 -0.884746 0.421065 0
M  V30 36 C 3.670840 -2.156950 -0.207921 0
M  V30 37 C 4.001345 -2.063847 -1.651751 0
M  V30 38 C 3.213614 -1.823511 -2.755340 0
M  V30 39 C 3.724232 -1.753904 -4.027230 0
M  V30 40 C 5.063415 -1.918679 -4.305049 0
M  V30 41 F 5.588714 -1.856554 -5.541396 0
M  V30 42 C 5.894721 -2.163992 -3.219109 0
M  V30 43 C 5.357770 -2.227960 -1.961777 0
M  V30 44 H 6.110853 -2.902182 3.876053 0
M  V30 45 H 5.870575 -1.135381 4.306575 0
M  V30 46 H 6.897218 -1.617143 2.926815 0
M  V30 47 H 3.906949 -1.474729 3.226010 0
M  V30 48 H 4.553838 -2.853366 2.251933 0
M  V30 49 H 5.971742 -1.209368 0.976143 0
M  V30 50 H 3.834881 4.298210 2.885037 0
M  V30 51 H 5.081295 4.587187 1.524564 0
M  V30 52 H 5.548216 4.568291 3.214276 0
M  V30 53 H 3.083547 3.682919 0.809333 0
M  V30 54 H 0.620411 1.797784 -3.034244 0
M  V30 55 H -0.063054 0.410014 0.231161 0
M  V30 56 H -2.152377 -0.488506 0.991175 0
M  V30 57 H -3.782260 -1.654335 1.335603 0
M  V30 58 H -6.659446 -1.479012 0.777567 0
M  V30 59 H -5.381526 -4.092118 1.446928 0
M  V30 60 H -5.572918 -3.593903 -0.254072 0
M  V30 61 H -7.596498 -4.856161 1.045935 0
M  V30 62 H -7.912427 -3.499314 -0.062037 0
M  V30 63 H -9.154357 -2.168246 0.368687 0
M  V30 64 H -9.001174 -1.107736 1.888587 0
M  V30 65 H -10.085471 -2.494266 1.857933 0
M  V30 66 H -7.300826 -3.314427 3.876424 0
M  V30 67 H -7.876543 -1.681178 3.444867 0
M  V30 68 H -5.242742 -2.872221 3.077674 0
M  V30 69 H -5.711348 -1.105992 3.247157 0
M  V30 70 H -3.865728 0.560882 -2.806461 0
M  V30 71 H -3.534164 1.412804 -4.641563 0
M  V30 72 H -2.542847 2.817670 -5.186868 0
M  V30 73 H -2.054605 1.182353 -5.717090 0
M  V30 74 H 4.324199 -2.926191 0.249201 0
M  V30 75 H 2.587433 -2.425818 -0.069484 0
M  V30 76 H 2.163863 -1.708284 -2.527729 0
M  V30 77 H 3.027999 -1.561478 -4.828382 0
M  V30 78 H 6.946603 -2.295046 -3.416105 0
M  V30 79 H 6.088743 -2.423923 -1.178910 0
M  V30 END ATOM
M  V30 BEGIN BOND
M  V30 1 1 1 2
M  V30 2 1 2 3
M  V30 3 1 3 4
M  V30 4 2 4 5
M  V30 5 1 5 6
M  V30 6 2 6 7
M  V30 7 1 7 8
M  V30 8 1 7 9
M  V30 9 1 9 10
M  V30 10 2 10 11
M  V30 11 1 11 12
M  V30 12 2 12 13
M  V30 13 1 13 14
M  V30 14 1 14 15
M  V30 15 2 15 16
M  V30 16 1 16 17
M  V30 17 2 17 18
M  V30 18 1 18 19
M  V30 19 2 19 20
M  V30 20 1 19 21
M  V30 21 1 21 22
M  V30 22 1 22 23
M  V30 23 1 23 24
M  V30 24 1 24 25
M  V30 25 1 25 26
M  V30 26 1 25 27
M  V30 27 1 27 28
M  V30 28 1 18 29
M  V30 29 2 29 30
M  V30 30 1 30 31
M  V30 31 1 31 32
M  V30 32 1 13 33
M  V30 33 2 33 34
M  V30 34 1 34 35
M  V30 35 1 35 36
M  V30 36 1 36 37
M  V30 37 2 37 38
M  V30 38 1 38 39
M  V30 39 2 39 40
M  V30 40 1 40 41
M  V30 41 1 40 42
M  V30 42 2 42 43
M  V30 43 1 35 3
M  V30 44 1 43 37
M  V30 45 1 9 4
M  V30 46 1 34 10
M  V30 47 1 30 15
M  V30 48 1 28 22
M  V30 49 1 1 44
M  V30 50 1 1 45
M  V30 51 1 1 46
M  V30 52 1 2 47
M  V30 53 1 2 48
M  V30 54 1 3 49 CFG=3
M  V30 55 1 8 50
M  V30 56 1 8 51
M  V30 57 1 8 52
M  V30 58 1 11 53
M  V30 59 1 14 54
M  V30 60 1 16 55
M  V30 61 1 17 56
M  V30 62 1 21 57
M  V30 63 1 22 58
M  V30 64 1 23 59
M  V30 65 1 23 60
M  V30 66 1 24 61
M  V30 67 1 24 62
M  V30 68 1 26 63
M  V30 69 1 26 64
M  V30 70 1 26 65
M  V30 71 1 27 66
M  V30 72 1 27 67
M  V30 73 1 28 68
M  V30 74 1 28 69
M  V30 75 1 29 70
M  V30 76 1 32 71
M  V30 77 1 32 72
M  V30 78 1 32 73
M  V30 79 1 36 74
M  V30 80 1 36 75
M  V30 81 1 38 76
M  V30 82 1 39 77
M  V30 83 1 42 78
M  V30 84 1 43 79
M  V30 END BOND
M  V30 END CTAB
M  END
>  <Dataset>  (909) 
ChEMBL_Kinases

>  <Ligand_Instance>  (909) 
nan

>  <PDB_ID>  (909) 
nan

>  <Standardized_SMILES>  (909) 
CC[C@@H]1c2nnc(C)n2-c2cnc(Nc3ccc(C(=O)NC4CCN(C)CC4)cc3OC)nc2N1Cc1ccc(F)cc1

>  <Name>  (909) 
nan

>  <Pocket>  (909) 
nan

>  <ATP_Site>  (909) 
nan

>  <Peripheral>  (909) 
nan

>  <Num_H_Atoms_ProtBoundConf>  (909) 
nan

>  <Num_Resolved_Atoms>  (909) 
nan

>  <Num_Not_Resolved_Atoms>  (909) 
nan

$$$$
CHEMBL4785806
     RDKit          3D

  0  0  0  0  0  0  0  0  0  0999 V3000
M  V30 BEGIN CTAB
M  V30 COUNTS 48 51 0 0 0
M  V30 BEGIN ATOM
M  V30 1 N 0.647684 -5.267338 4.073776 0
M  V30 2 C 0.745080 -4.218938 3.096144 0
M  V30 3 N 1.860405 -4.313812 2.348216 0
M  V30 4 C 2.081030 -3.394311 1.390134 0
M  V30 5 C 1.175801 -2.364617 1.174841 0
M  V30 6 C 1.352488 -1.326551 0.146568 0
M  V30 7 C 1.954759 -1.370817 -1.096171 0
M  V30 8 N 1.858970 -0.155781 -1.665289 0
M  V30 9 N 1.223395 0.674449 -0.850889 0
M  V30 10 C 1.029320 2.035707 -1.305674 0
M  V30 11 C 2.248442 2.542020 -2.047759 0
M  V30 12 C 2.106870 4.055570 -2.043243 0
M  V30 13 N 2.555704 4.496544 -0.732857 0
M  V30 14 C 1.868850 3.776589 0.294769 0
M  V30 15 C 0.694446 2.982089 -0.206452 0
M  V30 16 C 0.910610 -0.024436 0.252742 0
M  V30 17 C 0.036289 -2.278683 1.948789 0
M  V30 18 C -0.209095 -3.207719 2.933025 0
M  V30 19 O -1.269725 -3.315955 3.816844 0
M  V30 20 C -2.300064 -2.352761 3.740668 0
M  V30 21 C -3.002370 -2.341816 2.430442 0
M  V30 22 C -2.912307 -3.281860 1.408671 0
M  V30 23 C -3.623200 -3.164874 0.243411 0
M  V30 24 C -4.458771 -2.057659 0.099404 0
M  V30 25 C -4.517943 -1.148308 1.139545 0
M  V30 26 N -3.821698 -1.260752 2.283444 0
M  V30 27 H 0.582875 -6.241433 3.678284 0
M  V30 28 H 0.631571 -5.208491 5.120377 0
M  V30 29 H 2.961065 -3.425574 0.762520 0
M  V30 30 H 2.413259 -2.279045 -1.487137 0
M  V30 31 H 0.191168 2.071476 -2.055542 0
M  V30 32 H 2.366618 2.120664 -3.042945 0
M  V30 33 H 3.134987 2.276175 -1.400554 0
M  V30 34 H 1.032343 4.361855 -2.203091 0
M  V30 35 H 2.660504 4.527684 -2.861255 0
M  V30 36 H 3.571625 4.241682 -0.667449 0
M  V30 37 H 2.537117 3.158952 0.927630 0
M  V30 38 H 1.430709 4.549990 0.992323 0
M  V30 39 H 0.267945 2.430445 0.654738 0
M  V30 40 H -0.124366 3.698260 -0.501925 0
M  V30 41 H 0.391726 0.441351 1.051936 0
M  V30 42 H -0.701773 -1.523996 1.856942 0
M  V30 43 H -3.027316 -2.466448 4.588060 0
M  V30 44 H -1.881766 -1.315957 3.906466 0
M  V30 45 H -2.228487 -4.107493 1.628486 0
M  V30 46 H -3.502615 -3.940925 -0.514567 0
M  V30 47 H -5.021902 -1.951764 -0.807210 0
M  V30 48 H -5.176231 -0.300600 0.995540 0
M  V30 END ATOM
M  V30 BEGIN BOND
M  V30 1 1 1 2
M  V30 2 2 2 3
M  V30 3 1 3 4
M  V30 4 2 4 5
M  V30 5 1 5 6
M  V30 6 1 6 7
M  V30 7 2 7 8
M  V30 8 1 8 9
M  V30 9 1 9 10
M  V30 10 1 10 11
M  V30 11 1 11 12
M  V30 12 1 12 13
M  V30 13 1 13 14
M  V30 14 1 14 15
M  V30 15 1 9 16
M  V30 16 1 5 17
M  V30 17 2 17 18
M  V30 18 1 18 19
M  V30 19 1 19 20
M  V30 20 1 20 21
M  V30 21 2 21 22
M  V30 22 1 22 23
M  V30 23 2 23 24
M  V30 24 1 24 25
M  V30 25 2 25 26
M  V30 26 1 18 2
M  V30 27 1 26 21
M  V30 28 2 16 6
M  V30 29 1 15 10
M  V30 30 1 1 27
M  V30 31 1 1 28
M  V30 32 1 4 29
M  V30 33 1 7 30
M  V30 34 1 10 31
M  V30 35 1 11 32
M  V30 36 1 11 33
M  V30 37 1 12 34
M  V30 38 1 12 35
M  V30 39 1 13 36
M  V30 40 1 14 37
M  V30 41 1 14 38
M  V30 42 1 15 39
M  V30 43 1 15 40
M  V30 44 1 16 41
M  V30 45 1 17 42
M  V30 46 1 20 43
M  V30 47 1 20 44
M  V30 48 1 22 45
M  V30 49 1 23 46
M  V30 50 1 24 47
M  V30 51 1 25 48
M  V30 END BOND
M  V30 END CTAB
M  END
>  <Dataset>  (910) 
ChEMBL_Kinases

>  <Ligand_Instance>  (910) 
nan

>  <PDB_ID>  (910) 
nan

>  <Standardized_SMILES>  (910) 
Nc1ncc(-c2cnn(C3CCNCC3)c2)cc1OCc1ccccn1

>  <Name>  (910) 
nan

>  <Pocket>  (910) 
nan

>  <ATP_Site>  (910) 
nan

>  <Peripheral>  (910) 
nan

>  <Num_H_Atoms_ProtBoundConf>  (910) 
nan

>  <Num_Resolved_Atoms>  (910) 
nan

>  <Num_Not_Resolved_Atoms>  (910) 
nan

$$$$
CHEMBL4785831
     RDKit          3D

  0  0  0  0  0  0  0  0  0  0999 V3000
M  V30 BEGIN CTAB
M  V30 COUNTS 62 64 0 0 0
M  V30 BEGIN ATOM
M  V30 1 C 8.081239 -1.834695 3.504506 0
M  V30 2 C 8.024520 -0.522417 2.714653 0
M  V30 3 C 6.588730 -0.165588 2.447516 0
M  V30 4 C 5.841654 0.622276 3.329369 0
M  V30 5 C 4.523135 0.934623 3.063712 0
M  V30 6 C 3.994597 0.431696 1.895722 0
M  V30 7 C 4.676655 -0.348969 0.986625 0
M  V30 8 C 5.993255 -0.647420 1.274713 0
M  V30 9 N 3.829798 -0.705336 -0.124517 0
M  V30 10 C 2.576337 -0.099323 0.145402 0
M  V30 11 O 1.657742 -0.261930 -0.689075 0
M  V30 12 C 2.641395 0.611705 1.387853 0
M  V30 13 C 1.585883 1.278825 1.791243 0
M  V30 14 C 0.247169 1.424855 1.252387 0
M  V30 15 N -0.259309 2.648217 0.958308 0
M  V30 16 C -1.524284 2.562552 0.509909 0
M  V30 17 C -2.329260 3.765421 0.109235 0
M  V30 18 C -1.894385 1.246769 0.496988 0
M  V30 19 C -3.210054 0.839186 0.059658 0
M  V30 20 O -4.057340 1.699777 -0.291692 0
M  V30 21 N -3.743481 -0.466852 -0.047641 0
M  V30 22 C -5.087435 -0.621390 -0.510612 0
M  V30 23 C -5.475480 -2.089396 -0.558612 0
M  V30 24 N -4.613682 -2.790435 -1.437845 0
M  V30 25 C -4.708858 -2.495916 -2.824757 0
M  V30 26 C -5.977849 -2.920534 -3.499148 0
M  V30 27 C -4.383208 -4.155465 -1.151195 0
M  V30 28 C -3.595191 -4.443150 0.094846 0
M  V30 29 C -0.793610 0.571971 0.956701 0
M  V30 30 C -0.741995 -0.899089 1.157799 0
M  V30 31 H 9.101780 -1.984180 3.909371 0
M  V30 32 H 7.858324 -2.688952 2.845424 0
M  V30 33 H 7.395982 -1.788635 4.380949 0
M  V30 34 H 8.535836 0.237565 3.314611 0
M  V30 35 H 8.508407 -0.733395 1.740170 0
M  V30 36 H 6.309174 0.979334 4.214893 0
M  V30 37 H 3.939224 1.545092 3.743334 0
M  V30 38 H 6.609507 -1.258622 0.610046 0
M  V30 39 H 4.155232 -1.288812 -0.916006 0
M  V30 40 H 1.731058 1.846979 2.729177 0
M  V30 41 H 0.255718 3.561339 1.060805 0
M  V30 42 H -2.837975 3.605079 -0.867367 0
M  V30 43 H -3.042535 4.045354 0.909894 0
M  V30 44 H -1.664697 4.636017 -0.054442 0
M  V30 45 H -3.142778 -1.265579 0.211670 0
M  V30 46 H -5.759064 -0.189988 0.287569 0
M  V30 47 H -5.322771 -0.085231 -1.430824 0
M  V30 48 H -5.282461 -2.478943 0.469223 0
M  V30 49 H -6.539712 -2.224563 -0.736244 0
M  V30 50 H -4.438419 -1.430179 -3.063663 0
M  V30 51 H -3.883985 -3.081680 -3.320315 0
M  V30 52 H -6.483227 -3.675025 -2.884143 0
M  V30 53 H -6.676731 -2.089901 -3.683011 0
M  V30 54 H -5.776467 -3.379153 -4.508116 0
M  V30 55 H -5.320507 -4.766748 -1.072407 0
M  V30 56 H -3.833378 -4.603763 -2.013981 0
M  V30 57 H -3.791171 -5.489384 0.419068 0
M  V30 58 H -2.517282 -4.436416 -0.190100 0
M  V30 59 H -3.705121 -3.702497 0.894341 0
M  V30 60 H -1.499440 -1.219309 1.897442 0
M  V30 61 H 0.231525 -1.213315 1.602936 0
M  V30 62 H -0.781916 -1.374695 0.181350 0
M  V30 END ATOM
M  V30 BEGIN BOND
M  V30 1 1 1 2
M  V30 2 1 2 3
M  V30 3 2 3 4
M  V30 4 1 4 5
M  V30 5 2 5 6
M  V30 6 1 6 7
M  V30 7 2 7 8
M  V30 8 1 7 9
M  V30 9 1 9 10
M  V30 10 2 10 11
M  V30 11 1 10 12
M  V30 12 2 12 13
M  V30 13 1 13 14
M  V30 14 1 14 15
M  V30 15 1 15 16
M  V30 16 1 16 17
M  V30 17 2 16 18
M  V30 18 1 18 19
M  V30 19 2 19 20
M  V30 20 1 19 21
M  V30 21 1 21 22
M  V30 22 1 22 23
M  V30 23 1 23 24
M  V30 24 1 24 25
M  V30 25 1 25 26
M  V30 26 1 24 27
M  V30 27 1 27 28
M  V30 28 1 18 29
M  V30 29 1 29 30
M  V30 30 1 8 3
M  V30 31 2 29 14
M  V30 32 1 12 6
M  V30 33 1 1 31
M  V30 34 1 1 32
M  V30 35 1 1 33
M  V30 36 1 2 34
M  V30 37 1 2 35
M  V30 38 1 4 36
M  V30 39 1 5 37
M  V30 40 1 8 38
M  V30 41 1 9 39
M  V30 42 1 13 40
M  V30 43 1 15 41
M  V30 44 1 17 42
M  V30 45 1 17 43
M  V30 46 1 17 44
M  V30 47 1 21 45
M  V30 48 1 22 46
M  V30 49 1 22 47
M  V30 50 1 23 48
M  V30 51 1 23 49
M  V30 52 1 25 50
M  V30 53 1 25 51
M  V30 54 1 26 52
M  V30 55 1 26 53
M  V30 56 1 26 54
M  V30 57 1 27 55
M  V30 58 1 27 56
M  V30 59 1 28 57
M  V30 60 1 28 58
M  V30 61 1 28 59
M  V30 62 1 30 60
M  V30 63 1 30 61
M  V30 64 1 30 62
M  V30 END BOND
M  V30 END CTAB
M  END
>  <Dataset>  (911) 
ChEMBL_Kinases

>  <Ligand_Instance>  (911) 
nan

>  <PDB_ID>  (911) 
nan

>  <Standardized_SMILES>  (911) 
CCc1ccc2c(c1)NC(=O)/C2=C\c1[nH]c(C)c(C(=O)NCCN(CC)CC)c1C

>  <Name>  (911) 
nan

>  <Pocket>  (911) 
nan

>  <ATP_Site>  (911) 
nan

>  <Peripheral>  (911) 
nan

>  <Num_H_Atoms_ProtBoundConf>  (911) 
nan

>  <Num_Resolved_Atoms>  (911) 
nan

>  <Num_Not_Resolved_Atoms>  (911) 
nan

$$$$
CHEMBL4172170
     RDKit          3D

  0  0  0  0  0  0  0  0  0  0999 V3000
M  V30 BEGIN CTAB
M  V30 COUNTS 50 52 0 0 0
M  V30 BEGIN ATOM
M  V30 1 C 1.800976 1.488184 6.483428 0
M  V30 2 O 2.479172 0.500200 5.773371 0
M  V30 3 C 2.357301 -0.742597 6.381820 0
M  V30 4 C 3.129137 -1.763684 5.569787 0
M  V30 5 O 2.658399 -1.871531 4.248241 0
M  V30 6 C 2.690307 -0.704547 3.386437 0
M  V30 7 N 2.903616 0.367380 3.139835 0
M  V30 8 C 2.732597 1.073145 2.057034 0
M  V30 9 C 3.086757 2.512916 1.931341 0
M  V30 10 C 2.193037 0.408152 1.005761 0
M  V30 11 C 1.793729 0.706281 -0.389578 0
M  V30 12 C 1.889251 1.865038 -1.075755 0
M  V30 13 C 1.484421 2.087329 -2.372854 0
M  V30 14 N 0.941443 1.025928 -2.997961 0
M  V30 15 C 0.817964 -0.157471 -2.369652 0
M  V30 16 N 0.222950 -1.302907 -3.000470 0
M  V30 17 C -1.120737 -1.549568 -2.606060 0
M  V30 18 C -1.796052 -0.811560 -1.659233 0
M  V30 19 C -3.080198 -0.969499 -1.190066 0
M  V30 20 C -3.761757 -2.034537 -1.778026 0
M  V30 21 O -5.062247 -2.290084 -1.383228 0
M  V30 22 C -5.719404 -1.498842 -0.394962 0
M  V30 23 C -3.175860 -2.826144 -2.729399 0
M  V30 24 C -1.868748 -2.597316 -3.149013 0
M  V30 25 O -1.322780 -3.431481 -4.119621 0
M  V30 26 C -2.031859 -4.499289 -4.693942 0
M  V30 27 N 1.237088 -0.296764 -1.102000 0
M  V30 28 S 1.982477 -1.213595 1.708929 0
M  V30 29 H 2.211073 1.583095 7.525250 0
M  V30 30 H 0.739641 1.248589 6.607982 0
M  V30 31 H 1.918062 2.471687 6.003499 0
M  V30 32 H 2.731865 -0.656974 7.402445 0
M  V30 33 H 1.277941 -0.974305 6.415476 0
M  V30 34 H 3.032946 -2.751571 6.025798 0
M  V30 35 H 4.208300 -1.472133 5.516612 0
M  V30 36 H 3.885745 2.695549 1.185532 0
M  V30 37 H 3.479963 2.964541 2.869647 0
M  V30 38 H 2.138826 3.054532 1.746447 0
M  V30 39 H 2.328019 2.693757 -0.552333 0
M  V30 40 H 1.616417 3.064251 -2.811651 0
M  V30 41 H 0.639715 -1.960589 -3.694290 0
M  V30 42 H -1.239721 0.019221 -1.211967 0
M  V30 43 H -3.489474 -0.320109 -0.444420 0
M  V30 44 H -5.010203 -1.475531 0.485696 0
M  V30 45 H -5.783462 -0.440427 -0.718666 0
M  V30 46 H -6.677521 -1.939582 -0.094577 0
M  V30 47 H -3.758764 -3.641771 -3.152125 0
M  V30 48 H -2.203998 -5.304492 -3.953375 0
M  V30 49 H -3.036706 -4.115125 -5.016399 0
M  V30 50 H -1.568121 -4.857188 -5.639474 0
M  V30 END ATOM
M  V30 BEGIN BOND
M  V30 1 1 1 2
M  V30 2 1 2 3
M  V30 3 1 3 4
M  V30 4 1 4 5
M  V30 5 1 5 6
M  V30 6 2 6 7
M  V30 7 1 7 8
M  V30 8 1 8 9
M  V30 9 2 8 10
M  V30 10 1 10 11
M  V30 11 2 11 12
M  V30 12 1 12 13
M  V30 13 2 13 14
M  V30 14 1 14 15
M  V30 15 1 15 16
M  V30 16 1 16 17
M  V30 17 2 17 18
M  V30 18 1 18 19
M  V30 19 2 19 20
M  V30 20 1 20 21
M  V30 21 1 21 22
M  V30 22 1 20 23
M  V30 23 2 23 24
M  V30 24 1 24 25
M  V30 25 1 25 26
M  V30 26 2 15 27
M  V30 27 1 10 28
M  V30 28 1 28 6
M  V30 29 1 27 11
M  V30 30 1 24 17
M  V30 31 1 1 29
M  V30 32 1 1 30
M  V30 33 1 1 31
M  V30 34 1 3 32
M  V30 35 1 3 33
M  V30 36 1 4 34
M  V30 37 1 4 35
M  V30 38 1 9 36
M  V30 39 1 9 37
M  V30 40 1 9 38
M  V30 41 1 12 39
M  V30 42 1 13 40
M  V30 43 1 16 41
M  V30 44 1 18 42
M  V30 45 1 19 43
M  V30 46 1 22 44
M  V30 47 1 22 45
M  V30 48 1 22 46
M  V30 49 1 23 47
M  V30 50 1 26 48
M  V30 51 1 26 49
M  V30 52 1 26 50
M  V30 END BOND
M  V30 END CTAB
M  END
>  <Dataset>  (912) 
ChEMBL_Kinases

>  <Ligand_Instance>  (912) 
nan

>  <PDB_ID>  (912) 
nan

>  <Standardized_SMILES>  (912) 
COCCOc1nc(C)c(-c2ccnc(Nc3ccc(OC)cc3OC)n2)s1

>  <Name>  (912) 
nan

>  <Pocket>  (912) 
nan

>  <ATP_Site>  (912) 
nan

>  <Peripheral>  (912) 
nan

>  <Num_H_Atoms_ProtBoundConf>  (912) 
nan

>  <Num_Resolved_Atoms>  (912) 
nan

>  <Num_Not_Resolved_Atoms>  (912) 
nan

$$$$
CHEMBL4172165
     RDKit          3D

  0  0  0  0  0  0  0  0  0  0999 V3000
M  V30 BEGIN CTAB
M  V30 COUNTS 49 52 0 0 0
M  V30 BEGIN ATOM
M  V30 1 N 2.552646 -4.158274 2.025198 0
M  V30 2 C 3.206641 -3.970151 0.714688 0
M  V30 3 C 2.142017 -3.966954 -0.302556 0
M  V30 4 C 2.348408 -3.122825 -1.498570 0
M  V30 5 C 3.592842 -2.342657 -1.601844 0
M  V30 6 C 4.066382 -1.809649 -0.307493 0
M  V30 7 C 3.440513 -0.482481 0.056575 0
M  V30 8 O 4.114998 0.601666 0.061915 0
M  V30 9 N 2.096892 -0.327855 0.413670 0
M  V30 10 C 1.330624 0.803091 0.768188 0
M  V30 11 C 1.742852 2.118781 0.758416 0
M  V30 12 C 0.941042 3.170518 1.127632 0
M  V30 13 C -0.336313 2.925381 1.530342 0
M  V30 14 N -1.386091 3.684408 1.949921 0
M  V30 15 N -2.435518 2.921594 2.225629 0
M  V30 16 C -2.137728 1.610804 2.003417 0
M  V30 17 N -2.940497 0.449047 2.159674 0
M  V30 18 C -4.242087 0.326651 1.612768 0
M  V30 19 C -4.805198 1.329660 0.865641 0
M  V30 20 C -6.060154 1.253517 0.322387 0
M  V30 21 C -6.765155 0.102114 0.556612 0
M  V30 22 C -6.263313 -0.959653 1.304784 0
M  V30 23 C -4.978088 -0.822499 1.830976 0
M  V30 24 F -4.516695 -1.847048 2.547192 0
M  V30 25 C -0.821014 1.641975 1.568782 0
M  V30 26 C 0.034705 0.642528 1.185807 0
M  V30 27 C 4.044552 -2.759784 0.828973 0
M  V30 28 H 2.314920 -3.214543 2.441145 0
M  V30 29 H 1.601635 -4.610935 1.905988 0
M  V30 30 H 3.836113 -4.907289 0.620217 0
M  V30 31 H 1.981391 -5.042485 -0.618254 0
M  V30 32 H 1.143836 -3.721646 0.177504 0
M  V30 33 H 2.292319 -3.774008 -2.437305 0
M  V30 34 H 1.465860 -2.422734 -1.628614 0
M  V30 35 H 3.377472 -1.446558 -2.265933 0
M  V30 36 H 4.429766 -2.921636 -2.056859 0
M  V30 37 H 5.161397 -1.534000 -0.462322 0
M  V30 38 H 1.600912 -1.247064 0.408708 0
M  V30 39 H 2.742784 2.360646 0.447019 0
M  V30 40 H 1.292789 4.190523 1.105471 0
M  V30 41 H -1.348938 4.736186 2.037040 0
M  V30 42 H -2.535185 -0.348965 2.711895 0
M  V30 43 H -4.197625 2.201752 0.722077 0
M  V30 44 H -6.458024 2.079058 -0.262756 0
M  V30 45 H -7.759270 0.007785 0.143449 0
M  V30 46 H -6.825484 -1.865187 1.484499 0
M  V30 47 H -0.370125 -0.368097 1.226991 0
M  V30 48 H 3.791583 -2.149196 1.750023 0
M  V30 49 H 5.087509 -3.120962 1.086895 0
M  V30 END ATOM
M  V30 BEGIN BOND
M  V30 1 1 1 2
M  V30 2 1 2 3
M  V30 3 1 3 4
M  V30 4 1 4 5
M  V30 5 1 5 6
M  V30 6 1 6 7
M  V30 7 2 7 8
M  V30 8 1 7 9
M  V30 9 1 9 10
M  V30 10 2 10 11
M  V30 11 1 11 12
M  V30 12 2 12 13
M  V30 13 1 13 14
M  V30 14 1 14 15
M  V30 15 2 15 16
M  V30 16 1 16 17
M  V30 17 1 17 18
M  V30 18 2 18 19
M  V30 19 1 19 20
M  V30 20 2 20 21
M  V30 21 1 21 22
M  V30 22 2 22 23
M  V30 23 1 23 24
M  V30 24 1 16 25
M  V30 25 2 25 26
M  V30 26 1 6 27
M  V30 27 1 27 2
M  V30 28 1 26 10
M  V30 29 1 25 13
M  V30 30 1 23 18
M  V30 31 1 1 28
M  V30 32 1 1 29
M  V30 33 1 2 30
M  V30 34 1 3 31
M  V30 35 1 3 32
M  V30 36 1 4 33
M  V30 37 1 4 34
M  V30 38 1 5 35
M  V30 39 1 5 36
M  V30 40 1 6 37
M  V30 41 1 9 38
M  V30 42 1 11 39
M  V30 43 1 12 40
M  V30 44 1 14 41
M  V30 45 1 17 42
M  V30 46 1 19 43
M  V30 47 1 20 44
M  V30 48 1 21 45
M  V30 49 1 22 46
M  V30 50 1 26 47
M  V30 51 1 27 48
M  V30 52 1 27 49
M  V30 END BOND
M  V30 END CTAB
M  END
>  <Dataset>  (913) 
ChEMBL_Kinases

>  <Ligand_Instance>  (913) 
nan

>  <PDB_ID>  (913) 
nan

>  <Standardized_SMILES>  (913) 
NC1CCCC(C(=O)Nc2ccc3[nH]nc(Nc4ccccc4F)c3c2)C1

>  <Name>  (913) 
nan

>  <Pocket>  (913) 
nan

>  <ATP_Site>  (913) 
nan

>  <Peripheral>  (913) 
nan

>  <Num_H_Atoms_ProtBoundConf>  (913) 
nan

>  <Num_Resolved_Atoms>  (913) 
nan

>  <Num_Not_Resolved_Atoms>  (913) 
nan

$$$$
CHEMBL4172115
     RDKit          3D

  0  0  0  0  0  0  0  0  0  0999 V3000
M  V30 BEGIN CTAB
M  V30 COUNTS 39 41 0 0 0
M  V30 BEGIN ATOM
M  V30 1 N -0.371199 -3.727359 4.965322 0
M  V30 2 C -0.090671 -4.494110 3.788984 0
M  V30 3 N 0.183538 -5.805826 3.670843 0
M  V30 4 N 0.383626 -6.109302 2.384913 0
M  V30 5 C 0.235457 -4.973940 1.665833 0
M  V30 6 C 0.338624 -4.746734 0.298435 0
M  V30 7 C 0.149234 -3.493149 -0.258085 0
M  V30 8 C -0.150646 -2.456269 0.600933 0
M  V30 9 N -0.376227 -1.093510 0.177333 0
M  V30 10 C 0.830104 -0.363200 0.169282 0
M  V30 11 O 1.829951 -1.068883 0.534297 0
M  V30 12 C 0.967299 1.045591 -0.207503 0 CFG=1
M  V30 13 C 0.537555 1.356912 -1.616113 0
M  V30 14 C -0.418532 2.517402 -1.683715 0
M  V30 15 C 0.030996 3.741042 -0.958910 0
M  V30 16 C 0.764708 3.399871 0.306536 0 CFG=1
M  V30 17 N 0.596245 4.359938 1.354252 0
M  V30 18 C 0.277676 2.008825 0.731417 0
M  V30 19 C -0.263044 -2.638676 1.971115 0
M  V30 20 C -0.069624 -3.907132 2.517822 0
M  V30 21 H 0.253217 -3.165513 5.618234 0
M  V30 22 H -1.261246 -3.518317 5.490947 0
M  V30 23 H 0.610554 -7.079488 2.075290 0
M  V30 24 H 0.576356 -5.568842 -0.382507 0
M  V30 25 H 0.218904 -3.270886 -1.307883 0
M  V30 26 H -1.264591 -0.597497 -0.109857 0
M  V30 27 H 2.049575 1.310784 -0.155544 0
M  V30 28 H 1.386559 1.471887 -2.319667 0
M  V30 29 H -0.026180 0.466748 -1.979625 0
M  V30 30 H -1.455372 2.197888 -1.412371 0
M  V30 31 H -0.490978 2.810797 -2.770366 0
M  V30 32 H -0.897999 4.290182 -0.629982 0
M  V30 33 H 0.581175 4.460381 -1.596130 0
M  V30 34 H 1.850785 3.298162 0.040938 0
M  V30 35 H 1.486565 4.893936 1.466548 0
M  V30 36 H 0.420917 3.866976 2.245884 0
M  V30 37 H 0.478482 1.811186 1.791971 0
M  V30 38 H -0.822687 2.008387 0.580107 0
M  V30 39 H -0.492141 -1.879064 2.687136 0
M  V30 END ATOM
M  V30 BEGIN BOND
M  V30 1 1 1 2
M  V30 2 2 2 3
M  V30 3 1 3 4
M  V30 4 1 4 5
M  V30 5 2 5 6
M  V30 6 1 6 7
M  V30 7 2 7 8
M  V30 8 1 8 9
M  V30 9 1 9 10
M  V30 10 2 10 11
M  V30 11 1 10 12
M  V30 12 1 12 13
M  V30 13 1 13 14
M  V30 14 1 14 15
M  V30 15 1 15 16
M  V30 16 1 16 17
M  V30 17 1 16 18
M  V30 18 1 8 19
M  V30 19 2 19 20
M  V30 20 1 20 2
M  V30 21 1 20 5
M  V30 22 1 18 12
M  V30 23 1 1 21
M  V30 24 1 1 22
M  V30 25 1 4 23
M  V30 26 1 6 24
M  V30 27 1 7 25
M  V30 28 1 9 26
M  V30 29 1 12 27 CFG=3
M  V30 30 1 13 28
M  V30 31 1 13 29
M  V30 32 1 14 30
M  V30 33 1 14 31
M  V30 34 1 15 32
M  V30 35 1 15 33
M  V30 36 1 16 34 CFG=3
M  V30 37 1 17 35
M  V30 38 1 17 36
M  V30 39 1 18 37
M  V30 40 1 18 38
M  V30 41 1 19 39
M  V30 END BOND
M  V30 END CTAB
M  END
>  <Dataset>  (914) 
ChEMBL_Kinases

>  <Ligand_Instance>  (914) 
nan

>  <PDB_ID>  (914) 
nan

>  <Standardized_SMILES>  (914) 
Nc1n[nH]c2ccc(NC(=O)[C@H]3CCC[C@@H](N)C3)cc12

>  <Name>  (914) 
nan

>  <Pocket>  (914) 
nan

>  <ATP_Site>  (914) 
nan

>  <Peripheral>  (914) 
nan

>  <Num_H_Atoms_ProtBoundConf>  (914) 
nan

>  <Num_Resolved_Atoms>  (914) 
nan

>  <Num_Not_Resolved_Atoms>  (914) 
nan

$$$$
CHEMBL4785893
     RDKit          3D

  0  0  0  0  0  0  0  0  0  0999 V3000
M  V30 BEGIN CTAB
M  V30 COUNTS 65 69 0 0 0
M  V30 BEGIN ATOM
M  V30 1 C 3.419838 -2.565083 6.626461 0
M  V30 2 O 2.482355 -1.854632 5.875838 0
M  V30 3 C 2.888429 -1.149644 4.746077 0
M  V30 4 C 4.154046 -1.019148 4.199348 0
M  V30 5 C 4.329934 -0.264620 3.064653 0
M  V30 6 C 3.313692 0.391474 2.408957 0
M  V30 7 C 2.035125 0.260075 2.960522 0
M  V30 8 C 0.933902 0.940910 2.283539 0
M  V30 9 N 0.552467 2.177221 1.900401 0
M  V30 10 C -0.660849 2.088436 1.279859 0
M  V30 11 C -1.300734 3.302476 0.767327 0
M  V30 12 C -0.768571 4.573462 0.850082 0
M  V30 13 C -1.471223 5.638284 0.332808 0
M  V30 14 C -2.718094 5.468830 -0.279331 0
M  V30 15 C -3.289071 4.218965 -0.385572 0
M  V30 16 C -2.549966 3.155820 0.150766 0
M  V30 17 N -1.028370 0.778355 1.282746 0
M  V30 18 C -0.050309 0.051355 1.901617 0
M  V30 19 C -0.387631 -1.366378 1.929886 0
M  V30 20 C -1.289624 -1.870009 2.844594 0
M  V30 21 C -1.516511 -3.220287 2.719998 0
M  V30 22 N -0.908067 -3.994070 1.779279 0
M  V30 23 C -0.021606 -3.463238 0.890046 0
M  V30 24 N 0.346978 -4.622842 0.101411 0
M  V30 25 C -0.716624 -4.984324 -0.798171 0
M  V30 26 C -0.489735 -4.459437 -2.168901 0
M  V30 27 N -0.266889 -3.030921 -2.133797 0
M  V30 28 S -0.051193 -2.404553 -3.755947 0
M  V30 29 O 1.240259 -1.695614 -3.914976 0
M  V30 30 O -0.207671 -3.561395 -4.707336 0
M  V30 31 C -1.366279 -1.255356 -4.042636 0
M  V30 32 C -2.638257 -1.473584 -4.525121 0
M  V30 33 C -3.500194 -0.405575 -4.643461 0
M  V30 34 C -3.161675 0.877337 -4.304750 0
M  V30 35 C -1.901660 1.138374 -3.820377 0
M  V30 36 C -1.047814 0.065674 -3.705385 0
M  V30 37 C 0.227339 -2.126198 0.987527 0
M  V30 38 C 1.829426 -0.500961 4.113646 0
M  V30 39 H 3.016153 -2.659454 7.653835 0
M  V30 40 H 4.385161 -2.062166 6.614606 0
M  V30 41 H 3.498895 -3.611640 6.234500 0
M  V30 42 H 4.923927 -1.546410 4.737521 0
M  V30 43 H 5.327149 -0.180368 2.660483 0
M  V30 44 H 3.486978 0.979048 1.514245 0
M  V30 45 H 0.191121 4.626652 1.333396 0
M  V30 46 H -1.035769 6.622246 0.408973 0
M  V30 47 H -3.259790 6.327132 -0.685455 0
M  V30 48 H -4.246683 4.008568 -0.844050 0
M  V30 49 H -3.004272 2.177028 0.063737 0
M  V30 50 H -1.951344 0.616394 0.824322 0
M  V30 51 H -1.710667 -1.167977 3.539512 0
M  V30 52 H -2.244398 -3.579649 3.471027 0
M  V30 53 H 1.201050 -5.214141 0.067134 0
M  V30 54 H -0.769010 -6.119917 -0.905298 0
M  V30 55 H -1.737993 -4.710556 -0.401776 0
M  V30 56 H 0.444767 -4.948097 -2.553887 0
M  V30 57 H -1.291310 -4.737887 -2.889036 0
M  V30 58 H 0.718160 -2.891371 -1.717272 0
M  V30 59 H -2.805884 -2.507000 -4.759882 0
M  V30 60 H -4.490117 -0.654098 -5.029948 0
M  V30 61 H -3.859878 1.702523 -4.407734 0
M  V30 62 H -1.582748 2.131278 -3.538909 0
M  V30 63 H -0.051695 0.325949 -3.314642 0
M  V30 64 H 0.937094 -1.840257 0.261564 0
M  V30 65 H 0.784863 -0.532815 4.456196 0
M  V30 END ATOM
M  V30 BEGIN BOND
M  V30 1 1 1 2
M  V30 2 1 2 3
M  V30 3 2 3 4
M  V30 4 1 4 5
M  V30 5 2 5 6
M  V30 6 1 6 7
M  V30 7 1 7 8
M  V30 8 1 8 9
M  V30 9 2 9 10
M  V30 10 1 10 11
M  V30 11 2 11 12
M  V30 12 1 12 13
M  V30 13 2 13 14
M  V30 14 1 14 15
M  V30 15 2 15 16
M  V30 16 1 10 17
M  V30 17 1 17 18
M  V30 18 1 18 19
M  V30 19 2 19 20
M  V30 20 1 20 21
M  V30 21 2 21 22
M  V30 22 1 22 23
M  V30 23 1 23 24
M  V30 24 1 24 25
M  V30 25 1 25 26
M  V30 26 1 26 27
M  V30 27 1 27 28
M  V30 28 2 28 29
M  V30 29 2 28 30
M  V30 30 1 28 31
M  V30 31 2 31 32
M  V30 32 1 32 33
M  V30 33 2 33 34
M  V30 34 1 34 35
M  V30 35 2 35 36
M  V30 36 2 23 37
M  V30 37 2 7 38
M  V30 38 1 38 3
M  V30 39 2 18 8
M  V30 40 1 37 19
M  V30 41 1 16 11
M  V30 42 1 36 31
M  V30 43 1 1 39
M  V30 44 1 1 40
M  V30 45 1 1 41
M  V30 46 1 4 42
M  V30 47 1 5 43
M  V30 48 1 6 44
M  V30 49 1 12 45
M  V30 50 1 13 46
M  V30 51 1 14 47
M  V30 52 1 15 48
M  V30 53 1 16 49
M  V30 54 1 17 50
M  V30 55 1 20 51
M  V30 56 1 21 52
M  V30 57 1 24 53
M  V30 58 1 25 54
M  V30 59 1 25 55
M  V30 60 1 26 56
M  V30 61 1 26 57
M  V30 62 1 27 58
M  V30 63 1 32 59
M  V30 64 1 33 60
M  V30 65 1 34 61
M  V30 66 1 35 62
M  V30 67 1 36 63
M  V30 68 1 37 64
M  V30 69 1 38 65
M  V30 END BOND
M  V30 END CTAB
M  END
>  <Dataset>  (915) 
ChEMBL_Kinases

>  <Ligand_Instance>  (915) 
nan

>  <PDB_ID>  (915) 
nan

>  <Standardized_SMILES>  (915) 
COc1cccc(-c2nc(-c3ccccc3)[nH]c2-c2ccnc(NCCNS(=O)(=O)c3ccccc3)c2)c1

>  <Name>  (915) 
nan

>  <Pocket>  (915) 
nan

>  <ATP_Site>  (915) 
nan

>  <Peripheral>  (915) 
nan

>  <Num_H_Atoms_ProtBoundConf>  (915) 
nan

>  <Num_Resolved_Atoms>  (915) 
nan

>  <Num_Not_Resolved_Atoms>  (915) 
nan

$$$$
CHEMBL4172486
     RDKit          3D

  0  0  0  0  0  0  0  0  0  0999 V3000
M  V30 BEGIN CTAB
M  V30 COUNTS 50 54 0 0 0
M  V30 BEGIN ATOM
M  V30 1 N -0.873479 -2.030272 0.850522 0
M  V30 2 C -0.734479 -3.008028 0.244731 0
M  V30 3 C -0.587799 -4.206399 -0.486503 0
M  V30 4 C 0.405572 -4.234083 -1.419717 0
M  V30 5 O 1.313090 -3.262857 -1.775251 0
M  V30 6 C 1.420006 -1.996055 -1.240777 0
M  V30 7 C 2.242196 -1.734113 -0.138381 0
M  V30 8 C 2.312828 -0.447499 0.356613 0
M  V30 9 C 1.573147 0.584890 -0.233529 0
M  V30 10 C 1.595145 1.972822 0.234158 0
M  V30 11 N 2.312988 2.433902 1.272781 0
M  V30 12 C 2.117781 3.759607 1.451499 0
M  V30 13 C 2.589621 4.714718 2.341351 0
M  V30 14 C 2.158130 6.039418 2.225972 0
M  V30 15 C 2.630477 7.072024 3.141463 0
M  V30 16 N 3.546524 6.705988 4.165620 0
M  V30 17 O 2.212249 8.252273 2.995275 0
M  V30 18 C 1.268573 6.323939 1.210831 0
M  V30 19 C 0.786170 5.392110 0.315256 0
M  V30 20 C 1.225890 4.090429 0.448184 0
M  V30 21 N 0.899578 3.020474 -0.297335 0
M  V30 22 C 0.766243 0.272741 -1.332862 0
M  V30 23 C 0.662288 -0.997581 -1.864081 0
M  V30 24 N 0.587406 -5.360797 -2.149917 0
M  V30 25 C -0.225567 -6.431423 -1.931383 0
M  V30 26 S -0.041293 -7.955534 -2.861840 0
M  V30 27 N -1.216088 -6.409690 -1.003762 0
M  V30 28 C -1.412977 -5.285724 -0.260985 0
M  V30 29 C -2.463176 -5.207836 0.748385 0
M  V30 30 C -2.401815 -4.722442 2.020822 0
M  V30 31 C -3.555679 -4.753112 2.810201 0
M  V30 32 C -4.744949 -5.265855 2.316598 0
M  V30 33 Cl -6.126896 -5.253639 3.395159 0
M  V30 34 C -4.806824 -5.756332 1.030758 0
M  V30 35 C -3.654292 -5.722321 0.251410 0
M  V30 36 H 2.814588 -2.515216 0.324091 0
M  V30 37 H 2.915650 -0.152567 1.197511 0
M  V30 38 H 3.287926 4.422520 3.116310 0
M  V30 39 H 3.063695 6.209797 4.959296 0
M  V30 40 H 4.495852 7.047546 3.831988 0
M  V30 41 H 0.925660 7.326799 1.103324 0
M  V30 42 H 0.086618 5.702612 -0.455335 0
M  V30 43 H 0.269158 2.942272 -1.105632 0
M  V30 44 H 0.169364 1.037984 -1.830518 0
M  V30 45 H 0.035186 -1.218904 -2.711788 0
M  V30 46 H -0.493425 -9.049130 -2.135039 0
M  V30 47 H -1.442106 -4.351583 2.304055 0
M  V30 48 H -3.415404 -4.350167 3.799024 0
M  V30 49 H -5.760816 -6.149574 0.683941 0
M  V30 50 H -3.831015 -6.137570 -0.743228 0
M  V30 END ATOM
M  V30 BEGIN BOND
M  V30 1 3 1 2
M  V30 2 1 2 3
M  V30 3 2 3 4
M  V30 4 1 4 5
M  V30 5 1 5 6
M  V30 6 2 6 7
M  V30 7 1 7 8
M  V30 8 2 8 9
M  V30 9 1 9 10
M  V30 10 2 10 11
M  V30 11 1 11 12
M  V30 12 2 12 13
M  V30 13 1 13 14
M  V30 14 1 14 15
M  V30 15 1 15 16
M  V30 16 2 15 17
M  V30 17 2 14 18
M  V30 18 1 18 19
M  V30 19 2 19 20
M  V30 20 1 20 21
M  V30 21 1 9 22
M  V30 22 2 22 23
M  V30 23 1 4 24
M  V30 24 2 24 25
M  V30 25 1 25 26
M  V30 26 1 25 27
M  V30 27 2 27 28
M  V30 28 1 28 29
M  V30 29 2 29 30
M  V30 30 1 30 31
M  V30 31 2 31 32
M  V30 32 1 32 33
M  V30 33 1 32 34
M  V30 34 2 34 35
M  V30 35 1 28 3
M  V30 36 1 35 29
M  V30 37 1 23 6
M  V30 38 1 21 10
M  V30 39 1 20 12
M  V30 40 1 7 36
M  V30 41 1 8 37
M  V30 42 1 13 38
M  V30 43 1 16 39
M  V30 44 1 16 40
M  V30 45 1 18 41
M  V30 46 1 19 42
M  V30 47 1 21 43
M  V30 48 1 22 44
M  V30 49 1 23 45
M  V30 50 1 26 46
M  V30 51 1 30 47
M  V30 52 1 31 48
M  V30 53 1 34 49
M  V30 54 1 35 50
M  V30 END BOND
M  V30 END CTAB
M  END
>  <Dataset>  (916) 
ChEMBL_Kinases

>  <Ligand_Instance>  (916) 
nan

>  <PDB_ID>  (916) 
nan

>  <Standardized_SMILES>  (916) 
N#Cc1c(Oc2ccc(-c3nc4cc(C(N)=O)ccc4[nH]3)cc2)nc(S)nc1-c1ccc(Cl)cc1

>  <Name>  (916) 
nan

>  <Pocket>  (916) 
nan

>  <ATP_Site>  (916) 
nan

>  <Peripheral>  (916) 
nan

>  <Num_H_Atoms_ProtBoundConf>  (916) 
nan

>  <Num_Resolved_Atoms>  (916) 
nan

>  <Num_Not_Resolved_Atoms>  (916) 
nan

$$$$
CHEMBL1940904
     RDKit          3D

  0  0  0  0  0  0  0  0  0  0999 V3000
M  V30 BEGIN CTAB
M  V30 COUNTS 60 64 0 0 0
M  V30 BEGIN ATOM
M  V30 1 N -0.323873 -2.795779 4.592058 0
M  V30 2 C -0.142401 -2.247895 3.310730 0
M  V30 3 C 0.992902 -1.485887 3.156616 0
M  V30 4 F 1.872032 -1.269825 4.140745 0
M  V30 5 C 1.266132 -0.903275 1.944943 0
M  V30 6 N 2.415006 -0.101421 1.709310 0
M  V30 7 C 3.413971 0.173901 2.719819 0
M  V30 8 C 4.496111 1.097733 2.198014 0
M  V30 9 N 3.942952 2.381854 1.787136 0
M  V30 10 C 2.947774 2.833299 0.900603 0
M  V30 11 C 3.011157 3.082759 -0.467252 0
M  V30 12 C 1.871840 3.540875 -1.124931 0
M  V30 13 C 0.695678 3.746305 -0.438705 0
M  V30 14 C 0.669764 3.486240 0.923702 0
M  V30 15 N 1.777026 3.040071 1.569507 0
M  V30 16 C 0.390464 -1.080159 0.852012 0
M  V30 17 C -0.780469 -1.859306 0.975041 0
M  V30 18 C -1.005367 -2.426460 2.242223 0
M  V30 19 C -2.081657 -3.204499 2.576854 0
M  V30 20 O -2.278845 -3.708562 3.713642 0
M  V30 21 C -3.012548 -3.437402 1.554879 0
M  V30 22 C -4.192617 -4.251783 1.833003 0
M  V30 23 O -5.131458 -4.560320 1.023736 0
M  V30 24 O -4.389022 -4.782510 3.078633 0
M  V30 25 C -2.750152 -2.867505 0.330257 0
M  V30 26 N -1.689576 -2.093434 -0.027868 0
M  V30 27 C -1.655270 -1.726666 -1.397218 0
M  V30 28 C -0.567506 -2.647014 -2.054396 0
M  V30 29 C -0.984619 -2.812441 -3.464701 0
M  V30 30 C -2.326640 -2.159946 -3.593067 0
M  V30 31 C -2.822928 -2.278921 -2.160447 0
M  V30 32 C -1.252293 -0.376466 -1.806131 0
M  V30 33 C -0.231099 0.376589 -1.054085 0
M  V30 34 O 0.740129 -0.432312 -0.362531 0
M  V30 35 H -0.941605 -2.240612 5.253142 0
M  V30 36 H 0.114518 -3.695719 4.895697 0
M  V30 37 H 2.584386 0.331325 0.768381 0
M  V30 38 H 2.941857 0.688161 3.603495 0
M  V30 39 H 3.910000 -0.780549 2.996822 0
M  V30 40 H 5.027632 0.569559 1.396432 0
M  V30 41 H 5.207868 1.281584 3.025597 0
M  V30 42 H 4.321130 3.279173 2.209272 0
M  V30 43 H 3.983549 2.880926 -0.879749 0
M  V30 44 H 1.991344 3.714107 -2.188722 0
M  V30 45 H -0.187712 4.108623 -0.966313 0
M  V30 46 H -0.278659 3.661285 1.435982 0
M  V30 47 H -5.293119 -5.070981 3.427030 0
M  V30 48 H -3.549014 -3.103697 -0.359633 0
M  V30 49 H -0.505482 -3.585345 -1.466894 0
M  V30 50 H 0.419018 -2.155843 -2.019195 0
M  V30 51 H -1.167742 -3.915219 -3.617166 0
M  V30 52 H -0.246787 -2.434295 -4.204816 0
M  V30 53 H -3.003124 -2.764169 -4.273146 0
M  V30 54 H -2.216422 -1.145405 -3.961774 0
M  V30 55 H -3.783940 -1.825200 -1.968138 0
M  V30 56 H -2.824437 -3.420712 -2.044800 0
M  V30 57 H -2.152581 0.273754 -1.916180 0
M  V30 58 H -0.849175 -0.390566 -2.883678 0
M  V30 59 H 0.325646 1.044880 -1.779660 0
M  V30 60 H -0.755076 1.100138 -0.399248 0
M  V30 END ATOM
M  V30 BEGIN BOND
M  V30 1 1 1 2
M  V30 2 2 2 3
M  V30 3 1 3 4
M  V30 4 1 3 5
M  V30 5 1 5 6
M  V30 6 1 6 7
M  V30 7 1 7 8
M  V30 8 1 8 9
M  V30 9 1 9 10
M  V30 10 2 10 11
M  V30 11 1 11 12
M  V30 12 2 12 13
M  V30 13 1 13 14
M  V30 14 2 14 15
M  V30 15 2 5 16
M  V30 16 1 16 17
M  V30 17 2 17 18
M  V30 18 1 18 19
M  V30 19 2 19 20
M  V30 20 1 19 21
M  V30 21 1 21 22
M  V30 22 2 22 23
M  V30 23 1 22 24
M  V30 24 2 21 25
M  V30 25 1 25 26
M  V30 26 1 26 27
M  V30 27 1 27 28
M  V30 28 1 28 29
M  V30 29 1 29 30
M  V30 30 1 30 31
M  V30 31 1 27 32
M  V30 32 1 32 33
M  V30 33 1 33 34
M  V30 34 1 18 2
M  V30 35 1 31 27
M  V30 36 1 15 10
M  V30 37 1 34 16
M  V30 38 1 26 17
M  V30 39 1 1 35
M  V30 40 1 1 36
M  V30 41 1 6 37
M  V30 42 1 7 38
M  V30 43 1 7 39
M  V30 44 1 8 40
M  V30 45 1 8 41
M  V30 46 1 9 42
M  V30 47 1 11 43
M  V30 48 1 12 44
M  V30 49 1 13 45
M  V30 50 1 14 46
M  V30 51 1 24 47
M  V30 52 1 25 48
M  V30 53 1 28 49
M  V30 54 1 28 50
M  V30 55 1 29 51
M  V30 56 1 29 52
M  V30 57 1 30 53
M  V30 58 1 30 54
M  V30 59 1 31 55
M  V30 60 1 31 56
M  V30 61 1 32 57
M  V30 62 1 32 58
M  V30 63 1 33 59
M  V30 64 1 33 60
M  V30 END BOND
M  V30 END CTAB
M  END
>  <Dataset>  (917) 
ChEMBL_Kinases

>  <Ligand_Instance>  (917) 
nan

>  <PDB_ID>  (917) 
nan

>  <Standardized_SMILES>  (917) 
Nc1c(F)c(NCCNc2ccccn2)c2c3c1c(=O)c(C(=O)O)cn3C1(CCCC1)CCO2

>  <Name>  (917) 
nan

>  <Pocket>  (917) 
nan

>  <ATP_Site>  (917) 
nan

>  <Peripheral>  (917) 
nan

>  <Num_H_Atoms_ProtBoundConf>  (917) 
nan

>  <Num_Resolved_Atoms>  (917) 
nan

>  <Num_Not_Resolved_Atoms>  (917) 
nan

$$$$
CHEMBL1940661
     RDKit          3D

  0  0  0  0  0  0  0  0  0  0999 V3000
M  V30 BEGIN CTAB
M  V30 COUNTS 69 74 0 0 0
M  V30 BEGIN ATOM
M  V30 1 N 8.461472 -0.923834 4.856757 0
M  V30 2 C 7.663089 -0.843134 4.020827 0
M  V30 3 C 6.653275 -0.738414 2.990644 0
M  V30 4 C 5.883297 -1.825007 2.582801 0
M  V30 5 C 4.935855 -1.600633 1.576785 0
M  V30 6 C 4.791478 -0.343424 1.028727 0
M  V30 7 C 3.793623 -0.134173 -0.022658 0
M  V30 8 C 3.565496 1.100685 -0.642328 0
M  V30 9 C 2.545569 0.802225 -1.553332 0
M  V30 10 C 2.232282 -0.556007 -1.428385 0
M  V30 11 C 1.175224 -0.983237 -2.334518 0
M  V30 12 O 1.787809 -1.528186 -3.288462 0
M  V30 13 N -0.262998 -0.865451 -2.263590 0
M  V30 14 C -0.972785 -1.404768 -3.404117 0
M  V30 15 C -1.344010 -2.815149 -3.293991 0
M  V30 16 C -0.610505 -3.814588 -3.923720 0
M  V30 17 C -0.873377 -5.163039 -3.856111 0
M  V30 18 C -1.962057 -5.552123 -3.095163 0
M  V30 19 C -2.702085 -4.574668 -2.463652 0
M  V30 20 C -2.421039 -3.213370 -2.543763 0
M  V30 21 C -3.369061 -2.400588 -1.810961 0
M  V30 22 C -3.546522 -2.773282 -0.468953 0
M  V30 23 C -4.401503 -2.171626 0.430926 0
M  V30 24 C -5.145055 -1.114988 -0.025155 0
M  V30 25 N -4.994129 -0.738222 -1.306050 0
M  V30 26 C -4.158250 -1.332242 -2.173990 0
M  V30 27 C -0.557211 -0.220598 -1.054315 0
M  V30 28 C -0.717607 -1.038678 0.054199 0
M  V30 29 C -1.012352 -0.561336 1.313722 0
M  V30 30 C -1.153715 0.798973 1.474680 0
M  V30 31 N -1.459807 1.376593 2.735778 0
M  V30 32 C -1.694574 0.668003 3.976880 0
M  V30 33 C -2.995648 1.263065 4.533217 0
M  V30 34 N -2.635078 2.552345 5.082764 0
M  V30 35 C -1.560049 3.178382 4.338850 0
M  V30 36 C -1.568997 2.814051 2.890584 0
M  V30 37 C -0.999789 1.634284 0.391605 0
M  V30 38 C -0.705196 1.137641 -0.860138 0
M  V30 39 O 3.009136 -1.072301 -0.496924 0
M  V30 40 C 5.583382 0.694170 1.474037 0
M  V30 41 N 6.505309 0.489359 2.448545 0
M  V30 42 H 6.080395 -2.753086 3.076838 0
M  V30 43 H 4.345524 -2.451308 1.270504 0
M  V30 44 H 4.101647 2.010187 -0.403529 0
M  V30 45 H 2.199264 1.639450 -2.162399 0
M  V30 46 H -1.833183 -0.766320 -3.693418 0
M  V30 47 H -0.300361 -1.338580 -4.314400 0
M  V30 48 H 0.239449 -3.460025 -4.513981 0
M  V30 49 H -0.209759 -5.837750 -4.404346 0
M  V30 50 H -2.161995 -6.600955 -3.045581 0
M  V30 51 H -3.531429 -4.998999 -1.895634 0
M  V30 52 H -2.978105 -3.616261 -0.040139 0
M  V30 53 H -4.486194 -2.512117 1.450984 0
M  V30 54 H -5.842658 -0.578502 0.603176 0
M  V30 55 H -4.061483 -1.028293 -3.196702 0
M  V30 56 H -0.611256 -2.131138 -0.040101 0
M  V30 57 H -1.123613 -1.247575 2.128409 0
M  V30 58 H -0.894225 0.962796 4.682368 0
M  V30 59 H -1.784083 -0.424277 3.860086 0
M  V30 60 H -3.386626 0.550083 5.257283 0
M  V30 61 H -3.741641 1.436040 3.732840 0
M  V30 62 H -3.478845 3.140038 5.150300 0
M  V30 63 H -0.598963 2.975502 4.826343 0
M  V30 64 H -1.752882 4.290123 4.393582 0
M  V30 65 H -2.464371 3.246666 2.396179 0
M  V30 66 H -0.684090 3.314300 2.432015 0
M  V30 67 H -1.114437 2.701131 0.535812 0
M  V30 68 H -0.575833 1.758979 -1.734887 0
M  V30 69 H 5.495698 1.707404 1.060672 0
M  V30 END ATOM
M  V30 BEGIN BOND
M  V30 1 3 1 2
M  V30 2 1 2 3
M  V30 3 2 3 4
M  V30 4 1 4 5
M  V30 5 2 5 6
M  V30 6 1 6 7
M  V30 7 2 7 8
M  V30 8 1 8 9
M  V30 9 2 9 10
M  V30 10 1 10 11
M  V30 11 2 11 12
M  V30 12 1 11 13
M  V30 13 1 13 14
M  V30 14 1 14 15
M  V30 15 2 15 16
M  V30 16 1 16 17
M  V30 17 2 17 18
M  V30 18 1 18 19
M  V30 19 2 19 20
M  V30 20 1 20 21
M  V30 21 2 21 22
M  V30 22 1 22 23
M  V30 23 2 23 24
M  V30 24 1 24 25
M  V30 25 2 25 26
M  V30 26 1 13 27
M  V30 27 2 27 28
M  V30 28 1 28 29
M  V30 29 2 29 30
M  V30 30 1 30 31
M  V30 31 1 31 32
M  V30 32 1 32 33
M  V30 33 1 33 34
M  V30 34 1 34 35
M  V30 35 1 35 36
M  V30 36 1 30 37
M  V30 37 2 37 38
M  V30 38 1 10 39
M  V30 39 1 6 40
M  V30 40 2 40 41
M  V30 41 1 41 3
M  V30 42 1 39 7
M  V30 43 1 20 15
M  V30 44 1 26 21
M  V30 45 1 38 27
M  V30 46 1 36 31
M  V30 47 1 4 42
M  V30 48 1 5 43
M  V30 49 1 8 44
M  V30 50 1 9 45
M  V30 51 1 14 46
M  V30 52 1 14 47
M  V30 53 1 16 48
M  V30 54 1 17 49
M  V30 55 1 18 50
M  V30 56 1 19 51
M  V30 57 1 22 52
M  V30 58 1 23 53
M  V30 59 1 24 54
M  V30 60 1 26 55
M  V30 61 1 28 56
M  V30 62 1 29 57
M  V30 63 1 32 58
M  V30 64 1 32 59
M  V30 65 1 33 60
M  V30 66 1 33 61
M  V30 67 1 34 62
M  V30 68 1 35 63
M  V30 69 1 35 64
M  V30 70 1 36 65
M  V30 71 1 36 66
M  V30 72 1 37 67
M  V30 73 1 38 68
M  V30 74 1 40 69
M  V30 END BOND
M  V30 END CTAB
M  END
>  <Dataset>  (918) 
ChEMBL_Kinases

>  <Ligand_Instance>  (918) 
nan

>  <PDB_ID>  (918) 
nan

>  <Standardized_SMILES>  (918) 
N#Cc1ccc(-c2ccc(C(=O)N(Cc3ccccc3-c3cccnc3)c3ccc(N4CCNCC4)cc3)o2)cn1

>  <Name>  (918) 
nan

>  <Pocket>  (918) 
nan

>  <ATP_Site>  (918) 
nan

>  <Peripheral>  (918) 
nan

>  <Num_H_Atoms_ProtBoundConf>  (918) 
nan

>  <Num_Resolved_Atoms>  (918) 
nan

>  <Num_Not_Resolved_Atoms>  (918) 
nan

$$$$
CHEMBL1940660
     RDKit          3D

  0  0  0  0  0  0  0  0  0  0999 V3000
M  V30 BEGIN CTAB
M  V30 COUNTS 70 75 0 0 0
M  V30 BEGIN ATOM
M  V30 1 N 9.427535 -1.937661 2.102809 0
M  V30 2 C 8.329513 -1.502614 2.113534 0
M  V30 3 C 6.997215 -0.970878 2.139412 0
M  V30 4 C 6.823840 0.253534 1.527715 0
M  V30 5 C 5.537573 0.755867 1.557248 0
M  V30 6 C 4.515407 0.023340 2.183398 0
M  V30 7 C 3.157031 0.598298 2.192434 0
M  V30 8 C 2.785067 1.817491 1.641508 0
M  V30 9 C 1.433892 2.015513 1.845235 0
M  V30 10 C 1.025180 0.884867 2.526888 0
M  V30 11 C -0.258109 0.441097 3.048655 0
M  V30 12 O -0.281530 0.549767 4.326560 0
M  V30 13 N -1.384490 -0.061670 2.294075 0
M  V30 14 C -2.550365 -0.427947 3.107143 0
M  V30 15 C -2.536695 -1.839805 3.527499 0
M  V30 16 C -2.114431 -2.176681 4.794959 0
M  V30 17 C -2.064378 -3.493756 5.194378 0
M  V30 18 C -2.434669 -4.513402 4.340977 0
M  V30 19 C -2.861012 -4.174620 3.065029 0
M  V30 20 C -2.911456 -2.838982 2.661869 0
M  V30 21 C -3.419230 -2.713467 1.313024 0
M  V30 22 C -4.490318 -1.975196 0.878132 0
M  V30 23 C -4.904693 -1.885393 -0.429364 0
M  V30 24 C -4.211928 -2.577441 -1.392339 0
M  V30 25 C -3.135924 -3.334770 -1.057078 0
M  V30 26 C -2.766759 -3.386306 0.276684 0
M  V30 27 C -1.104515 -0.071753 0.904509 0
M  V30 28 C -0.409596 -0.974226 0.167620 0
M  V30 29 C -0.234029 -0.882323 -1.196303 0
M  V30 30 C -0.788865 0.177510 -1.864850 0
M  V30 31 N -0.598293 0.297635 -3.281962 0
M  V30 32 C -1.806073 0.454741 -4.087120 0
M  V30 33 C -1.727862 1.537729 -5.106371 0
M  V30 34 N -0.426008 1.809524 -5.637550 0
M  V30 35 C 0.660128 1.705030 -4.695584 0
M  V30 36 C 0.631100 0.304091 -4.059544 0
M  V30 37 C -1.505900 1.116767 -1.136189 0
M  V30 38 C -1.671467 1.007924 0.238077 0
M  V30 39 O 2.049152 0.091215 2.708543 0
M  V30 40 C 4.739789 -1.195486 2.781014 0
M  V30 41 N 6.015197 -1.659781 2.733890 0
M  V30 42 H 7.581581 0.844795 1.037969 0
M  V30 43 H 5.306305 1.729829 1.094171 0
M  V30 44 H 3.407383 2.530927 1.128705 0
M  V30 45 H 0.746574 2.805684 1.591151 0
M  V30 46 H -3.442409 -0.217836 2.501435 0
M  V30 47 H -2.617762 0.263920 3.988324 0
M  V30 48 H -1.815473 -1.428282 5.505576 0
M  V30 49 H -1.728348 -3.771616 6.203318 0
M  V30 50 H -2.377447 -5.525523 4.701020 0
M  V30 51 H -3.127234 -5.045269 2.471966 0
M  V30 52 H -5.103231 -1.422736 1.554622 0
M  V30 53 H -5.745988 -1.296572 -0.756626 0
M  V30 54 H -4.540714 -2.503515 -2.440055 0
M  V30 55 H -2.618031 -3.862187 -1.844980 0
M  V30 56 H -1.902826 -4.001696 0.514563 0
M  V30 57 H 0.008010 -1.794479 0.738738 0
M  V30 58 H 0.324909 -1.628346 -1.720817 0
M  V30 59 H -2.703243 0.635999 -3.470935 0
M  V30 60 H -1.966131 -0.550866 -4.589632 0
M  V30 61 H -2.348592 1.174963 -5.985187 0
M  V30 62 H -2.261025 2.455597 -4.738392 0
M  V30 63 H -0.449398 2.823267 -5.964102 0
M  V30 64 H 1.607317 1.799526 -5.232486 0
M  V30 65 H 0.604916 2.455013 -3.879749 0
M  V30 66 H 0.546791 -0.467411 -4.832471 0
M  V30 67 H 1.538909 0.184340 -3.428914 0
M  V30 68 H -1.906563 1.921517 -1.754574 0
M  V30 69 H -2.244239 1.791140 0.709163 0
M  V30 70 H 3.978708 -1.782287 3.268138 0
M  V30 END ATOM
M  V30 BEGIN BOND
M  V30 1 3 1 2
M  V30 2 1 2 3
M  V30 3 2 3 4
M  V30 4 1 4 5
M  V30 5 2 5 6
M  V30 6 1 6 7
M  V30 7 2 7 8
M  V30 8 1 8 9
M  V30 9 2 9 10
M  V30 10 1 10 11
M  V30 11 2 11 12
M  V30 12 1 11 13
M  V30 13 1 13 14
M  V30 14 1 14 15
M  V30 15 2 15 16
M  V30 16 1 16 17
M  V30 17 2 17 18
M  V30 18 1 18 19
M  V30 19 2 19 20
M  V30 20 1 20 21
M  V30 21 2 21 22
M  V30 22 1 22 23
M  V30 23 2 23 24
M  V30 24 1 24 25
M  V30 25 2 25 26
M  V30 26 1 13 27
M  V30 27 2 27 28
M  V30 28 1 28 29
M  V30 29 2 29 30
M  V30 30 1 30 31
M  V30 31 1 31 32
M  V30 32 1 32 33
M  V30 33 1 33 34
M  V30 34 1 34 35
M  V30 35 1 35 36
M  V30 36 1 30 37
M  V30 37 2 37 38
M  V30 38 1 10 39
M  V30 39 1 6 40
M  V30 40 2 40 41
M  V30 41 1 41 3
M  V30 42 1 39 7
M  V30 43 1 20 15
M  V30 44 1 26 21
M  V30 45 1 38 27
M  V30 46 1 36 31
M  V30 47 1 4 42
M  V30 48 1 5 43
M  V30 49 1 8 44
M  V30 50 1 9 45
M  V30 51 1 14 46
M  V30 52 1 14 47
M  V30 53 1 16 48
M  V30 54 1 17 49
M  V30 55 1 18 50
M  V30 56 1 19 51
M  V30 57 1 22 52
M  V30 58 1 23 53
M  V30 59 1 24 54
M  V30 60 1 25 55
M  V30 61 1 26 56
M  V30 62 1 28 57
M  V30 63 1 29 58
M  V30 64 1 32 59
M  V30 65 1 32 60
M  V30 66 1 33 61
M  V30 67 1 33 62
M  V30 68 1 34 63
M  V30 69 1 35 64
M  V30 70 1 35 65
M  V30 71 1 36 66
M  V30 72 1 36 67
M  V30 73 1 37 68
M  V30 74 1 38 69
M  V30 75 1 40 70
M  V30 END BOND
M  V30 END CTAB
M  END
>  <Dataset>  (919) 
ChEMBL_Kinases

>  <Ligand_Instance>  (919) 
nan

>  <PDB_ID>  (919) 
nan

>  <Standardized_SMILES>  (919) 
N#Cc1ccc(-c2ccc(C(=O)N(Cc3ccccc3-c3ccccc3)c3ccc(N4CCNCC4)cc3)o2)cn1

>  <Name>  (919) 
nan

>  <Pocket>  (919) 
nan

>  <ATP_Site>  (919) 
nan

>  <Peripheral>  (919) 
nan

>  <Num_H_Atoms_ProtBoundConf>  (919) 
nan

>  <Num_Resolved_Atoms>  (919) 
nan

>  <Num_Not_Resolved_Atoms>  (919) 
nan

$$$$
CHEMBL1940659
     RDKit          3D

  0  0  0  0  0  0  0  0  0  0999 V3000
M  V30 BEGIN CTAB
M  V30 COUNTS 68 73 0 0 0
M  V30 BEGIN ATOM
M  V30 1 N 8.679858 -6.783777 2.950010 0
M  V30 2 C 7.968826 -5.911682 2.673831 0
M  V30 3 C 7.063979 -4.840632 2.331507 0
M  V30 4 C 7.588897 -3.667578 1.822344 0
M  V30 5 C 6.715381 -2.629892 1.490721 0
M  V30 6 C 5.344794 -2.834258 1.693515 0
M  V30 7 C 4.393131 -1.778674 1.360277 0
M  V30 8 C 4.725376 -0.548395 0.844620 0
M  V30 9 C 3.607009 0.265172 0.622511 0
M  V30 10 C 2.623419 -0.596793 1.050542 0
M  V30 11 C 1.212465 -0.228325 1.031844 0
M  V30 12 O 0.829238 0.558031 0.117679 0
M  V30 13 N -0.073735 -0.302615 1.554057 0
M  V30 14 C -0.320951 -1.064244 2.749808 0
M  V30 15 C -0.665371 -2.465204 2.454301 0
M  V30 16 C 0.273532 -3.484377 2.598386 0
M  V30 17 C 0.057796 -4.820680 2.335109 0
M  V30 18 C -1.218262 -5.091277 1.896127 0
M  V30 19 N -2.150951 -4.139704 1.744210 0
M  V30 20 C -1.902632 -2.841243 2.012898 0
M  V30 21 C -3.055712 -2.000110 1.768438 0
M  V30 22 C -3.684830 -1.041422 2.520683 0
M  V30 23 N -4.739653 -0.328116 2.151862 0
M  V30 24 C -5.293613 -0.512176 0.943476 0
M  V30 25 N -4.739625 -1.434559 0.141668 0
M  V30 26 C -3.669832 -2.159226 0.512000 0
M  V30 27 C -0.724107 0.507296 0.605584 0
M  V30 28 C -1.221933 -0.128098 -0.540927 0
M  V30 29 C -1.885154 0.617916 -1.522630 0
M  V30 30 C -2.031401 1.969684 -1.332415 0
M  V30 31 N -2.726381 2.676086 -2.370268 0
M  V30 32 C -3.360345 1.916915 -3.424610 0
M  V30 33 C -4.345656 2.803465 -4.158927 0
M  V30 34 N -5.130993 3.618205 -3.261664 0
M  V30 35 C -4.318995 4.463631 -2.423328 0
M  V30 36 C -2.859045 4.112032 -2.482627 0
M  V30 37 C -1.538998 2.587693 -0.202678 0
M  V30 38 C -0.882929 1.871051 0.775839 0
M  V30 39 O 3.086451 -1.753866 1.466453 0
M  V30 40 C 4.824384 -4.022884 2.208869 0
M  V30 41 C 5.710954 -5.032000 2.527741 0
M  V30 42 H 8.663867 -3.536195 1.676039 0
M  V30 43 H 7.098924 -1.711323 1.095627 0
M  V30 44 H 5.758421 -0.229845 0.627865 0
M  V30 45 H 3.553363 1.253629 0.237288 0
M  V30 46 H 0.628158 -1.124151 3.369517 0
M  V30 47 H -1.045936 -0.600669 3.415598 0
M  V30 48 H 1.260294 -3.183722 2.949440 0
M  V30 49 H 0.849166 -5.530467 2.478342 0
M  V30 50 H -1.443861 -6.137873 1.672265 0
M  V30 51 H -3.292409 -0.872957 3.498319 0
M  V30 52 H -6.147188 0.003567 0.533911 0
M  V30 53 H -3.299385 -2.879115 -0.211206 0
M  V30 54 H -1.079338 -1.211309 -0.645433 0
M  V30 55 H -2.220876 0.008320 -2.361295 0
M  V30 56 H -3.842714 0.981953 -3.070885 0
M  V30 57 H -2.558972 1.634052 -4.134354 0
M  V30 58 H -5.076123 2.117329 -4.657226 0
M  V30 59 H -3.871853 3.388527 -4.969519 0
M  V30 60 H -5.888578 3.116516 -2.796167 0
M  V30 61 H -4.661187 4.341905 -1.377406 0
M  V30 62 H -4.527919 5.505400 -2.723625 0
M  V30 63 H -2.422425 4.383153 -3.490725 0
M  V30 64 H -2.308189 4.646895 -1.702705 0
M  V30 65 H -1.658114 3.639448 -0.066154 0
M  V30 66 H -0.493891 2.371552 1.673952 0
M  V30 67 H 3.762219 -4.131259 2.348347 0
M  V30 68 H 5.282940 -5.949594 2.928121 0
M  V30 END ATOM
M  V30 BEGIN BOND
M  V30 1 3 1 2
M  V30 2 1 2 3
M  V30 3 2 3 4
M  V30 4 1 4 5
M  V30 5 2 5 6
M  V30 6 1 6 7
M  V30 7 2 7 8
M  V30 8 1 8 9
M  V30 9 2 9 10
M  V30 10 1 10 11
M  V30 11 2 11 12
M  V30 12 1 11 13
M  V30 13 1 13 14
M  V30 14 1 14 15
M  V30 15 2 15 16
M  V30 16 1 16 17
M  V30 17 2 17 18
M  V30 18 1 18 19
M  V30 19 2 19 20
M  V30 20 1 20 21
M  V30 21 2 21 22
M  V30 22 1 22 23
M  V30 23 2 23 24
M  V30 24 1 24 25
M  V30 25 2 25 26
M  V30 26 1 13 27
M  V30 27 2 27 28
M  V30 28 1 28 29
M  V30 29 2 29 30
M  V30 30 1 30 31
M  V30 31 1 31 32
M  V30 32 1 32 33
M  V30 33 1 33 34
M  V30 34 1 34 35
M  V30 35 1 35 36
M  V30 36 1 30 37
M  V30 37 2 37 38
M  V30 38 1 10 39
M  V30 39 1 6 40
M  V30 40 2 40 41
M  V30 41 1 41 3
M  V30 42 1 39 7
M  V30 43 1 20 15
M  V30 44 1 26 21
M  V30 45 1 38 27
M  V30 46 1 36 31
M  V30 47 1 4 42
M  V30 48 1 5 43
M  V30 49 1 8 44
M  V30 50 1 9 45
M  V30 51 1 14 46
M  V30 52 1 14 47
M  V30 53 1 16 48
M  V30 54 1 17 49
M  V30 55 1 18 50
M  V30 56 1 22 51
M  V30 57 1 24 52
M  V30 58 1 26 53
M  V30 59 1 28 54
M  V30 60 1 29 55
M  V30 61 1 32 56
M  V30 62 1 32 57
M  V30 63 1 33 58
M  V30 64 1 33 59
M  V30 65 1 34 60
M  V30 66 1 35 61
M  V30 67 1 35 62
M  V30 68 1 36 63
M  V30 69 1 36 64
M  V30 70 1 37 65
M  V30 71 1 38 66
M  V30 72 1 40 67
M  V30 73 1 41 68
M  V30 END BOND
M  V30 END CTAB
M  END
>  <Dataset>  (920) 
ChEMBL_Kinases

>  <Ligand_Instance>  (920) 
nan

>  <PDB_ID>  (920) 
nan

>  <Standardized_SMILES>  (920) 
N#Cc1ccc(-c2ccc(C(=O)N(Cc3cccnc3-c3cncnc3)c3ccc(N4CCNCC4)cc3)o2)cc1

>  <Name>  (920) 
nan

>  <Pocket>  (920) 
nan

>  <ATP_Site>  (920) 
nan

>  <Peripheral>  (920) 
nan

>  <Num_H_Atoms_ProtBoundConf>  (920) 
nan

>  <Num_Resolved_Atoms>  (920) 
nan

>  <Num_Not_Resolved_Atoms>  (920) 
nan

$$$$
CHEMBL1940658
     RDKit          3D

  0  0  0  0  0  0  0  0  0  0999 V3000
M  V30 BEGIN CTAB
M  V30 COUNTS 73 78 0 0 0
M  V30 BEGIN ATOM
M  V30 1 C -0.234972 -5.631942 -0.120150 0
M  V30 2 O 0.058517 -4.350978 -0.682394 0
M  V30 3 C 0.800039 -3.519316 0.152898 0
M  V30 4 C 1.213129 -3.921153 1.433355 0
M  V30 5 C 1.947443 -3.136858 2.296584 0
M  V30 6 N 2.289789 -1.892739 1.869767 0
M  V30 7 C 1.886340 -1.531164 0.645924 0
M  V30 8 C 1.154396 -2.226303 -0.292572 0
M  V30 9 C 0.738648 -1.883833 -1.630729 0
M  V30 10 N 1.267662 -2.685327 -2.577551 0
M  V30 11 C 1.006157 -2.560391 -3.875398 0
M  V30 12 C 0.143406 -1.548121 -4.251242 0
M  V30 13 C -0.391621 -0.736285 -3.281433 0
M  V30 14 C -0.124205 -0.858404 -1.906397 0
M  V30 15 C -0.873223 0.125835 -1.182249 0
M  V30 16 N -0.753264 0.344495 0.203162 0
M  V30 17 C -1.653040 -0.476364 0.998198 0
M  V30 18 O -1.819124 -0.627123 2.256451 0
M  V30 19 C -2.632439 -1.360619 0.322653 0
M  V30 20 C -3.884387 -0.711539 0.295611 0
M  V30 21 C -4.806251 -1.556199 -0.349869 0
M  V30 22 C -4.035707 -2.662975 -0.666382 0
M  V30 23 C -4.522537 -3.853579 -1.359685 0
M  V30 24 C -3.712185 -4.922648 -1.672635 0
M  V30 25 C -4.215307 -6.032456 -2.323855 0
M  V30 26 C -5.521727 -6.146054 -2.695033 0
M  V30 27 C -6.077628 -7.283184 -3.373200 0
M  V30 28 N -6.523649 -8.209210 -3.910753 0
M  V30 29 C -6.323488 -5.065218 -2.374187 0
M  V30 30 C -5.854545 -3.942754 -1.724997 0
M  V30 31 O -2.791534 -2.522240 -0.267197 0
M  V30 32 C 0.123666 1.287522 0.800346 0
M  V30 33 C 0.221717 1.582877 2.138888 0
M  V30 34 C 1.074518 2.502342 2.714651 0
M  V30 35 C 1.917826 3.204991 1.896349 0
M  V30 36 N 2.814251 4.188843 2.415466 0
M  V30 37 C 2.715873 4.780276 3.735426 0
M  V30 38 C 3.958078 4.564409 4.554159 0
M  V30 39 N 5.123943 5.085836 3.835018 0
M  V30 40 C 5.195027 4.398009 2.557778 0
M  V30 41 C 3.960910 4.762816 1.748999 0
M  V30 42 C 1.861971 2.948479 0.543053 0
M  V30 43 C 0.990644 2.017038 0.006157 0
M  V30 44 H -0.793743 -5.498247 0.838911 0
M  V30 45 H -0.841949 -6.271377 -0.753303 0
M  V30 46 H 0.696926 -6.183184 0.160671 0
M  V30 47 H 0.934124 -4.930596 1.776622 0
M  V30 48 H 2.227543 -3.505657 3.263838 0
M  V30 49 H 2.183192 -0.553765 0.303418 0
M  V30 50 H 1.450818 -3.226807 -4.598420 0
M  V30 51 H -0.033891 -1.487773 -5.316960 0
M  V30 52 H -1.052350 0.006196 -3.767096 0
M  V30 53 H -2.003122 0.064443 -1.441252 0
M  V30 54 H -0.659435 1.146650 -1.640967 0
M  V30 55 H -4.327813 0.226674 0.619206 0
M  V30 56 H -5.842976 -1.484486 -0.594715 0
M  V30 57 H -2.685037 -4.801880 -1.369305 0
M  V30 58 H -3.550116 -6.857994 -2.554851 0
M  V30 59 H -7.380783 -5.150483 -2.671690 0
M  V30 60 H -6.573000 -3.178689 -1.532762 0
M  V30 61 H -0.418008 1.062372 2.830133 0
M  V30 62 H 1.055984 2.644765 3.792417 0
M  V30 63 H 2.631695 5.908876 3.622647 0
M  V30 64 H 1.844888 4.422406 4.301596 0
M  V30 65 H 3.852696 5.171576 5.482807 0
M  V30 66 H 4.122614 3.511610 4.833637 0
M  V30 67 H 5.949182 4.830809 4.404747 0
M  V30 68 H 6.125462 4.644875 2.020932 0
M  V30 69 H 5.132928 3.313261 2.805713 0
M  V30 70 H 4.084046 4.431556 0.695166 0
M  V30 71 H 3.819111 5.888567 1.748299 0
M  V30 72 H 2.522318 3.499199 -0.133517 0
M  V30 73 H 1.056312 1.912682 -1.065777 0
M  V30 END ATOM
M  V30 BEGIN BOND
M  V30 1 1 1 2
M  V30 2 1 2 3
M  V30 3 2 3 4
M  V30 4 1 4 5
M  V30 5 2 5 6
M  V30 6 1 6 7
M  V30 7 2 7 8
M  V30 8 1 8 9
M  V30 9 2 9 10
M  V30 10 1 10 11
M  V30 11 2 11 12
M  V30 12 1 12 13
M  V30 13 2 13 14
M  V30 14 1 14 15
M  V30 15 1 15 16
M  V30 16 1 16 17
M  V30 17 2 17 18
M  V30 18 1 17 19
M  V30 19 2 19 20
M  V30 20 1 20 21
M  V30 21 2 21 22
M  V30 22 1 22 23
M  V30 23 2 23 24
M  V30 24 1 24 25
M  V30 25 2 25 26
M  V30 26 1 26 27
M  V30 27 3 27 28
M  V30 28 1 26 29
M  V30 29 2 29 30
M  V30 30 1 22 31
M  V30 31 1 16 32
M  V30 32 2 32 33
M  V30 33 1 33 34
M  V30 34 2 34 35
M  V30 35 1 35 36
M  V30 36 1 36 37
M  V30 37 1 37 38
M  V30 38 1 38 39
M  V30 39 1 39 40
M  V30 40 1 40 41
M  V30 41 1 35 42
M  V30 42 2 42 43
M  V30 43 1 8 3
M  V30 44 1 14 9
M  V30 45 1 31 19
M  V30 46 1 43 32
M  V30 47 1 30 23
M  V30 48 1 41 36
M  V30 49 1 1 44
M  V30 50 1 1 45
M  V30 51 1 1 46
M  V30 52 1 4 47
M  V30 53 1 5 48
M  V30 54 1 7 49
M  V30 55 1 11 50
M  V30 56 1 12 51
M  V30 57 1 13 52
M  V30 58 1 15 53
M  V30 59 1 15 54
M  V30 60 1 20 55
M  V30 61 1 21 56
M  V30 62 1 24 57
M  V30 63 1 25 58
M  V30 64 1 29 59
M  V30 65 1 30 60
M  V30 66 1 33 61
M  V30 67 1 34 62
M  V30 68 1 37 63
M  V30 69 1 37 64
M  V30 70 1 38 65
M  V30 71 1 38 66
M  V30 72 1 39 67
M  V30 73 1 40 68
M  V30 74 1 40 69
M  V30 75 1 41 70
M  V30 76 1 41 71
M  V30 77 1 42 72
M  V30 78 1 43 73
M  V30 END BOND
M  V30 END CTAB
M  END
>  <Dataset>  (921) 
ChEMBL_Kinases

>  <Ligand_Instance>  (921) 
nan

>  <PDB_ID>  (921) 
nan

>  <Standardized_SMILES>  (921) 
COc1ccncc1-c1ncccc1CN(C(=O)c1ccc(-c2ccc(C#N)cc2)o1)c1ccc(N2CCNCC2)cc1

>  <Name>  (921) 
nan

>  <Pocket>  (921) 
nan

>  <ATP_Site>  (921) 
nan

>  <Peripheral>  (921) 
nan

>  <Num_H_Atoms_ProtBoundConf>  (921) 
nan

>  <Num_Resolved_Atoms>  (921) 
nan

>  <Num_Not_Resolved_Atoms>  (921) 
nan

$$$$
CHEMBL1940657
     RDKit          3D

  0  0  0  0  0  0  0  0  0  0999 V3000
M  V30 BEGIN CTAB
M  V30 COUNTS 74 79 0 0 0
M  V30 BEGIN ATOM
M  V30 1 C -0.062281 -4.498237 2.901564 0
M  V30 2 O 0.043293 -3.727574 1.728928 0
M  V30 3 C 1.079233 -2.803785 1.603922 0
M  V30 4 C 2.078216 -2.469835 2.438215 0
M  V30 5 C 3.006040 -1.513387 2.121790 0
M  V30 6 C 2.860917 -0.911082 0.895599 0
M  V30 7 C 1.806013 -1.288122 0.052009 0
M  V30 8 C 0.821852 -2.289820 0.368587 0
M  V30 9 C 0.005067 -2.340347 -0.829380 0
M  V30 10 N -0.067244 -3.273089 -1.791932 0
M  V30 11 C -0.868854 -3.203026 -2.850271 0
M  V30 12 C -1.661103 -2.080188 -2.923246 0
M  V30 13 C -1.706144 -1.030175 -2.014096 0
M  V30 14 C -0.838614 -1.203957 -0.950200 0
M  V30 15 C -0.925211 -0.286785 0.173995 0
M  V30 16 N -1.570296 0.982296 -0.002913 0
M  V30 17 C -3.001455 1.126404 0.214002 0
M  V30 18 O -3.679751 2.157326 0.408449 0
M  V30 19 C -3.628497 -0.226806 0.167920 0
M  V30 20 C -4.785601 -0.177155 -0.615512 0
M  V30 21 C -5.372966 -1.455829 -0.673055 0
M  V30 22 C -4.519702 -2.202131 0.088697 0
M  V30 23 C -4.537659 -3.607955 0.421902 0
M  V30 24 C -3.620918 -4.241292 1.223256 0
M  V30 25 C -3.599873 -5.615171 1.480021 0
M  V30 26 C -4.579244 -6.402064 0.881002 0
M  V30 27 C -4.601438 -7.827073 1.073171 0
M  V30 28 N -4.598871 -8.978835 1.233201 0
M  V30 29 C -5.523329 -5.810938 0.069342 0
M  V30 30 C -5.516234 -4.427271 -0.167720 0
M  V30 31 O -3.566402 -1.477490 0.540078 0
M  V30 32 C -0.403194 1.786899 -0.274675 0
M  V30 33 C 0.150872 2.190465 -1.467705 0
M  V30 34 C 1.330554 2.897166 -1.426991 0
M  V30 35 C 1.946787 3.200579 -0.243287 0
M  V30 36 N 3.213242 3.885579 -0.236455 0
M  V30 37 C 3.804602 4.537793 0.906779 0
M  V30 38 C 5.116657 3.846032 1.201410 0
M  V30 39 N 5.350780 2.731961 0.317823 0
M  V30 40 C 5.241716 3.013866 -1.071148 0
M  V30 41 C 4.095713 3.975963 -1.413772 0
M  V30 42 C 1.471136 2.847107 1.000664 0
M  V30 43 C 0.268011 2.126408 0.917294 0
M  V30 44 H 0.381600 -3.973564 3.801368 0
M  V30 45 H -1.148247 -4.618622 3.204276 0
M  V30 46 H 0.438928 -5.482844 2.853378 0
M  V30 47 H 2.071711 -3.019874 3.362433 0
M  V30 48 H 3.786754 -1.261603 2.811386 0
M  V30 49 H 3.606809 -0.167531 0.692046 0
M  V30 50 H 1.909015 -0.658569 -0.861732 0
M  V30 51 H -0.891899 -3.978004 -3.594111 0
M  V30 52 H -2.320073 -2.021813 -3.798160 0
M  V30 53 H -2.368829 -0.230662 -2.253219 0
M  V30 54 H -1.548411 -0.772637 1.017353 0
M  V30 55 H 0.070524 -0.204302 0.704288 0
M  V30 56 H -5.337553 0.585362 -1.189471 0
M  V30 57 H -6.259384 -1.815420 -1.174413 0
M  V30 58 H -2.841956 -3.637275 1.701184 0
M  V30 59 H -2.838405 -6.046145 2.131759 0
M  V30 60 H -6.306020 -6.427614 -0.415407 0
M  V30 61 H -6.300724 -4.061436 -0.820803 0
M  V30 62 H -0.440960 1.884085 -2.303866 0
M  V30 63 H 1.690131 3.173837 -2.407151 0
M  V30 64 H 4.094671 5.570018 0.577494 0
M  V30 65 H 3.160241 4.639353 1.764625 0
M  V30 66 H 5.063973 3.465298 2.220477 0
M  V30 67 H 5.996610 4.517730 1.137499 0
M  V30 68 H 5.047649 1.816947 0.651741 0
M  V30 69 H 4.941342 2.058762 -1.573815 0
M  V30 70 H 6.183251 3.336920 -1.568688 0
M  V30 71 H 4.547963 4.984092 -1.458549 0
M  V30 72 H 3.611926 3.700869 -2.345101 0
M  V30 73 H 1.910394 3.061193 1.948598 0
M  V30 74 H -0.130643 1.831813 1.898785 0
M  V30 END ATOM
M  V30 BEGIN BOND
M  V30 1 1 1 2
M  V30 2 1 2 3
M  V30 3 2 3 4
M  V30 4 1 4 5
M  V30 5 2 5 6
M  V30 6 1 6 7
M  V30 7 2 7 8
M  V30 8 1 8 9
M  V30 9 2 9 10
M  V30 10 1 10 11
M  V30 11 2 11 12
M  V30 12 1 12 13
M  V30 13 2 13 14
M  V30 14 1 14 15
M  V30 15 1 15 16
M  V30 16 1 16 17
M  V30 17 2 17 18
M  V30 18 1 17 19
M  V30 19 2 19 20
M  V30 20 1 20 21
M  V30 21 2 21 22
M  V30 22 1 22 23
M  V30 23 2 23 24
M  V30 24 1 24 25
M  V30 25 2 25 26
M  V30 26 1 26 27
M  V30 27 3 27 28
M  V30 28 1 26 29
M  V30 29 2 29 30
M  V30 30 1 22 31
M  V30 31 1 16 32
M  V30 32 2 32 33
M  V30 33 1 33 34
M  V30 34 2 34 35
M  V30 35 1 35 36
M  V30 36 1 36 37
M  V30 37 1 37 38
M  V30 38 1 38 39
M  V30 39 1 39 40
M  V30 40 1 40 41
M  V30 41 1 35 42
M  V30 42 2 42 43
M  V30 43 1 8 3
M  V30 44 1 14 9
M  V30 45 1 31 19
M  V30 46 1 43 32
M  V30 47 1 30 23
M  V30 48 1 41 36
M  V30 49 1 1 44
M  V30 50 1 1 45
M  V30 51 1 1 46
M  V30 52 1 4 47
M  V30 53 1 5 48
M  V30 54 1 6 49
M  V30 55 1 7 50
M  V30 56 1 11 51
M  V30 57 1 12 52
M  V30 58 1 13 53
M  V30 59 1 15 54
M  V30 60 1 15 55
M  V30 61 1 20 56
M  V30 62 1 21 57
M  V30 63 1 24 58
M  V30 64 1 25 59
M  V30 65 1 29 60
M  V30 66 1 30 61
M  V30 67 1 33 62
M  V30 68 1 34 63
M  V30 69 1 37 64
M  V30 70 1 37 65
M  V30 71 1 38 66
M  V30 72 1 38 67
M  V30 73 1 39 68
M  V30 74 1 40 69
M  V30 75 1 40 70
M  V30 76 1 41 71
M  V30 77 1 41 72
M  V30 78 1 42 73
M  V30 79 1 43 74
M  V30 END BOND
M  V30 END CTAB
M  END
>  <Dataset>  (922) 
ChEMBL_Kinases

>  <Ligand_Instance>  (922) 
nan

>  <PDB_ID>  (922) 
nan

>  <Standardized_SMILES>  (922) 
COc1ccccc1-c1ncccc1CN(C(=O)c1ccc(-c2ccc(C#N)cc2)o1)c1ccc(N2CCNCC2)cc1

>  <Name>  (922) 
nan

>  <Pocket>  (922) 
nan

>  <ATP_Site>  (922) 
nan

>  <Peripheral>  (922) 
nan

>  <Num_H_Atoms_ProtBoundConf>  (922) 
nan

>  <Num_Resolved_Atoms>  (922) 
nan

>  <Num_Not_Resolved_Atoms>  (922) 
nan

$$$$
CHEMBL1940656
     RDKit          3D

  0  0  0  0  0  0  0  0  0  0999 V3000
M  V30 BEGIN CTAB
M  V30 COUNTS 75 80 0 0 0
M  V30 BEGIN ATOM
M  V30 1 C -2.352246 -4.793136 0.446421 0
M  V30 2 O -1.617094 -3.878529 -0.380375 0
M  V30 3 C -0.248092 -3.871129 -0.213111 0
M  V30 4 C 0.560970 -4.604894 0.625383 0
M  V30 5 C 1.927617 -4.447345 0.642275 0
M  V30 6 C 2.537476 -3.524450 -0.204255 0
M  V30 7 C 1.712960 -2.783857 -1.051659 0
M  V30 8 C 0.333225 -2.964776 -1.046713 0
M  V30 9 C -0.200546 -2.025735 -2.060064 0
M  V30 10 C -0.240803 -2.453616 -3.368895 0
M  V30 11 C -0.711552 -1.535053 -4.304752 0
M  V30 12 C -1.111260 -0.275308 -3.940098 0
M  V30 13 C -1.047564 0.089247 -2.624341 0
M  V30 14 C -0.588748 -0.771759 -1.618570 0
M  V30 15 C -0.491979 -0.522744 -0.180366 0
M  V30 16 N -0.554750 0.872718 0.220212 0
M  V30 17 C -1.773619 1.584112 0.542981 0
M  V30 18 O -0.658795 2.060878 0.670802 0
M  V30 19 C -3.002973 0.880341 0.335492 0
M  V30 20 C -3.804216 0.774273 -0.775184 0
M  V30 21 C -4.814270 -0.031874 -0.310984 0
M  V30 22 C -4.591529 -0.372736 1.022856 0
M  V30 23 C -5.527280 -1.219193 1.734938 0
M  V30 24 C -6.649458 -1.720575 1.117375 0
M  V30 25 C -7.583719 -2.524485 1.739114 0
M  V30 26 C -7.419625 -2.877732 3.082863 0
M  V30 27 C -8.425523 -3.710915 3.655665 0
M  V30 28 N -9.254670 -4.377186 4.127107 0
M  V30 29 C -6.293964 -2.378876 3.710644 0
M  V30 30 C -5.394460 -1.584336 3.053374 0
M  V30 31 O -3.481014 0.199261 1.384676 0
M  V30 32 C 0.810447 1.359778 0.250814 0
M  V30 33 C 1.434090 1.903614 -0.854933 0
M  V30 34 C 2.745916 2.329695 -0.805323 0
M  V30 35 C 3.453247 2.209903 0.373136 0
M  V30 36 N 4.825932 2.551785 0.606841 0
M  V30 37 C 5.490351 2.646570 1.920688 0
M  V30 38 C 6.442188 1.483903 2.007684 0
M  V30 39 N 6.484193 0.761633 0.772801 0
M  V30 40 C 6.727951 1.570219 -0.393745 0
M  V30 41 C 5.839136 2.826771 -0.431920 0
M  V30 42 C 2.843606 1.664455 1.506295 0
M  V30 43 C 1.532437 1.241841 1.448975 0
M  V30 44 H -1.986924 -4.797521 1.489142 0
M  V30 45 H -3.438507 -4.507529 0.465250 0
M  V30 46 H -2.187443 -5.802198 0.026356 0
M  V30 47 H -0.011587 -5.300228 1.254189 0
M  V30 48 H 2.500194 -5.071005 1.344970 0
M  V30 49 H 3.605699 -3.484763 -0.106316 0
M  V30 50 H 2.357107 -2.117857 -1.635051 0
M  V30 51 H 0.085989 -3.455856 -3.616969 0
M  V30 52 H -0.762977 -1.815452 -5.335683 0
M  V30 53 H -1.477252 0.452775 -4.643126 0
M  V30 54 H -1.337168 1.069267 -2.248839 0
M  V30 55 H 0.471097 -1.002225 0.162041 0
M  V30 56 H -1.263152 -1.052899 0.430437 0
M  V30 57 H -3.643114 1.219858 -1.728742 0
M  V30 58 H -5.622553 -0.291530 -1.018936 0
M  V30 59 H -6.849226 -1.491516 0.074899 0
M  V30 60 H -8.439324 -2.876029 1.180687 0
M  V30 61 H -6.241569 -2.694516 4.737896 0
M  V30 62 H -4.523102 -1.224326 3.600410 0
M  V30 63 H 0.909758 2.013987 -1.786817 0
M  V30 64 H 3.295318 2.755205 -1.625592 0
M  V30 65 H 6.110914 3.592352 1.927635 0
M  V30 66 H 4.794145 2.755837 2.751161 0
M  V30 67 H 7.438476 1.784179 2.398927 0
M  V30 68 H 6.002588 0.787335 2.770706 0
M  V30 69 H 7.169237 -0.020986 0.753401 0
M  V30 70 H 6.487457 0.942676 -1.283253 0
M  V30 71 H 7.805901 1.847015 -0.466659 0
M  V30 72 H 5.405918 2.935889 -1.429482 0
M  V30 73 H 6.422503 3.713077 -0.156944 0
M  V30 74 H 3.244684 1.494172 2.500146 0
M  V30 75 H 0.971035 0.800938 2.280879 0
M  V30 END ATOM
M  V30 BEGIN BOND
M  V30 1 1 1 2
M  V30 2 1 2 3
M  V30 3 2 3 4
M  V30 4 1 4 5
M  V30 5 2 5 6
M  V30 6 1 6 7
M  V30 7 2 7 8
M  V30 8 1 8 9
M  V30 9 2 9 10
M  V30 10 1 10 11
M  V30 11 2 11 12
M  V30 12 1 12 13
M  V30 13 2 13 14
M  V30 14 1 14 15
M  V30 15 1 15 16
M  V30 16 1 16 17
M  V30 17 2 17 18
M  V30 18 1 17 19
M  V30 19 2 19 20
M  V30 20 1 20 21
M  V30 21 2 21 22
M  V30 22 1 22 23
M  V30 23 2 23 24
M  V30 24 1 24 25
M  V30 25 2 25 26
M  V30 26 1 26 27
M  V30 27 3 27 28
M  V30 28 1 26 29
M  V30 29 2 29 30
M  V30 30 1 22 31
M  V30 31 1 16 32
M  V30 32 2 32 33
M  V30 33 1 33 34
M  V30 34 2 34 35
M  V30 35 1 35 36
M  V30 36 1 36 37
M  V30 37 1 37 38
M  V30 38 1 38 39
M  V30 39 1 39 40
M  V30 40 1 40 41
M  V30 41 1 35 42
M  V30 42 2 42 43
M  V30 43 1 8 3
M  V30 44 1 14 9
M  V30 45 1 31 19
M  V30 46 1 43 32
M  V30 47 1 30 23
M  V30 48 1 41 36
M  V30 49 1 1 44
M  V30 50 1 1 45
M  V30 51 1 1 46
M  V30 52 1 4 47
M  V30 53 1 5 48
M  V30 54 1 6 49
M  V30 55 1 7 50
M  V30 56 1 10 51
M  V30 57 1 11 52
M  V30 58 1 12 53
M  V30 59 1 13 54
M  V30 60 1 15 55
M  V30 61 1 15 56
M  V30 62 1 20 57
M  V30 63 1 21 58
M  V30 64 1 24 59
M  V30 65 1 25 60
M  V30 66 1 29 61
M  V30 67 1 30 62
M  V30 68 1 33 63
M  V30 69 1 34 64
M  V30 70 1 37 65
M  V30 71 1 37 66
M  V30 72 1 38 67
M  V30 73 1 38 68
M  V30 74 1 39 69
M  V30 75 1 40 70
M  V30 76 1 40 71
M  V30 77 1 41 72
M  V30 78 1 41 73
M  V30 79 1 42 74
M  V30 80 1 43 75
M  V30 END BOND
M  V30 END CTAB
M  END
>  <Dataset>  (923) 
ChEMBL_Kinases

>  <Ligand_Instance>  (923) 
nan

>  <PDB_ID>  (923) 
nan

>  <Standardized_SMILES>  (923) 
COc1ccccc1-c1ccccc1CN(C(=O)c1ccc(-c2ccc(C#N)cc2)o1)c1ccc(N2CCNCC2)cc1

>  <Name>  (923) 
nan

>  <Pocket>  (923) 
nan

>  <ATP_Site>  (923) 
nan

>  <Peripheral>  (923) 
nan

>  <Num_H_Atoms_ProtBoundConf>  (923) 
nan

>  <Num_Resolved_Atoms>  (923) 
nan

>  <Num_Not_Resolved_Atoms>  (923) 
nan

$$$$
CHEMBL1940655
     RDKit          3D

  0  0  0  0  0  0  0  0  0  0999 V3000
M  V30 BEGIN CTAB
M  V30 COUNTS 73 78 0 0 0
M  V30 BEGIN ATOM
M  V30 1 C 2.470994 2.178244 4.225187 0
M  V30 2 O 2.590072 2.794453 2.953071 0
M  V30 3 C 2.859735 2.074881 1.807098 0
M  V30 4 N 2.980441 2.610877 0.589447 0
M  V30 5 C 3.241546 1.930516 -0.535806 0
M  V30 6 C 3.407465 0.577511 -0.497504 0
M  V30 7 C 3.678799 -0.445563 -1.471024 0
M  V30 8 C 4.770379 -1.292693 -1.240217 0
M  V30 9 C 5.224180 -2.315303 -2.044664 0
M  V30 10 C 4.499689 -2.504067 -3.206272 0
M  V30 11 C 3.414154 -1.706081 -3.494565 0
M  V30 12 C 3.015000 -0.700446 -2.643205 0
M  V30 13 C 1.834000 0.066747 -3.034070 0
M  V30 14 N 0.613183 -0.319062 -2.346835 0
M  V30 15 C -0.168187 -1.357427 -2.980332 0
M  V30 16 O 0.192742 -1.883255 -4.075077 0
M  V30 17 C -1.415756 -1.995658 -2.583425 0
M  V30 18 C -2.780753 -1.798251 -2.698282 0
M  V30 19 C -3.371400 -2.859032 -2.044093 0
M  V30 20 C -2.364675 -3.663486 -1.554966 0
M  V30 21 C -2.612770 -4.886475 -0.803156 0
M  V30 22 C -3.873074 -5.358310 -0.506547 0
M  V30 23 C -3.937500 -6.518655 0.207767 0
M  V30 24 C -2.843177 -7.236142 0.643867 0
M  V30 25 C -2.886161 -8.447824 1.391627 0
M  V30 26 N -2.941058 -9.433284 1.995963 0
M  V30 27 C -1.561336 -6.762110 0.345479 0
M  V30 28 C -1.485100 -5.590272 -0.375940 0
M  V30 29 O -1.232142 -3.114453 -1.897446 0
M  V30 30 C -0.072132 0.065083 -1.162633 0
M  V30 31 C -0.963390 1.117249 -1.412619 0
M  V30 32 C -1.751090 1.657448 -0.388291 0
M  V30 33 C -1.659996 1.158270 0.888990 0
M  V30 34 N -2.426151 1.663487 1.971505 0
M  V30 35 C -3.350064 2.780124 1.893795 0
M  V30 36 C -2.618073 3.890002 2.667361 0
M  V30 37 N -2.439527 3.543894 4.040554 0
M  V30 38 C -1.975262 2.224682 4.312828 0
M  V30 39 C -2.426343 1.168330 3.331385 0
M  V30 40 C -0.782541 0.125442 1.126695 0
M  V30 41 C -0.004124 -0.412308 0.126225 0
M  V30 42 C 3.283732 0.001636 0.774350 0
M  V30 43 N 3.016844 0.744928 1.885439 0
M  V30 44 H 3.407432 2.393547 4.771816 0
M  V30 45 H 1.577290 2.584744 4.752978 0
M  V30 46 H 2.368189 1.075995 4.136965 0
M  V30 47 H 3.353906 2.346752 -1.505718 0
M  V30 48 H 5.348513 -1.146626 -0.317863 0
M  V30 49 H 6.066175 -2.904169 -1.780309 0
M  V30 50 H 4.810564 -3.296662 -3.881198 0
M  V30 51 H 2.911767 -1.928702 -4.426687 0
M  V30 52 H 1.972490 1.162405 -2.910767 0
M  V30 53 H 1.611035 -0.037917 -4.137350 0
M  V30 54 H -3.076333 -0.912090 -3.240446 0
M  V30 55 H -4.449264 -2.909065 -2.008646 0
M  V30 56 H -4.736506 -4.808601 -0.840249 0
M  V30 57 H -4.890984 -6.943867 0.474446 0
M  V30 58 H -0.678536 -7.277897 0.657572 0
M  V30 59 H -0.481123 -5.212926 -0.613358 0
M  V30 60 H -1.109475 1.585479 -2.400456 0
M  V30 61 H -2.425881 2.467750 -0.622453 0
M  V30 62 H -4.291003 2.611672 2.460482 0
M  V30 63 H -3.554763 3.142316 0.890537 0
M  V30 64 H -1.648983 4.032240 2.123631 0
M  V30 65 H -3.225658 4.790661 2.584056 0
M  V30 66 H -1.722920 4.218107 4.430287 0
M  V30 67 H -0.857167 2.221199 4.432445 0
M  V30 68 H -2.358390 1.921105 5.310223 0
M  V30 69 H -3.477948 0.915150 3.613677 0
M  V30 70 H -1.836567 0.275123 3.509833 0
M  V30 71 H -0.602505 -0.363590 2.064541 0
M  V30 72 H 0.708072 -1.217957 0.216174 0
M  V30 73 H 3.378136 -1.063448 1.037296 0
M  V30 END ATOM
M  V30 BEGIN BOND
M  V30 1 1 1 2
M  V30 2 1 2 3
M  V30 3 2 3 4
M  V30 4 1 4 5
M  V30 5 2 5 6
M  V30 6 1 6 7
M  V30 7 2 7 8
M  V30 8 1 8 9
M  V30 9 2 9 10
M  V30 10 1 10 11
M  V30 11 2 11 12
M  V30 12 1 12 13
M  V30 13 1 13 14
M  V30 14 1 14 15
M  V30 15 2 15 16
M  V30 16 1 15 17
M  V30 17 2 17 18
M  V30 18 1 18 19
M  V30 19 2 19 20
M  V30 20 1 20 21
M  V30 21 2 21 22
M  V30 22 1 22 23
M  V30 23 2 23 24
M  V30 24 1 24 25
M  V30 25 3 25 26
M  V30 26 1 24 27
M  V30 27 2 27 28
M  V30 28 1 20 29
M  V30 29 1 14 30
M  V30 30 2 30 31
M  V30 31 1 31 32
M  V30 32 2 32 33
M  V30 33 1 33 34
M  V30 34 1 34 35
M  V30 35 1 35 36
M  V30 36 1 36 37
M  V30 37 1 37 38
M  V30 38 1 38 39
M  V30 39 1 33 40
M  V30 40 2 40 41
M  V30 41 1 6 42
M  V30 42 2 42 43
M  V30 43 1 43 3
M  V30 44 1 12 7
M  V30 45 1 29 17
M  V30 46 1 41 30
M  V30 47 1 28 21
M  V30 48 1 39 34
M  V30 49 1 1 44
M  V30 50 1 1 45
M  V30 51 1 1 46
M  V30 52 1 5 47
M  V30 53 1 8 48
M  V30 54 1 9 49
M  V30 55 1 10 50
M  V30 56 1 11 51
M  V30 57 1 13 52
M  V30 58 1 13 53
M  V30 59 1 18 54
M  V30 60 1 19 55
M  V30 61 1 22 56
M  V30 62 1 23 57
M  V30 63 1 27 58
M  V30 64 1 28 59
M  V30 65 1 31 60
M  V30 66 1 32 61
M  V30 67 1 35 62
M  V30 68 1 35 63
M  V30 69 1 36 64
M  V30 70 1 36 65
M  V30 71 1 37 66
M  V30 72 1 38 67
M  V30 73 1 38 68
M  V30 74 1 39 69
M  V30 75 1 39 70
M  V30 76 1 40 71
M  V30 77 1 41 72
M  V30 78 1 42 73
M  V30 END BOND
M  V30 END CTAB
M  END
>  <Dataset>  (924) 
ChEMBL_Kinases

>  <Ligand_Instance>  (924) 
nan

>  <PDB_ID>  (924) 
nan

>  <Standardized_SMILES>  (924) 
COc1ncc(-c2ccccc2CN(C(=O)c2ccc(-c3ccc(C#N)cc3)o2)c2ccc(N3CCNCC3)cc2)cn1

>  <Name>  (924) 
nan

>  <Pocket>  (924) 
nan

>  <ATP_Site>  (924) 
nan

>  <Peripheral>  (924) 
nan

>  <Num_H_Atoms_ProtBoundConf>  (924) 
nan

>  <Num_Resolved_Atoms>  (924) 
nan

>  <Num_Not_Resolved_Atoms>  (924) 
nan

$$$$
CHEMBL1940654
     RDKit          3D

  0  0  0  0  0  0  0  0  0  0999 V3000
M  V30 BEGIN CTAB
M  V30 COUNTS 74 79 0 0 0
M  V30 BEGIN ATOM
M  V30 1 C 0.490514 -0.978975 6.481382 0
M  V30 2 O 0.978806 -1.504633 5.281405 0
M  V30 3 C 1.421155 -0.683801 4.267788 0
M  V30 4 C 1.913181 -1.169767 3.057406 0
M  V30 5 C 2.380833 -0.448832 1.979337 0
M  V30 6 C 2.840950 -1.146851 0.795072 0
M  V30 7 C 4.196693 -0.904426 0.571767 0
M  V30 8 C 4.820543 -1.572366 -0.490630 0
M  V30 9 C 4.098350 -2.438711 -1.279154 0
M  V30 10 C 2.768486 -2.622524 -0.996031 0
M  V30 11 C 2.080638 -2.000997 0.031247 0
M  V30 12 C 0.624958 -2.182472 0.235259 0
M  V30 13 N -0.118704 -1.088070 -0.426528 0
M  V30 14 C -0.557719 -1.214038 -1.781759 0
M  V30 15 O -1.114543 -0.116327 -2.063116 0
M  V30 16 C -0.355838 -2.427629 -2.610809 0
M  V30 17 C 0.327252 -2.911874 -3.728949 0
M  V30 18 C -0.098361 -4.221775 -3.781219 0
M  V30 19 C -0.975647 -4.490206 -2.759444 0
M  V30 20 C -1.559092 -5.838691 -2.625676 0
M  V30 21 C -1.265754 -6.907839 -3.482982 0
M  V30 22 C -1.913307 -8.096294 -3.205719 0
M  V30 23 C -2.799541 -8.266698 -2.162262 0
M  V30 24 C -3.406870 -9.555546 -1.981926 0
M  V30 25 N -3.910756 -10.608342 -1.835047 0
M  V30 26 C -3.076252 -7.190392 -1.321130 0
M  V30 27 C -2.438329 -5.969917 -1.572382 0
M  V30 28 O -1.118351 -3.369875 -2.052246 0
M  V30 29 C -0.618818 0.219612 -0.194478 0
M  V30 30 C -1.911747 0.432177 0.280846 0
M  V30 31 C -2.294369 1.756023 0.488786 0
M  V30 32 C -1.389623 2.752040 0.218248 0
M  V30 33 N -1.797363 4.092736 0.430555 0
M  V30 34 C -2.800105 4.920123 -0.201597 0
M  V30 35 C -2.557615 6.378843 0.000115 0
M  V30 36 N -1.363911 6.728639 0.704348 0
M  V30 37 C -1.307169 5.970665 1.944062 0
M  V30 38 C -0.959411 4.556178 1.541479 0
M  V30 39 C -0.093453 2.552503 -0.259102 0
M  V30 40 C 0.291550 1.218567 -0.468747 0
M  V30 41 C 2.336945 0.920472 2.169243 0
M  V30 42 C 1.861224 1.461931 3.342609 0
M  V30 43 N 1.417301 0.682228 4.359046 0
M  V30 44 H 1.252790 -0.543117 7.150871 0
M  V30 45 H -0.289722 -0.189573 6.335157 0
M  V30 46 H -0.026809 -1.782909 7.083851 0
M  V30 47 H 1.908387 -2.265774 3.037744 0
M  V30 48 H 4.829343 -0.248113 1.134239 0
M  V30 49 H 5.870783 -1.430247 -0.718042 0
M  V30 50 H 4.594721 -2.948078 -2.095427 0
M  V30 51 H 2.253472 -3.306340 -1.632556 0
M  V30 52 H 0.254943 -3.106954 -0.199398 0
M  V30 53 H 0.390560 -2.060726 1.307781 0
M  V30 54 H 0.927092 -2.152758 -4.159276 0
M  V30 55 H 0.345282 -4.781060 -4.620796 0
M  V30 56 H -0.568313 -6.712730 -4.274903 0
M  V30 57 H -1.680950 -8.919792 -3.875278 0
M  V30 58 H -3.776053 -7.421509 -0.542327 0
M  V30 59 H -2.723962 -5.214011 -0.869081 0
M  V30 60 H -2.543900 -0.417355 0.462979 0
M  V30 61 H -3.299834 1.960226 0.861114 0
M  V30 62 H -3.785798 4.671396 0.285472 0
M  V30 63 H -2.900382 4.665647 -1.286689 0
M  V30 64 H -2.473435 6.859506 -1.016965 0
M  V30 65 H -3.418988 6.884343 0.499471 0
M  V30 66 H -0.478694 6.629938 0.156005 0
M  V30 67 H -2.280741 6.056346 2.450750 0
M  V30 68 H -0.478035 6.363728 2.543518 0
M  V30 69 H 0.105936 4.467316 1.351527 0
M  V30 70 H -1.211325 3.920762 2.440327 0
M  V30 71 H 0.564261 3.375177 -0.453114 0
M  V30 72 H 1.277369 1.034432 -0.832579 0
M  V30 73 H 2.694116 1.532124 1.348620 0
M  V30 74 H 1.857364 2.550027 3.419399 0
M  V30 END ATOM
M  V30 BEGIN BOND
M  V30 1 1 1 2
M  V30 2 1 2 3
M  V30 3 2 3 4
M  V30 4 1 4 5
M  V30 5 1 5 6
M  V30 6 2 6 7
M  V30 7 1 7 8
M  V30 8 2 8 9
M  V30 9 1 9 10
M  V30 10 2 10 11
M  V30 11 1 11 12
M  V30 12 1 12 13
M  V30 13 1 13 14
M  V30 14 2 14 15
M  V30 15 1 14 16
M  V30 16 2 16 17
M  V30 17 1 17 18
M  V30 18 2 18 19
M  V30 19 1 19 20
M  V30 20 2 20 21
M  V30 21 1 21 22
M  V30 22 2 22 23
M  V30 23 1 23 24
M  V30 24 3 24 25
M  V30 25 1 23 26
M  V30 26 2 26 27
M  V30 27 1 19 28
M  V30 28 1 13 29
M  V30 29 2 29 30
M  V30 30 1 30 31
M  V30 31 2 31 32
M  V30 32 1 32 33
M  V30 33 1 33 34
M  V30 34 1 34 35
M  V30 35 1 35 36
M  V30 36 1 36 37
M  V30 37 1 37 38
M  V30 38 1 32 39
M  V30 39 2 39 40
M  V30 40 2 5 41
M  V30 41 1 41 42
M  V30 42 2 42 43
M  V30 43 1 43 3
M  V30 44 1 11 6
M  V30 45 1 28 16
M  V30 46 1 40 29
M  V30 47 1 27 20
M  V30 48 1 38 33
M  V30 49 1 1 44
M  V30 50 1 1 45
M  V30 51 1 1 46
M  V30 52 1 4 47
M  V30 53 1 7 48
M  V30 54 1 8 49
M  V30 55 1 9 50
M  V30 56 1 10 51
M  V30 57 1 12 52
M  V30 58 1 12 53
M  V30 59 1 17 54
M  V30 60 1 18 55
M  V30 61 1 21 56
M  V30 62 1 22 57
M  V30 63 1 26 58
M  V30 64 1 27 59
M  V30 65 1 30 60
M  V30 66 1 31 61
M  V30 67 1 34 62
M  V30 68 1 34 63
M  V30 69 1 35 64
M  V30 70 1 35 65
M  V30 71 1 36 66
M  V30 72 1 37 67
M  V30 73 1 37 68
M  V30 74 1 38 69
M  V30 75 1 38 70
M  V30 76 1 39 71
M  V30 77 1 40 72
M  V30 78 1 41 73
M  V30 79 1 42 74
M  V30 END BOND
M  V30 END CTAB
M  END
>  <Dataset>  (925) 
ChEMBL_Kinases

>  <Ligand_Instance>  (925) 
nan

>  <PDB_ID>  (925) 
nan

>  <Standardized_SMILES>  (925) 
COc1cc(-c2ccccc2CN(C(=O)c2ccc(-c3ccc(C#N)cc3)o2)c2ccc(N3CCNCC3)cc2)ccn1

>  <Name>  (925) 
nan

>  <Pocket>  (925) 
nan

>  <ATP_Site>  (925) 
nan

>  <Peripheral>  (925) 
nan

>  <Num_H_Atoms_ProtBoundConf>  (925) 
nan

>  <Num_Resolved_Atoms>  (925) 
nan

>  <Num_Not_Resolved_Atoms>  (925) 
nan

$$$$
CHEMBL1940653
     RDKit          3D

  0  0  0  0  0  0  0  0  0  0999 V3000
M  V30 BEGIN CTAB
M  V30 COUNTS 74 79 0 0 0
M  V30 BEGIN ATOM
M  V30 1 C 2.043896 -3.269194 7.106722 0
M  V30 2 O 1.280415 -3.441358 5.919607 0
M  V30 3 C 1.686706 -3.072736 4.656117 0
M  V30 4 C 0.673689 -3.410860 3.773975 0
M  V30 5 C 0.745464 -3.177864 2.403803 0
M  V30 6 C 1.855065 -2.583753 1.844825 0
M  V30 7 C 2.159165 -2.229238 0.478317 0
M  V30 8 C 3.356900 -2.607933 -0.075766 0
M  V30 9 C 3.769111 -2.346935 -1.368682 0
M  V30 10 C 2.883349 -1.640276 -2.159486 0
M  V30 11 C 1.672992 -1.247639 -1.627753 0
M  V30 12 C 1.294185 -1.525315 -0.332517 0
M  V30 13 C -0.012600 -1.048531 0.109405 0
M  V30 14 N -0.620813 -0.123136 -0.865209 0
M  V30 15 C -1.453443 -0.665433 -1.920022 0
M  V30 16 O -1.912767 0.220249 -2.681477 0
M  V30 17 C -1.768253 -2.070584 -2.136243 0
M  V30 18 C -2.146059 -2.496447 -3.414276 0
M  V30 19 C -2.377348 -3.848390 -3.314519 0
M  V30 20 C -2.140834 -4.211605 -2.005676 0
M  V30 21 C -2.237173 -5.516761 -1.367351 0
M  V30 22 C -1.960751 -5.629344 -0.022617 0
M  V30 23 C -2.018659 -6.832172 0.680115 0
M  V30 24 C -2.375531 -7.976818 -0.018162 0
M  V30 25 C -2.463050 -9.263254 0.612676 0
M  V30 26 N -2.527318 -10.320997 1.115744 0
M  V30 27 C -2.658933 -7.877987 -1.383248 0
M  V30 28 C -2.588289 -6.654904 -2.044402 0
M  V30 29 O -1.793374 -3.136670 -1.380809 0
M  V30 30 C -0.536560 1.292978 -0.941615 0
M  V30 31 C -1.593136 1.861124 -0.209801 0
M  V30 32 C -1.774935 3.226349 -0.096102 0
M  V30 33 C -0.883579 4.105927 -0.725652 0
M  V30 34 N -0.940710 5.530788 -0.692088 0
M  V30 35 C -0.060112 6.442224 -1.402160 0
M  V30 36 C 0.909585 6.993354 -0.360148 0
M  V30 37 N 0.330713 6.860044 0.953279 0
M  V30 38 C -1.068045 7.154373 1.028014 0
M  V30 39 C -1.911770 6.285086 0.084044 0
M  V30 40 C 0.153308 3.545947 -1.443409 0
M  V30 41 C 0.320504 2.180332 -1.547351 0
M  V30 42 C 2.837426 -2.270557 2.792817 0
M  V30 43 N 2.769323 -2.493122 4.098826 0
M  V30 44 H 3.072998 -3.009947 6.811374 0
M  V30 45 H 1.540936 -2.429426 7.653598 0
M  V30 46 H 2.034671 -4.181345 7.725251 0
M  V30 47 H -0.287123 -3.884796 3.989440 0
M  V30 48 H -0.014368 -3.439101 1.682035 0
M  V30 49 H 4.068127 -3.168188 0.532758 0
M  V30 50 H 4.755145 -2.696932 -1.717691 0
M  V30 51 H 3.205347 -1.431858 -3.180593 0
M  V30 52 H 1.069630 -0.707445 -2.347848 0
M  V30 53 H 0.059136 -0.577817 1.111098 0
M  V30 54 H -0.770864 -1.845432 0.213696 0
M  V30 55 H -2.279789 -2.026629 -4.365846 0
M  V30 56 H -2.688900 -4.631341 -4.014010 0
M  V30 57 H -1.676845 -4.790055 0.598666 0
M  V30 58 H -1.803250 -6.920604 1.727266 0
M  V30 59 H -2.934942 -8.781620 -1.908836 0
M  V30 60 H -2.805182 -6.569400 -3.099516 0
M  V30 61 H -2.361578 1.323945 0.332434 0
M  V30 62 H -2.567673 3.689485 0.450798 0
M  V30 63 H -0.612092 7.325664 -1.799838 0
M  V30 64 H 0.468190 5.988212 -2.251426 0
M  V30 65 H 1.852491 6.391209 -0.332993 0
M  V30 66 H 1.151385 8.054978 -0.561375 0
M  V30 67 H 0.633427 6.014695 1.473629 0
M  V30 68 H -1.389945 6.971742 2.054249 0
M  V30 69 H -1.178186 8.237687 0.776819 0
M  V30 70 H -2.422238 6.985855 -0.620153 0
M  V30 71 H -2.603998 5.687151 0.667802 0
M  V30 72 H 0.928874 4.045090 -1.986172 0
M  V30 73 H 1.093501 1.649307 -2.079510 0
M  V30 74 H 3.781570 -1.797253 2.534616 0
M  V30 END ATOM
M  V30 BEGIN BOND
M  V30 1 1 1 2
M  V30 2 1 2 3
M  V30 3 2 3 4
M  V30 4 1 4 5
M  V30 5 2 5 6
M  V30 6 1 6 7
M  V30 7 2 7 8
M  V30 8 1 8 9
M  V30 9 2 9 10
M  V30 10 1 10 11
M  V30 11 2 11 12
M  V30 12 1 12 13
M  V30 13 1 13 14
M  V30 14 1 14 15
M  V30 15 2 15 16
M  V30 16 1 15 17
M  V30 17 2 17 18
M  V30 18 1 18 19
M  V30 19 2 19 20
M  V30 20 1 20 21
M  V30 21 2 21 22
M  V30 22 1 22 23
M  V30 23 2 23 24
M  V30 24 1 24 25
M  V30 25 3 25 26
M  V30 26 1 24 27
M  V30 27 2 27 28
M  V30 28 1 20 29
M  V30 29 1 14 30
M  V30 30 2 30 31
M  V30 31 1 31 32
M  V30 32 2 32 33
M  V30 33 1 33 34
M  V30 34 1 34 35
M  V30 35 1 35 36
M  V30 36 1 36 37
M  V30 37 1 37 38
M  V30 38 1 38 39
M  V30 39 1 33 40
M  V30 40 2 40 41
M  V30 41 1 6 42
M  V30 42 2 42 43
M  V30 43 1 43 3
M  V30 44 1 12 7
M  V30 45 1 29 17
M  V30 46 1 41 30
M  V30 47 1 28 21
M  V30 48 1 39 34
M  V30 49 1 1 44
M  V30 50 1 1 45
M  V30 51 1 1 46
M  V30 52 1 4 47
M  V30 53 1 5 48
M  V30 54 1 8 49
M  V30 55 1 9 50
M  V30 56 1 10 51
M  V30 57 1 11 52
M  V30 58 1 13 53
M  V30 59 1 13 54
M  V30 60 1 18 55
M  V30 61 1 19 56
M  V30 62 1 22 57
M  V30 63 1 23 58
M  V30 64 1 27 59
M  V30 65 1 28 60
M  V30 66 1 31 61
M  V30 67 1 32 62
M  V30 68 1 35 63
M  V30 69 1 35 64
M  V30 70 1 36 65
M  V30 71 1 36 66
M  V30 72 1 37 67
M  V30 73 1 38 68
M  V30 74 1 38 69
M  V30 75 1 39 70
M  V30 76 1 39 71
M  V30 77 1 40 72
M  V30 78 1 41 73
M  V30 79 1 42 74
M  V30 END BOND
M  V30 END CTAB
M  END
>  <Dataset>  (926) 
ChEMBL_Kinases

>  <Ligand_Instance>  (926) 
nan

>  <PDB_ID>  (926) 
nan

>  <Standardized_SMILES>  (926) 
COc1ccc(-c2ccccc2CN(C(=O)c2ccc(-c3ccc(C#N)cc3)o2)c2ccc(N3CCNCC3)cc2)cn1

>  <Name>  (926) 
nan

>  <Pocket>  (926) 
nan

>  <ATP_Site>  (926) 
nan

>  <Peripheral>  (926) 
nan

>  <Num_H_Atoms_ProtBoundConf>  (926) 
nan

>  <Num_Resolved_Atoms>  (926) 
nan

>  <Num_Not_Resolved_Atoms>  (926) 
nan

$$$$
CHEMBL1940652
     RDKit          3D

  0  0  0  0  0  0  0  0  0  0999 V3000
M  V30 BEGIN CTAB
M  V30 COUNTS 74 79 0 0 0
M  V30 BEGIN ATOM
M  V30 1 C -1.246903 2.685520 -1.285468 0
M  V30 2 O -1.737330 1.662505 -2.088147 0
M  V30 3 C -1.136227 1.115034 -3.201047 0
M  V30 4 C 0.105553 1.693662 -3.496761 0
M  V30 5 C 0.768452 1.185244 -4.607488 0
M  V30 6 N 0.247060 0.192965 -5.356228 0
M  V30 7 C -0.939327 -0.355951 -5.070433 0
M  V30 8 C -1.667456 0.087444 -3.986514 0
M  V30 9 C -2.959518 -0.265864 -3.447673 0
M  V30 10 C -4.000420 0.513179 -3.877494 0
M  V30 11 C -5.278172 0.305420 -3.405361 0
M  V30 12 C -5.447396 -0.713626 -2.492211 0
M  V30 13 C -4.368165 -1.457772 -2.101773 0
M  V30 14 C -3.051860 -1.277720 -2.559239 0
M  V30 15 C -2.093100 -2.230571 -2.015848 0
M  V30 16 N -1.168175 -1.705999 -1.064804 0
M  V30 17 C 0.094204 -1.181367 -1.039451 0
M  V30 18 O 0.211452 -0.807615 0.172248 0
M  V30 19 C 1.324566 -0.852095 -1.672279 0
M  V30 20 C 1.529481 -1.612290 -2.843633 0
M  V30 21 C 2.759516 -1.226640 -3.394972 0
M  V30 22 C 3.200027 -0.261813 -2.512116 0
M  V30 23 C 4.429500 0.508541 -2.556307 0
M  V30 24 C 4.713577 1.474316 -1.618038 0
M  V30 25 C 5.914112 2.198055 -1.644350 0
M  V30 26 C 6.808220 1.903850 -2.655786 0
M  V30 27 C 8.095262 2.584680 -2.784764 0
M  V30 28 N 9.111520 3.131272 -2.868572 0
M  V30 29 C 6.499045 0.915354 -3.605117 0
M  V30 30 C 5.312743 0.210998 -3.566357 0
M  V30 31 O 2.346755 -0.074708 -1.535342 0
M  V30 32 C -1.364016 -1.534660 0.346079 0
M  V30 33 C -1.070476 -2.601845 1.208083 0
M  V30 34 C -1.191458 -2.570551 2.582855 0
M  V30 35 C -1.634199 -1.404551 3.170964 0
M  V30 36 N -1.750701 -1.386655 4.587789 0
M  V30 37 C -1.986995 -2.458663 5.527162 0
M  V30 38 C -0.817717 -2.677353 6.456593 0
M  V30 39 N -0.458447 -1.455391 7.106417 0
M  V30 40 C -0.296351 -0.367030 6.168641 0
M  V30 41 C -1.588785 -0.162656 5.384441 0
M  V30 42 C -1.947734 -0.305301 2.405547 0
M  V30 43 C -1.803394 -0.411498 1.042848 0
M  V30 44 H -0.285160 2.484282 -0.808422 0
M  V30 45 H -1.147576 3.639780 -1.874268 0
M  V30 46 H -1.991076 2.872933 -0.458143 0
M  V30 47 H 0.575318 2.483180 -2.943912 0
M  V30 48 H 1.747059 1.593393 -4.894910 0
M  V30 49 H -1.477433 -1.144294 -5.576806 0
M  V30 50 H -3.870130 1.305609 -4.587831 0
M  V30 51 H -6.101956 0.906331 -3.734596 0
M  V30 52 H -6.446782 -0.876448 -2.124905 0
M  V30 53 H -4.633102 -2.235443 -1.371713 0
M  V30 54 H -2.600361 -3.096098 -1.521259 0
M  V30 55 H -1.502639 -2.627969 -2.899392 0
M  V30 56 H 1.013654 -2.382779 -3.414183 0
M  V30 57 H 3.322403 -1.517018 -4.260573 0
M  V30 58 H 4.027480 1.708867 -0.839301 0
M  V30 59 H 6.156498 2.951872 -0.930707 0
M  V30 60 H 7.202135 0.683853 -4.395347 0
M  V30 61 H 5.124765 -0.535018 -4.310527 0
M  V30 62 H -0.713755 -3.560794 0.810343 0
M  V30 63 H -0.951803 -3.419942 3.198846 0
M  V30 64 H -2.234767 -3.411536 5.000081 0
M  V30 65 H -2.867493 -2.208621 6.148675 0
M  V30 66 H -1.194989 -3.392652 7.235971 0
M  V30 67 H 0.075321 -3.091931 5.954940 0
M  V30 68 H 0.279271 -1.504983 7.812458 0
M  V30 69 H -0.036144 0.536633 6.759174 0
M  V30 70 H 0.529927 -0.622640 5.455615 0
M  V30 71 H -2.413156 -0.026906 6.101345 0
M  V30 72 H -1.447690 0.735808 4.754500 0
M  V30 73 H -2.291059 0.607459 2.824592 0
M  V30 74 H -2.033765 0.431708 0.373517 0
M  V30 END ATOM
M  V30 BEGIN BOND
M  V30 1 1 1 2
M  V30 2 1 2 3
M  V30 3 2 3 4
M  V30 4 1 4 5
M  V30 5 2 5 6
M  V30 6 1 6 7
M  V30 7 2 7 8
M  V30 8 1 8 9
M  V30 9 2 9 10
M  V30 10 1 10 11
M  V30 11 2 11 12
M  V30 12 1 12 13
M  V30 13 2 13 14
M  V30 14 1 14 15
M  V30 15 1 15 16
M  V30 16 1 16 17
M  V30 17 2 17 18
M  V30 18 1 17 19
M  V30 19 2 19 20
M  V30 20 1 20 21
M  V30 21 2 21 22
M  V30 22 1 22 23
M  V30 23 2 23 24
M  V30 24 1 24 25
M  V30 25 2 25 26
M  V30 26 1 26 27
M  V30 27 3 27 28
M  V30 28 1 26 29
M  V30 29 2 29 30
M  V30 30 1 22 31
M  V30 31 1 16 32
M  V30 32 2 32 33
M  V30 33 1 33 34
M  V30 34 2 34 35
M  V30 35 1 35 36
M  V30 36 1 36 37
M  V30 37 1 37 38
M  V30 38 1 38 39
M  V30 39 1 39 40
M  V30 40 1 40 41
M  V30 41 1 35 42
M  V30 42 2 42 43
M  V30 43 1 8 3
M  V30 44 1 14 9
M  V30 45 1 31 19
M  V30 46 1 43 32
M  V30 47 1 30 23
M  V30 48 1 41 36
M  V30 49 1 1 44
M  V30 50 1 1 45
M  V30 51 1 1 46
M  V30 52 1 4 47
M  V30 53 1 5 48
M  V30 54 1 7 49
M  V30 55 1 10 50
M  V30 56 1 11 51
M  V30 57 1 12 52
M  V30 58 1 13 53
M  V30 59 1 15 54
M  V30 60 1 15 55
M  V30 61 1 20 56
M  V30 62 1 21 57
M  V30 63 1 24 58
M  V30 64 1 25 59
M  V30 65 1 29 60
M  V30 66 1 30 61
M  V30 67 1 33 62
M  V30 68 1 34 63
M  V30 69 1 37 64
M  V30 70 1 37 65
M  V30 71 1 38 66
M  V30 72 1 38 67
M  V30 73 1 39 68
M  V30 74 1 40 69
M  V30 75 1 40 70
M  V30 76 1 41 71
M  V30 77 1 41 72
M  V30 78 1 42 73
M  V30 79 1 43 74
M  V30 END BOND
M  V30 END CTAB
M  END
>  <Dataset>  (927) 
ChEMBL_Kinases

>  <Ligand_Instance>  (927) 
nan

>  <PDB_ID>  (927) 
nan

>  <Standardized_SMILES>  (927) 
COc1ccncc1-c1ccccc1CN(C(=O)c1ccc(-c2ccc(C#N)cc2)o1)c1ccc(N2CCNCC2)cc1

>  <Name>  (927) 
nan

>  <Pocket>  (927) 
nan

>  <ATP_Site>  (927) 
nan

>  <Peripheral>  (927) 
nan

>  <Num_H_Atoms_ProtBoundConf>  (927) 
nan

>  <Num_Resolved_Atoms>  (927) 
nan

>  <Num_Not_Resolved_Atoms>  (927) 
nan

$$$$
CHEMBL1940651
     RDKit          3D

  0  0  0  0  0  0  0  0  0  0999 V3000
M  V30 BEGIN CTAB
M  V30 COUNTS 74 79 0 0 0
M  V30 BEGIN ATOM
M  V30 1 C 2.725304 3.751952 4.369977 0
M  V30 2 O 2.545564 3.840622 2.974414 0
M  V30 3 C 2.898123 2.786266 2.146070 0
M  V30 4 C 3.438894 1.615278 2.641059 0
M  V30 5 N 3.764751 0.614964 1.778817 0
M  V30 6 C 3.530918 0.841343 0.466787 0
M  V30 7 C 2.985505 2.006124 -0.102227 0
M  V30 8 C 2.891776 1.939848 -1.544199 0
M  V30 9 C 4.085510 1.686761 -2.159202 0
M  V30 10 C 4.177659 1.677347 -3.533704 0
M  V30 11 C 3.010323 1.935293 -4.233298 0
M  V30 12 C 1.848406 2.178374 -3.530874 0
M  V30 13 C 1.687637 2.200566 -2.131260 0
M  V30 14 C 0.313283 2.451786 -1.699313 0
M  V30 15 N -0.526519 1.348414 -1.370565 0
M  V30 16 C -1.184010 0.873700 -2.563933 0
M  V30 17 O -1.212467 1.408421 -3.690546 0
M  V30 18 C -1.998755 -0.290894 -2.965511 0
M  V30 19 C -3.152010 -0.738211 -3.546620 0
M  V30 20 C -3.134732 -2.128472 -3.515144 0
M  V30 21 C -1.953237 -2.475766 -2.907081 0
M  V30 22 C -1.572125 -3.863812 -2.693403 0
M  V30 23 C -0.359978 -4.008036 -2.054454 0
M  V30 24 C 0.133518 -5.284947 -1.787133 0
M  V30 25 C -0.641271 -6.368428 -2.190148 0
M  V30 26 C -0.232503 -7.737500 -1.974637 0
M  V30 27 N 0.114005 -8.837245 -1.811158 0
M  V30 28 C -1.850557 -6.204970 -2.825053 0
M  V30 29 C -2.339457 -4.927062 -3.091163 0
M  V30 30 O -1.308941 -1.372022 -2.594761 0
M  V30 31 C -0.877883 0.662254 -0.184303 0
M  V30 32 C -0.221370 0.524287 1.004569 0
M  V30 33 C -0.617531 -0.081291 2.162877 0
M  V30 34 C -1.868509 -0.649463 2.160574 0
M  V30 35 N -2.360789 -1.288535 3.324885 0
M  V30 36 C -1.987229 -1.196118 4.689069 0
M  V30 37 C -1.313881 -2.453288 5.180380 0
M  V30 38 N -2.024513 -3.580411 4.678628 0
M  V30 39 C -3.348373 -3.348453 4.220786 0
M  V30 40 C -3.447596 -2.256892 3.186980 0
M  V30 41 C -2.644491 -0.581582 1.014375 0
M  V30 42 C -2.138934 0.057229 -0.095894 0
M  V30 43 C 2.661625 3.014710 0.808961 0
M  V30 44 H 3.772988 3.939888 4.683551 0
M  V30 45 H 2.040806 4.475233 4.888442 0
M  V30 46 H 2.418551 2.745638 4.762456 0
M  V30 47 H 3.608133 1.484940 3.700347 0
M  V30 48 H 3.831853 -0.020600 -0.117988 0
M  V30 49 H 4.987692 1.485321 -1.588538 0
M  V30 50 H 5.134616 1.472920 -3.984278 0
M  V30 51 H 3.172601 1.908089 -5.296463 0
M  V30 52 H 1.109472 2.363875 -4.326400 0
M  V30 53 H -0.203003 3.101357 -2.454143 0
M  V30 54 H 0.330861 3.074154 -0.726471 0
M  V30 55 H -3.753674 0.091559 -3.872461 0
M  V30 56 H -3.984345 -2.639151 -3.939692 0
M  V30 57 H 0.302252 -3.233749 -1.705467 0
M  V30 58 H 1.080867 -5.512688 -1.285822 0
M  V30 59 H -2.514664 -6.999034 -3.171391 0
M  V30 60 H -3.279700 -4.666343 -3.578326 0
M  V30 61 H 0.737127 0.959636 1.022833 0
M  V30 62 H 0.013698 -0.100955 3.030350 0
M  V30 63 H -1.297904 -0.362995 4.925876 0
M  V30 64 H -2.884878 -1.058020 5.366447 0
M  V30 65 H -0.231465 -2.411218 4.919360 0
M  V30 66 H -1.396434 -2.488472 6.306475 0
M  V30 67 H -1.412442 -4.083218 3.998524 0
M  V30 68 H -3.660441 -4.292460 3.682926 0
M  V30 69 H -4.095121 -3.192150 4.997454 0
M  V30 70 H -4.452971 -1.804861 3.271617 0
M  V30 71 H -3.387400 -2.685865 2.144327 0
M  V30 72 H -3.631245 -1.039116 1.059728 0
M  V30 73 H -2.868257 0.052684 -0.866012 0
M  V30 74 H 2.253494 3.878256 0.330579 0
M  V30 END ATOM
M  V30 BEGIN BOND
M  V30 1 1 1 2
M  V30 2 1 2 3
M  V30 3 2 3 4
M  V30 4 1 4 5
M  V30 5 2 5 6
M  V30 6 1 6 7
M  V30 7 1 7 8
M  V30 8 2 8 9
M  V30 9 1 9 10
M  V30 10 2 10 11
M  V30 11 1 11 12
M  V30 12 2 12 13
M  V30 13 1 13 14
M  V30 14 1 14 15
M  V30 15 1 15 16
M  V30 16 2 16 17
M  V30 17 1 16 18
M  V30 18 2 18 19
M  V30 19 1 19 20
M  V30 20 2 20 21
M  V30 21 1 21 22
M  V30 22 2 22 23
M  V30 23 1 23 24
M  V30 24 2 24 25
M  V30 25 1 25 26
M  V30 26 3 26 27
M  V30 27 1 25 28
M  V30 28 2 28 29
M  V30 29 1 21 30
M  V30 30 1 15 31
M  V30 31 2 31 32
M  V30 32 1 32 33
M  V30 33 2 33 34
M  V30 34 1 34 35
M  V30 35 1 35 36
M  V30 36 1 36 37
M  V30 37 1 37 38
M  V30 38 1 38 39
M  V30 39 1 39 40
M  V30 40 1 34 41
M  V30 41 2 41 42
M  V30 42 2 7 43
M  V30 43 1 43 3
M  V30 44 1 13 8
M  V30 45 1 30 18
M  V30 46 1 42 31
M  V30 47 1 29 22
M  V30 48 1 40 35
M  V30 49 1 1 44
M  V30 50 1 1 45
M  V30 51 1 1 46
M  V30 52 1 4 47
M  V30 53 1 6 48
M  V30 54 1 9 49
M  V30 55 1 10 50
M  V30 56 1 11 51
M  V30 57 1 12 52
M  V30 58 1 14 53
M  V30 59 1 14 54
M  V30 60 1 19 55
M  V30 61 1 20 56
M  V30 62 1 23 57
M  V30 63 1 24 58
M  V30 64 1 28 59
M  V30 65 1 29 60
M  V30 66 1 32 61
M  V30 67 1 33 62
M  V30 68 1 36 63
M  V30 69 1 36 64
M  V30 70 1 37 65
M  V30 71 1 37 66
M  V30 72 1 38 67
M  V30 73 1 39 68
M  V30 74 1 39 69
M  V30 75 1 40 70
M  V30 76 1 40 71
M  V30 77 1 41 72
M  V30 78 1 42 73
M  V30 79 1 43 74
M  V30 END BOND
M  V30 END CTAB
M  END
>  <Dataset>  (928) 
ChEMBL_Kinases

>  <Ligand_Instance>  (928) 
nan

>  <PDB_ID>  (928) 
nan

>  <Standardized_SMILES>  (928) 
COc1cncc(-c2ccccc2CN(C(=O)c2ccc(-c3ccc(C#N)cc3)o2)c2ccc(N3CCNCC3)cc2)c1

>  <Name>  (928) 
nan

>  <Pocket>  (928) 
nan

>  <ATP_Site>  (928) 
nan

>  <Peripheral>  (928) 
nan

>  <Num_H_Atoms_ProtBoundConf>  (928) 
nan

>  <Num_Resolved_Atoms>  (928) 
nan

>  <Num_Not_Resolved_Atoms>  (928) 
nan

$$$$
CHEMBL1940650
     RDKit          3D

  0  0  0  0  0  0  0  0  0  0999 V3000
M  V30 BEGIN CTAB
M  V30 COUNTS 69 74 0 0 0
M  V30 BEGIN ATOM
M  V30 1 N 9.344471 -3.020147 -0.163797 0
M  V30 2 C 8.353781 -2.449898 0.132524 0
M  V30 3 C 7.156329 -1.746573 0.485439 0
M  V30 4 C 6.158512 -2.495451 1.131059 0
M  V30 5 C 4.968128 -1.865711 1.500078 0
M  V30 6 C 4.788643 -0.514944 1.224854 0
M  V30 7 C 3.519137 0.089884 1.634417 0
M  V30 8 C 3.055681 1.376448 1.517538 0
M  V30 9 C 1.789719 1.429389 2.062991 0
M  V30 10 C 1.524292 0.142669 2.501262 0
M  V30 11 C 0.321353 -0.350415 3.153109 0
M  V30 12 O 0.628035 -0.709407 4.322163 0
M  V30 13 N -1.026290 -0.457098 2.651203 0
M  V30 14 C -2.020957 -1.017380 3.576132 0
M  V30 15 C -2.126614 -2.470863 3.450488 0
M  V30 16 C -1.429543 -3.276621 4.333683 0
M  V30 17 C -1.435541 -4.666617 4.255927 0
M  V30 18 C -2.160976 -5.275296 3.263867 0
M  V30 19 C -2.858195 -4.479712 2.381269 0
M  V30 20 C -2.844192 -3.082455 2.471562 0
M  V30 21 C -3.688707 -2.432712 1.492389 0
M  V30 22 C -4.712358 -1.622276 1.972964 0
M  V30 23 N -5.561026 -0.953588 1.153354 0
M  V30 24 C -5.427959 -1.063532 -0.189692 0
M  V30 25 N -4.462426 -1.829656 -0.720965 0
M  V30 26 C -3.627588 -2.486773 0.099773 0
M  V30 27 C -1.048414 0.037139 1.320339 0
M  V30 28 C -1.351610 1.351735 1.048195 0
M  V30 29 C -1.370057 1.852359 -0.230498 0
M  V30 30 C -1.081238 1.042672 -1.300855 0
M  V30 31 N -1.074936 1.444576 -2.681827 0
M  V30 32 C -0.717027 0.673397 -3.848226 0
M  V30 33 C -1.843780 0.521326 -4.839546 0
M  V30 34 N -2.924462 1.445157 -4.618158 0
M  V30 35 C -2.528479 2.742290 -4.203316 0
M  V30 36 C -1.458433 2.770924 -3.143903 0
M  V30 37 C -0.772063 -0.280653 -1.071224 0
M  V30 38 C -0.759543 -0.766119 0.234299 0
M  V30 39 O 2.565792 -0.591582 2.225470 0
M  V30 40 C 5.760493 0.225074 0.592631 0
M  V30 41 C 6.953222 -0.406107 0.223130 0
M  V30 42 H 6.284697 -3.546622 1.353233 0
M  V30 43 H 4.226062 -2.486417 1.996816 0
M  V30 44 H 3.620184 2.177499 1.068476 0
M  V30 45 H 1.147528 2.292003 2.134344 0
M  V30 46 H -2.965454 -0.457998 3.446972 0
M  V30 47 H -1.638486 -0.765129 4.605667 0
M  V30 48 H -0.821686 -2.889168 5.158913 0
M  V30 49 H -0.883896 -5.295360 4.956312 0
M  V30 50 H -2.159467 -6.338194 3.211915 0
M  V30 51 H -3.420084 -5.024829 1.609721 0
M  V30 52 H -4.997649 -1.418849 2.998214 0
M  V30 53 H -6.049302 -0.574459 -0.933631 0
M  V30 54 H -2.815736 -3.129126 -0.264453 0
M  V30 55 H -1.593814 2.066361 1.840408 0
M  V30 56 H -1.607488 2.874459 -0.420028 0
M  V30 57 H -0.288114 -0.326725 -3.615889 0
M  V30 58 H 0.120010 1.237232 -4.358392 0
M  V30 59 H -1.466984 0.618835 -5.878432 0
M  V30 60 H -2.262298 -0.505814 -4.735752 0
M  V30 61 H -3.767217 1.042026 -4.160779 0
M  V30 62 H -3.435034 3.276809 -3.841593 0
M  V30 63 H -2.225124 3.306003 -5.128454 0
M  V30 64 H -0.540213 3.208488 -3.637291 0
M  V30 65 H -1.748217 3.459669 -2.343526 0
M  V30 66 H -0.523689 -1.058838 -1.763902 0
M  V30 67 H -0.525147 -1.806606 0.508771 0
M  V30 68 H 5.623122 1.287373 0.373776 0
M  V30 69 H 7.747157 0.138153 -0.277192 0
M  V30 END ATOM
M  V30 BEGIN BOND
M  V30 1 3 1 2
M  V30 2 1 2 3
M  V30 3 2 3 4
M  V30 4 1 4 5
M  V30 5 2 5 6
M  V30 6 1 6 7
M  V30 7 2 7 8
M  V30 8 1 8 9
M  V30 9 2 9 10
M  V30 10 1 10 11
M  V30 11 2 11 12
M  V30 12 1 11 13
M  V30 13 1 13 14
M  V30 14 1 14 15
M  V30 15 2 15 16
M  V30 16 1 16 17
M  V30 17 2 17 18
M  V30 18 1 18 19
M  V30 19 2 19 20
M  V30 20 1 20 21
M  V30 21 2 21 22
M  V30 22 1 22 23
M  V30 23 2 23 24
M  V30 24 1 24 25
M  V30 25 2 25 26
M  V30 26 1 13 27
M  V30 27 2 27 28
M  V30 28 1 28 29
M  V30 29 2 29 30
M  V30 30 1 30 31
M  V30 31 1 31 32
M  V30 32 1 32 33
M  V30 33 1 33 34
M  V30 34 1 34 35
M  V30 35 1 35 36
M  V30 36 1 30 37
M  V30 37 2 37 38
M  V30 38 1 10 39
M  V30 39 1 6 40
M  V30 40 2 40 41
M  V30 41 1 41 3
M  V30 42 1 39 7
M  V30 43 1 20 15
M  V30 44 1 26 21
M  V30 45 1 38 27
M  V30 46 1 36 31
M  V30 47 1 4 42
M  V30 48 1 5 43
M  V30 49 1 8 44
M  V30 50 1 9 45
M  V30 51 1 14 46
M  V30 52 1 14 47
M  V30 53 1 16 48
M  V30 54 1 17 49
M  V30 55 1 18 50
M  V30 56 1 19 51
M  V30 57 1 22 52
M  V30 58 1 24 53
M  V30 59 1 26 54
M  V30 60 1 28 55
M  V30 61 1 29 56
M  V30 62 1 32 57
M  V30 63 1 32 58
M  V30 64 1 33 59
M  V30 65 1 33 60
M  V30 66 1 34 61
M  V30 67 1 35 62
M  V30 68 1 35 63
M  V30 69 1 36 64
M  V30 70 1 36 65
M  V30 71 1 37 66
M  V30 72 1 38 67
M  V30 73 1 40 68
M  V30 74 1 41 69
M  V30 END BOND
M  V30 END CTAB
M  END
>  <Dataset>  (929) 
ChEMBL_Kinases

>  <Ligand_Instance>  (929) 
nan

>  <PDB_ID>  (929) 
nan

>  <Standardized_SMILES>  (929) 
N#Cc1ccc(-c2ccc(C(=O)N(Cc3ccccc3-c3cncnc3)c3ccc(N4CCNCC4)cc3)o2)cc1

>  <Name>  (929) 
nan

>  <Pocket>  (929) 
nan

>  <ATP_Site>  (929) 
nan

>  <Peripheral>  (929) 
nan

>  <Num_H_Atoms_ProtBoundConf>  (929) 
nan

>  <Num_Resolved_Atoms>  (929) 
nan

>  <Num_Not_Resolved_Atoms>  (929) 
nan

$$$$
CHEMBL1940649
     RDKit          3D

  0  0  0  0  0  0  0  0  0  0999 V3000
M  V30 BEGIN CTAB
M  V30 COUNTS 70 75 0 0 0
M  V30 BEGIN ATOM
M  V30 1 N 3.805793 0.090736 7.757877 0
M  V30 2 C 3.849623 0.070432 6.561634 0
M  V30 3 C 3.920202 0.028980 5.148769 0
M  V30 4 C 2.780342 -0.344155 4.505680 0
M  V30 5 C 2.681518 -0.532331 3.150729 0
M  V30 6 C 3.833718 -0.316921 2.452518 0
M  V30 7 C 3.781285 -0.598088 1.044247 0
M  V30 8 C 4.674634 -0.460849 -0.082616 0
M  V30 9 C 4.003679 -0.939957 -1.263596 0
M  V30 10 C 2.690647 -1.363070 -0.795734 0
M  V30 11 C 1.922148 -1.868543 -1.911906 0
M  V30 12 O 2.481553 -2.581115 -2.784034 0
M  V30 13 N 0.500114 -1.589403 -2.090868 0
M  V30 14 C -0.146102 -2.130282 -3.263876 0
M  V30 15 C -0.744597 -3.449209 -3.153941 0
M  V30 16 C 0.047512 -4.491797 -3.567655 0
M  V30 17 C -0.463857 -5.792050 -3.479403 0
M  V30 18 C -1.717491 -6.055372 -2.996840 0
M  V30 19 C -2.509020 -5.009326 -2.585065 0
M  V30 20 C -2.003222 -3.704481 -2.672508 0
M  V30 21 C -2.944339 -2.697653 -2.319461 0
M  V30 22 C -4.338120 -2.955443 -2.494503 0
M  V30 23 C -5.362484 -2.004885 -2.242232 0
M  V30 24 C -4.711969 -0.808644 -1.800026 0
M  V30 25 C -3.315324 -0.426340 -1.580436 0
M  V30 26 N -3.251726 -1.564704 -1.958700 0
M  V30 27 C -0.005846 -0.769537 -1.026206 0
M  V30 28 C -0.589900 -1.285680 0.141013 0
M  V30 29 C -1.061627 -0.450914 1.172622 0
M  V30 30 C -0.916223 0.960958 0.976994 0
M  V30 31 N -1.356447 1.892403 1.944007 0
M  V30 32 C -2.197397 1.612589 3.081845 0
M  V30 33 C -3.287512 2.630420 3.219936 0
M  V30 34 N -2.801401 3.983927 3.173232 0
M  V30 35 C -1.401103 4.095400 2.954853 0
M  V30 36 C -0.914096 3.266047 1.782053 0
M  V30 37 C -0.344758 1.295978 -0.177127 0
M  V30 38 C 0.146643 0.599786 -1.241943 0
M  V30 39 O 3.191763 -0.995476 0.136535 0
M  V30 40 C 5.110951 0.080331 2.950044 0
M  V30 41 C 4.964905 0.206889 4.330412 0
M  V30 42 H 1.840367 -0.518549 5.058673 0
M  V30 43 H 1.780274 -0.825852 2.656347 0
M  V30 44 H 5.715175 -0.031693 0.059808 0
M  V30 45 H 4.653679 -0.858416 -2.187305 0
M  V30 46 H -0.890695 -1.340125 -3.560486 0
M  V30 47 H 0.563913 -2.124824 -4.141335 0
M  V30 48 H 1.036026 -4.506609 -3.975483 0
M  V30 49 H 0.110247 -6.673326 -3.791634 0
M  V30 50 H -2.073546 -7.082528 -2.945364 0
M  V30 51 H -3.475428 -5.305414 -2.216094 0
M  V30 52 H -4.757839 -3.938673 -2.855729 0
M  V30 53 H -6.424750 -2.283111 -2.403789 0
M  V30 54 H -5.702239 -0.189905 -1.656440 0
M  V30 55 H -3.699463 0.561040 -1.226009 0
M  V30 56 H -0.674041 -2.383630 0.238920 0
M  V30 57 H -1.507910 -0.829431 2.056345 0
M  V30 58 H -1.538628 1.712678 3.975815 0
M  V30 59 H -2.645144 0.597818 3.077565 0
M  V30 60 H -3.783654 2.455352 4.221171 0
M  V30 61 H -4.111632 2.524322 2.495427 0
M  V30 62 H -3.391087 4.622645 2.593493 0
M  V30 63 H -1.142545 5.157170 2.737361 0
M  V30 64 H -0.849854 3.827507 3.887636 0
M  V30 65 H -1.203231 3.737808 0.844671 0
M  V30 66 H 0.214979 3.293794 1.827531 0
M  V30 67 H -0.235927 2.387498 -0.312811 0
M  V30 68 H 0.583660 0.986060 -2.119575 0
M  V30 69 H 6.008600 0.251734 2.414761 0
M  V30 70 H 5.879996 0.513686 4.868712 0
M  V30 END ATOM
M  V30 BEGIN BOND
M  V30 1 3 1 2
M  V30 2 1 2 3
M  V30 3 2 3 4
M  V30 4 1 4 5
M  V30 5 2 5 6
M  V30 6 1 6 7
M  V30 7 2 7 8
M  V30 8 1 8 9
M  V30 9 2 9 10
M  V30 10 1 10 11
M  V30 11 2 11 12
M  V30 12 1 11 13
M  V30 13 1 13 14
M  V30 14 1 14 15
M  V30 15 2 15 16
M  V30 16 1 16 17
M  V30 17 2 17 18
M  V30 18 1 18 19
M  V30 19 2 19 20
M  V30 20 1 20 21
M  V30 21 2 21 22
M  V30 22 1 22 23
M  V30 23 2 23 24
M  V30 24 1 24 25
M  V30 25 2 25 26
M  V30 26 1 13 27
M  V30 27 2 27 28
M  V30 28 1 28 29
M  V30 29 2 29 30
M  V30 30 1 30 31
M  V30 31 1 31 32
M  V30 32 1 32 33
M  V30 33 1 33 34
M  V30 34 1 34 35
M  V30 35 1 35 36
M  V30 36 1 30 37
M  V30 37 2 37 38
M  V30 38 1 10 39
M  V30 39 1 6 40
M  V30 40 2 40 41
M  V30 41 1 41 3
M  V30 42 1 39 7
M  V30 43 1 20 15
M  V30 44 1 26 21
M  V30 45 1 38 27
M  V30 46 1 36 31
M  V30 47 1 4 42
M  V30 48 1 5 43
M  V30 49 1 8 44
M  V30 50 1 9 45
M  V30 51 1 14 46
M  V30 52 1 14 47
M  V30 53 1 16 48
M  V30 54 1 17 49
M  V30 55 1 18 50
M  V30 56 1 19 51
M  V30 57 1 22 52
M  V30 58 1 23 53
M  V30 59 1 24 54
M  V30 60 1 25 55
M  V30 61 1 28 56
M  V30 62 1 29 57
M  V30 63 1 32 58
M  V30 64 1 32 59
M  V30 65 1 33 60
M  V30 66 1 33 61
M  V30 67 1 34 62
M  V30 68 1 35 63
M  V30 69 1 35 64
M  V30 70 1 36 65
M  V30 71 1 36 66
M  V30 72 1 37 67
M  V30 73 1 38 68
M  V30 74 1 40 69
M  V30 75 1 41 70
M  V30 END BOND
M  V30 END CTAB
M  END
>  <Dataset>  (930) 
ChEMBL_Kinases

>  <Ligand_Instance>  (930) 
nan

>  <PDB_ID>  (930) 
nan

>  <Standardized_SMILES>  (930) 
N#Cc1ccc(-c2ccc(C(=O)N(Cc3ccccc3-c3ccccn3)c3ccc(N4CCNCC4)cc3)o2)cc1

>  <Name>  (930) 
nan

>  <Pocket>  (930) 
nan

>  <ATP_Site>  (930) 
nan

>  <Peripheral>  (930) 
nan

>  <Num_H_Atoms_ProtBoundConf>  (930) 
nan

>  <Num_Resolved_Atoms>  (930) 
nan

>  <Num_Not_Resolved_Atoms>  (930) 
nan

$$$$
CHEMBL1940648
     RDKit          3D

  0  0  0  0  0  0  0  0  0  0999 V3000
M  V30 BEGIN CTAB
M  V30 COUNTS 70 75 0 0 0
M  V30 BEGIN ATOM
M  V30 1 N 7.496520 -0.980381 5.551471 0
M  V30 2 C 6.845547 -0.806503 4.619078 0
M  V30 3 C 6.034079 -0.574281 3.479628 0
M  V30 4 C 5.232730 -1.609104 3.028434 0
M  V30 5 C 4.447359 -1.360866 1.914078 0
M  V30 6 C 4.456509 -0.140748 1.275711 0
M  V30 7 C 3.602006 0.060977 0.100447 0
M  V30 8 C 3.537817 1.248634 -0.614113 0
M  V30 9 C 2.605907 0.924681 -1.605131 0
M  V30 10 C 2.174513 -0.389841 -1.441815 0
M  V30 11 C 1.196149 -0.947838 -2.365285 0
M  V30 12 O 1.910897 -1.476642 -3.266216 0
M  V30 13 N -0.248207 -0.964333 -2.370931 0
M  V30 14 C -0.845063 -1.625084 -3.514048 0
M  V30 15 C -1.083289 -3.064917 -3.328442 0
M  V30 16 C -0.231787 -4.034826 -3.872258 0
M  V30 17 C -0.350891 -5.396424 -3.744083 0
M  V30 18 C -1.415175 -5.867347 -3.005797 0
M  V30 19 C -2.281063 -4.948833 -2.450892 0
M  V30 20 C -2.134077 -3.563337 -2.599282 0
M  V30 21 C -3.174753 -2.789998 -1.953911 0
M  V30 22 C -3.343491 -3.112528 -0.596758 0
M  V30 23 C -4.292075 -2.512379 0.216150 0
M  V30 24 C -5.124448 -1.546945 -0.310066 0
M  V30 25 N -4.951535 -1.255166 -1.593065 0
M  V30 26 C -4.050651 -1.818425 -2.384747 0
M  V30 27 C -0.646472 -0.286460 -1.203206 0
M  V30 28 C -0.808238 -0.973310 -0.019882 0
M  V30 29 C -1.193425 -0.433973 1.190074 0
M  V30 30 C -1.427273 0.923770 1.162850 0
M  V30 31 N -1.830868 1.563807 2.367032 0
M  V30 32 C -2.065952 0.923635 3.626728 0
M  V30 33 C -3.249101 1.592823 4.296091 0
M  V30 34 N -2.949049 2.958525 4.675200 0
M  V30 35 C -1.973930 3.562924 3.790400 0
M  V30 36 C -2.043318 3.015429 2.394933 0
M  V30 37 C -1.286074 1.677072 0.016932 0
M  V30 38 C -0.893741 1.070410 -1.173056 0
M  V30 39 O 2.813783 -0.865849 -0.389083 0
M  V30 40 C 5.268264 0.866394 1.754455 0
M  V30 41 C 6.065821 0.647584 2.868557 0
M  V30 42 H 5.236834 -2.552967 3.536449 0
M  V30 43 H 3.810365 -2.164494 1.545048 0
M  V30 44 H 4.075975 2.167112 -0.432296 0
M  V30 45 H 2.305345 1.655268 -2.371479 0
M  V30 46 H -1.730813 -1.062438 -3.889274 0
M  V30 47 H -0.129528 -1.560461 -4.391253 0
M  V30 48 H 0.613638 -3.647414 -4.459376 0
M  V30 49 H 0.363275 -6.044235 -4.205999 0
M  V30 50 H -1.555645 -6.930126 -2.872896 0
M  V30 51 H -3.107236 -5.394746 -1.874885 0
M  V30 52 H -2.742101 -3.856731 -0.085801 0
M  V30 53 H -4.404934 -2.775661 1.258154 0
M  V30 54 H -5.894586 -1.017915 0.232677 0
M  V30 55 H -3.930677 -1.581674 -3.430567 0
M  V30 56 H -0.609831 -2.053701 -0.049765 0
M  V30 57 H -1.286415 -1.075167 2.054613 0
M  V30 58 H -1.188735 1.030508 4.280372 0
M  V30 59 H -2.367052 -0.139246 3.493643 0
M  V30 60 H -3.460813 1.025215 5.213198 0
M  V30 61 H -4.131507 1.610981 3.651127 0
M  V30 62 H -3.795622 3.525297 4.798293 0
M  V30 63 H -2.188380 4.637969 3.731743 0
M  V30 64 H -0.985953 3.426333 4.250209 0
M  V30 65 H -2.963515 3.328590 1.901895 0
M  V30 66 H -1.201720 3.496040 1.829935 0
M  V30 67 H -1.458018 2.726532 -0.040981 0
M  V30 68 H -0.773779 1.624724 -2.083181 0
M  V30 69 H 5.285053 1.827213 1.263424 0
M  V30 70 H 6.704193 1.450543 3.239298 0
M  V30 END ATOM
M  V30 BEGIN BOND
M  V30 1 3 1 2
M  V30 2 1 2 3
M  V30 3 2 3 4
M  V30 4 1 4 5
M  V30 5 2 5 6
M  V30 6 1 6 7
M  V30 7 2 7 8
M  V30 8 1 8 9
M  V30 9 2 9 10
M  V30 10 1 10 11
M  V30 11 2 11 12
M  V30 12 1 11 13
M  V30 13 1 13 14
M  V30 14 1 14 15
M  V30 15 2 15 16
M  V30 16 1 16 17
M  V30 17 2 17 18
M  V30 18 1 18 19
M  V30 19 2 19 20
M  V30 20 1 20 21
M  V30 21 2 21 22
M  V30 22 1 22 23
M  V30 23 2 23 24
M  V30 24 1 24 25
M  V30 25 2 25 26
M  V30 26 1 13 27
M  V30 27 2 27 28
M  V30 28 1 28 29
M  V30 29 2 29 30
M  V30 30 1 30 31
M  V30 31 1 31 32
M  V30 32 1 32 33
M  V30 33 1 33 34
M  V30 34 1 34 35
M  V30 35 1 35 36
M  V30 36 1 30 37
M  V30 37 2 37 38
M  V30 38 1 10 39
M  V30 39 1 6 40
M  V30 40 2 40 41
M  V30 41 1 41 3
M  V30 42 1 39 7
M  V30 43 1 20 15
M  V30 44 1 26 21
M  V30 45 1 38 27
M  V30 46 1 36 31
M  V30 47 1 4 42
M  V30 48 1 5 43
M  V30 49 1 8 44
M  V30 50 1 9 45
M  V30 51 1 14 46
M  V30 52 1 14 47
M  V30 53 1 16 48
M  V30 54 1 17 49
M  V30 55 1 18 50
M  V30 56 1 19 51
M  V30 57 1 22 52
M  V30 58 1 23 53
M  V30 59 1 24 54
M  V30 60 1 26 55
M  V30 61 1 28 56
M  V30 62 1 29 57
M  V30 63 1 32 58
M  V30 64 1 32 59
M  V30 65 1 33 60
M  V30 66 1 33 61
M  V30 67 1 34 62
M  V30 68 1 35 63
M  V30 69 1 35 64
M  V30 70 1 36 65
M  V30 71 1 36 66
M  V30 72 1 37 67
M  V30 73 1 38 68
M  V30 74 1 40 69
M  V30 75 1 41 70
M  V30 END BOND
M  V30 END CTAB
M  END
>  <Dataset>  (931) 
ChEMBL_Kinases

>  <Ligand_Instance>  (931) 
nan

>  <PDB_ID>  (931) 
nan

>  <Standardized_SMILES>  (931) 
N#Cc1ccc(-c2ccc(C(=O)N(Cc3ccccc3-c3cccnc3)c3ccc(N4CCNCC4)cc3)o2)cc1

>  <Name>  (931) 
nan

>  <Pocket>  (931) 
nan

>  <ATP_Site>  (931) 
nan

>  <Peripheral>  (931) 
nan

>  <Num_H_Atoms_ProtBoundConf>  (931) 
nan

>  <Num_Resolved_Atoms>  (931) 
nan

>  <Num_Not_Resolved_Atoms>  (931) 
nan

$$$$
CHEMBL3679510
     RDKit          3D

  0  0  0  0  0  0  0  0  0  0999 V3000
M  V30 BEGIN CTAB
M  V30 COUNTS 56 60 0 0 0
M  V30 BEGIN ATOM
M  V30 1 O -1.583924 -2.002702 2.271362 0
M  V30 2 C -0.649556 -2.441299 1.606174 0
M  V30 3 N 0.619854 -2.362881 2.163212 0
M  V30 4 C 1.330039 -1.923276 3.330294 0
M  V30 5 C 1.149064 -0.460094 3.511560 0
M  V30 6 C 2.146873 0.341538 2.939567 0
M  V30 7 N 2.201606 1.681918 2.926022 0
M  V30 8 C 3.262950 2.400123 2.314272 0
M  V30 9 C 3.346594 2.218192 0.932676 0
M  V30 10 C 4.336047 2.861121 0.200201 0
M  V30 11 C 5.187831 3.658785 0.933138 0
M  V30 12 C 5.155411 3.878306 2.299606 0
M  V30 13 C 4.146789 3.212822 2.989865 0
M  V30 14 C 1.207267 2.378565 3.516840 0
M  V30 15 C 1.178518 3.760180 3.552418 0
M  V30 16 C 0.140959 4.449230 4.168558 0
M  V30 17 Cl 0.081142 6.199532 4.226442 0
M  V30 18 C -0.837944 3.664538 4.730464 0
M  V30 19 C -0.855095 2.287474 4.721963 0
M  V30 20 C 0.197698 1.646083 4.097521 0
M  V30 21 C 0.143986 0.270957 4.110371 0
M  V30 22 O -0.764834 -0.414988 4.637666 0
M  V30 23 C -0.907223 -3.020647 0.267500 0
M  V30 24 C -0.424893 -3.603653 -0.845954 0
M  V30 25 N -1.291884 -3.908627 -1.784170 0
M  V30 26 C -2.417099 -3.775972 -1.854004 0
M  V30 27 N -3.359105 -4.127244 -2.917918 0
M  V30 28 C -3.537964 -3.141470 -3.995580 0
M  V30 29 C -2.761505 -3.708552 -5.167694 0
M  V30 30 C -3.229274 -5.146023 -5.393213 0
M  V30 31 C -4.476778 -5.395767 -4.578598 0
M  V30 32 C -4.164025 -5.292844 -3.101232 0
M  V30 33 S -2.753211 -2.942945 -0.148341 0
M  V30 34 H 1.317207 -2.780268 1.455261 0
M  V30 35 H 0.853003 -2.461470 4.199752 0
M  V30 36 H 2.393923 -2.133658 3.263200 0
M  V30 37 H 3.004358 -0.126060 2.432935 0
M  V30 38 H 2.657586 1.577743 0.369299 0
M  V30 39 H 4.487149 2.788812 -0.860257 0
M  V30 40 H 5.985953 4.186550 0.386154 0
M  V30 41 H 5.863670 4.521931 2.794971 0
M  V30 42 H 4.039928 3.320712 4.056680 0
M  V30 43 H 1.967343 4.336587 3.097538 0
M  V30 44 H -1.662192 4.174843 5.220451 0
M  V30 45 H -1.678585 1.730388 5.197037 0
M  V30 46 H 0.638120 -3.670120 -0.652471 0
M  V30 47 H -4.577520 -2.906457 -4.204210 0
M  V30 48 H -3.021312 -2.199284 -3.724570 0
M  V30 49 H -2.843164 -3.074551 -6.047948 0
M  V30 50 H -1.703422 -3.746243 -4.830359 0
M  V30 51 H -3.454567 -5.242914 -6.469121 0
M  V30 52 H -2.448179 -5.857918 -5.079993 0
M  V30 53 H -4.868258 -6.411444 -4.841289 0
M  V30 54 H -5.263732 -4.695975 -4.904628 0
M  V30 55 H -5.165672 -5.137417 -2.600488 0
M  V30 56 H -3.716443 -6.240033 -2.796083 0
M  V30 END ATOM
M  V30 BEGIN BOND
M  V30 1 2 1 2
M  V30 2 1 2 3
M  V30 3 1 3 4
M  V30 4 1 4 5
M  V30 5 2 5 6
M  V30 6 1 6 7
M  V30 7 1 7 8
M  V30 8 2 8 9
M  V30 9 1 9 10
M  V30 10 2 10 11
M  V30 11 1 11 12
M  V30 12 2 12 13
M  V30 13 1 7 14
M  V30 14 2 14 15
M  V30 15 1 15 16
M  V30 16 1 16 17
M  V30 17 2 16 18
M  V30 18 1 18 19
M  V30 19 2 19 20
M  V30 20 1 20 21
M  V30 21 2 21 22
M  V30 22 1 2 23
M  V30 23 2 23 24
M  V30 24 1 24 25
M  V30 25 2 25 26
M  V30 26 1 26 27
M  V30 27 1 27 28
M  V30 28 1 28 29
M  V30 29 1 29 30
M  V30 30 1 30 31
M  V30 31 1 31 32
M  V30 32 1 26 33
M  V30 33 1 21 5
M  V30 34 1 33 23
M  V30 35 1 13 8
M  V30 36 1 20 14
M  V30 37 1 32 27
M  V30 38 1 3 34
M  V30 39 1 4 35
M  V30 40 1 4 36
M  V30 41 1 6 37
M  V30 42 1 9 38
M  V30 43 1 10 39
M  V30 44 1 11 40
M  V30 45 1 12 41
M  V30 46 1 13 42
M  V30 47 1 15 43
M  V30 48 1 18 44
M  V30 49 1 19 45
M  V30 50 1 24 46
M  V30 51 1 28 47
M  V30 52 1 28 48
M  V30 53 1 29 49
M  V30 54 1 29 50
M  V30 55 1 30 51
M  V30 56 1 30 52
M  V30 57 1 31 53
M  V30 58 1 31 54
M  V30 59 1 32 55
M  V30 60 1 32 56
M  V30 END BOND
M  V30 END CTAB
M  END
>  <Dataset>  (932) 
ChEMBL_Kinases

>  <Ligand_Instance>  (932) 
nan

>  <PDB_ID>  (932) 
nan

>  <Standardized_SMILES>  (932) 
O=C(NCc1cn(-c2ccccc2)c2cc(Cl)ccc2c1=O)c1cnc(N2CCCCC2)s1

>  <Name>  (932) 
nan

>  <Pocket>  (932) 
nan

>  <ATP_Site>  (932) 
nan

>  <Peripheral>  (932) 
nan

>  <Num_H_Atoms_ProtBoundConf>  (932) 
nan

>  <Num_Resolved_Atoms>  (932) 
nan

>  <Num_Not_Resolved_Atoms>  (932) 
nan

$$$$
CHEMBL1940646
     RDKit          3D

  0  0  0  0  0  0  0  0  0  0999 V3000
M  V30 BEGIN CTAB
M  V30 COUNTS 72 77 0 0 0
M  V30 BEGIN ATOM
M  V30 1 N 7.328064 -6.808774 5.747465 0
M  V30 2 C 6.688796 -6.021641 5.155303 0
M  V30 3 C 5.904880 -5.040263 4.448575 0
M  V30 4 C 6.484172 -3.810568 4.260774 0
M  V30 5 C 5.781136 -2.827774 3.591102 0
M  V30 6 C 4.499536 -3.107528 3.121943 0
M  V30 7 C 3.766946 -2.070998 2.412108 0
M  V30 8 C 4.220258 -0.797385 2.119873 0
M  V30 9 C 3.138970 -0.216093 1.432294 0
M  V30 10 C 2.117264 -1.180683 1.361995 0
M  V30 11 C 1.001979 -0.580328 0.649897 0
M  V30 12 O 0.518440 0.531616 0.968702 0
M  V30 13 N 0.142692 -0.870929 -0.460677 0
M  V30 14 C 0.304229 -2.158348 -1.074956 0
M  V30 15 C -0.568309 -3.195983 -0.532876 0
M  V30 16 C -0.245454 -3.993924 0.533113 0
M  V30 17 C -1.032553 -4.958617 1.123714 0
M  V30 18 C -2.295122 -5.181285 0.618929 0
M  V30 19 C -2.674448 -4.406651 -0.457430 0
M  V30 20 C -1.852531 -3.429027 -1.043176 0
M  V30 21 C -2.484757 -2.796102 -2.187855 0
M  V30 22 C -2.789622 -1.556443 -2.602505 0
M  V30 23 C -3.371332 -1.176709 -3.780206 0
M  V30 24 C -3.708986 -2.164456 -4.695891 0
M  V30 25 C -3.449926 -3.476611 -4.391396 0
M  V30 26 C -3.796376 -4.492353 -5.337938 0
M  V30 27 N -4.078551 -5.307102 -6.082613 0
M  V30 28 C -2.857751 -3.739824 -3.170734 0
M  V30 29 C -0.509891 0.377984 -0.393210 0
M  V30 30 C -1.637058 0.613858 0.404729 0
M  V30 31 C -2.283279 1.824658 0.438719 0
M  V30 32 C -1.757751 2.812206 -0.364515 0
M  V30 33 N -2.411455 4.072499 -0.344934 0
M  V30 34 C -1.911239 5.234614 -1.074287 0
M  V30 35 C -2.295848 6.456366 -0.264721 0
M  V30 36 N -2.273949 6.206903 1.171196 0
M  V30 37 C -3.290617 5.249124 1.554976 0
M  V30 38 C -3.631086 4.351588 0.388649 0
M  V30 39 C -0.659881 2.631783 -1.160568 0
M  V30 40 C -0.009190 1.416361 -1.196013 0
M  V30 41 O 2.562108 -2.238110 1.958527 0
M  V30 42 C 3.999593 -4.368116 3.356413 0
M  V30 43 C 4.663528 -5.383923 4.020255 0
M  V30 44 H 7.485386 -3.594737 4.629453 0
M  V30 45 H 6.244931 -1.867093 3.450127 0
M  V30 46 H 5.203572 -0.459048 2.413275 0
M  V30 47 H 3.363471 0.817877 1.133555 0
M  V30 48 H 1.382328 -2.469509 -1.089763 0
M  V30 49 H 0.102701 -1.974671 -2.179320 0
M  V30 50 H 0.721680 -3.915257 1.008154 0
M  V30 51 H -0.725084 -5.557792 1.963434 0
M  V30 52 H -2.932702 -5.921188 1.051666 0
M  V30 53 H -3.689154 -4.627602 -0.817169 0
M  V30 54 H -2.527496 -0.828208 -1.864413 0
M  V30 55 H -3.527612 -0.116257 -3.910270 0
M  V30 56 H -4.163853 -1.813424 -5.606934 0
M  V30 57 H -2.697351 -4.826578 -3.032345 0
M  V30 58 H -1.938294 -0.268957 0.990345 0
M  V30 59 H -3.135451 1.874039 1.093386 0
M  V30 60 H -0.859096 5.200669 -1.326008 0
M  V30 61 H -2.505032 5.235914 -2.031567 0
M  V30 62 H -3.317685 6.779308 -0.574311 0
M  V30 63 H -1.571705 7.257810 -0.482121 0
M  V30 64 H -2.448948 7.132701 1.624179 0
M  V30 65 H -2.927565 4.672850 2.405718 0
M  V30 66 H -4.209446 5.800819 1.899843 0
M  V30 67 H -4.282836 4.969192 -0.288494 0
M  V30 68 H -4.228692 3.489027 0.657927 0
M  V30 69 H -0.224799 3.361816 -1.793440 0
M  V30 70 H 0.868554 1.214638 -1.808389 0
M  V30 71 H 2.990377 -4.564938 2.976314 0
M  V30 72 H 4.186444 -6.342542 4.155054 0
M  V30 END ATOM
M  V30 BEGIN BOND
M  V30 1 3 1 2
M  V30 2 1 2 3
M  V30 3 2 3 4
M  V30 4 1 4 5
M  V30 5 2 5 6
M  V30 6 1 6 7
M  V30 7 2 7 8
M  V30 8 1 8 9
M  V30 9 2 9 10
M  V30 10 1 10 11
M  V30 11 2 11 12
M  V30 12 1 11 13
M  V30 13 1 13 14
M  V30 14 1 14 15
M  V30 15 2 15 16
M  V30 16 1 16 17
M  V30 17 2 17 18
M  V30 18 1 18 19
M  V30 19 2 19 20
M  V30 20 1 20 21
M  V30 21 2 21 22
M  V30 22 1 22 23
M  V30 23 2 23 24
M  V30 24 1 24 25
M  V30 25 1 25 26
M  V30 26 3 26 27
M  V30 27 2 25 28
M  V30 28 1 13 29
M  V30 29 2 29 30
M  V30 30 1 30 31
M  V30 31 2 31 32
M  V30 32 1 32 33
M  V30 33 1 33 34
M  V30 34 1 34 35
M  V30 35 1 35 36
M  V30 36 1 36 37
M  V30 37 1 37 38
M  V30 38 1 32 39
M  V30 39 2 39 40
M  V30 40 1 10 41
M  V30 41 1 6 42
M  V30 42 2 42 43
M  V30 43 1 43 3
M  V30 44 1 41 7
M  V30 45 1 20 15
M  V30 46 1 28 21
M  V30 47 1 40 29
M  V30 48 1 38 33
M  V30 49 1 4 44
M  V30 50 1 5 45
M  V30 51 1 8 46
M  V30 52 1 9 47
M  V30 53 1 14 48
M  V30 54 1 14 49
M  V30 55 1 16 50
M  V30 56 1 17 51
M  V30 57 1 18 52
M  V30 58 1 19 53
M  V30 59 1 22 54
M  V30 60 1 23 55
M  V30 61 1 24 56
M  V30 62 1 28 57
M  V30 63 1 30 58
M  V30 64 1 31 59
M  V30 65 1 34 60
M  V30 66 1 34 61
M  V30 67 1 35 62
M  V30 68 1 35 63
M  V30 69 1 36 64
M  V30 70 1 37 65
M  V30 71 1 37 66
M  V30 72 1 38 67
M  V30 73 1 38 68
M  V30 74 1 39 69
M  V30 75 1 40 70
M  V30 76 1 42 71
M  V30 77 1 43 72
M  V30 END BOND
M  V30 END CTAB
M  END
>  <Dataset>  (933) 
ChEMBL_Kinases

>  <Ligand_Instance>  (933) 
nan

>  <PDB_ID>  (933) 
nan

>  <Standardized_SMILES>  (933) 
N#Cc1ccc(-c2ccc(C(=O)N(Cc3ccccc3-c3cccc(C#N)c3)c3ccc(N4CCNCC4)cc3)o2)cc1

>  <Name>  (933) 
nan

>  <Pocket>  (933) 
nan

>  <ATP_Site>  (933) 
nan

>  <Peripheral>  (933) 
nan

>  <Num_H_Atoms_ProtBoundConf>  (933) 
nan

>  <Num_Resolved_Atoms>  (933) 
nan

>  <Num_Not_Resolved_Atoms>  (933) 
nan

$$$$
CHEMBL1940645
     RDKit          3D

  0  0  0  0  0  0  0  0  0  0999 V3000
M  V30 BEGIN CTAB
M  V30 COUNTS 72 77 0 0 0
M  V30 BEGIN ATOM
M  V30 1 N 3.832356 -5.622838 7.450072 0
M  V30 2 C 3.653204 -4.996516 6.484004 0
M  V30 3 C 3.418968 -4.238942 5.287153 0
M  V30 4 C 4.228777 -3.180909 4.960266 0
M  V30 5 C 3.992022 -2.464012 3.807835 0
M  V30 6 C 2.960754 -2.753238 2.937800 0
M  V30 7 C 2.753093 -1.959988 1.723966 0
M  V30 8 C 3.556921 -0.889826 1.352687 0
M  V30 9 C 2.945677 -0.495038 0.155328 0
M  V30 10 C 1.842016 -1.306876 -0.138876 0
M  V30 11 C 0.994253 -1.152728 -1.311424 0
M  V30 12 O 1.528849 -1.994623 -2.038156 0
M  V30 13 N -0.121339 -0.347969 -1.671512 0
M  V30 14 C -0.782156 -0.575547 -2.935453 0
M  V30 15 C -1.894440 -1.513148 -2.938575 0
M  V30 16 C -3.151342 -0.912772 -2.788784 0
M  V30 17 C -4.347647 -1.619307 -2.709224 0
M  V30 18 C -4.357273 -3.016734 -2.777302 0
M  V30 19 C -3.127477 -3.633250 -2.926944 0
M  V30 20 C -1.983928 -2.871090 -2.999949 0
M  V30 21 C -0.798703 -3.669697 -3.244238 0
M  V30 22 C -0.514084 -4.631041 -2.276855 0
M  V30 23 C 0.565530 -5.456546 -2.432009 0
M  V30 24 C 1.388390 -5.372862 -3.516730 0
M  V30 25 C 2.516586 -6.252427 -3.656952 0
M  V30 26 N 3.424250 -6.938647 -3.776478 0
M  V30 27 C 1.099543 -4.409364 -4.482142 0
M  V30 28 C 0.015101 -3.544272 -4.375657 0
M  V30 29 C -0.638861 0.656703 -0.809800 0
M  V30 30 C -1.514837 1.641793 -1.213388 0
M  V30 31 C -2.065253 2.619888 -0.416037 0
M  V30 32 C -1.740851 2.661899 0.921050 0
M  V30 33 N -2.296310 3.673380 1.746777 0
M  V30 34 C -3.063630 4.765252 1.221189 0
M  V30 35 C -3.030234 5.946063 2.186651 0
M  V30 36 N -1.712944 6.141363 2.766530 0
M  V30 37 C -1.395071 5.001501 3.609958 0
M  V30 38 C -2.220105 3.804383 3.183804 0
M  V30 39 C -0.870389 1.709466 1.398851 0
M  V30 40 C -0.363348 0.763938 0.537086 0
M  V30 41 O 1.784535 -2.181964 0.864007 0
M  V30 42 C 2.138510 -3.811257 3.250419 0
M  V30 43 C 2.399987 -4.516852 4.417970 0
M  V30 44 H 5.060861 -2.879789 5.581179 0
M  V30 45 H 4.628943 -1.622102 3.540047 0
M  V30 46 H 4.406269 -0.475056 1.836058 0
M  V30 47 H 3.255966 0.320718 -0.482363 0
M  V30 48 H -1.005903 0.387778 -3.430150 0
M  V30 49 H -0.001169 -1.032550 -3.624742 0
M  V30 50 H -3.442279 0.130750 -2.716539 0
M  V30 51 H -5.354701 -1.228492 -2.593520 0
M  V30 52 H -5.248080 -3.617675 -2.720627 0
M  V30 53 H -3.123419 -4.713211 -2.980535 0
M  V30 54 H -1.145709 -4.736482 -1.387990 0
M  V30 55 H 0.776998 -6.202987 -1.670305 0
M  V30 56 H 1.752802 -4.342255 -5.343749 0
M  V30 57 H -0.206231 -2.821063 -5.116577 0
M  V30 58 H -1.833119 1.726802 -2.241442 0
M  V30 59 H -2.757039 3.368041 -0.806536 0
M  V30 60 H -2.630191 5.081193 0.233877 0
M  V30 61 H -4.116629 4.459905 1.162561 0
M  V30 62 H -3.748933 5.835687 3.010406 0
M  V30 63 H -3.242032 6.854984 1.572863 0
M  V30 64 H -0.999078 6.254818 1.992062 0
M  V30 65 H -1.618257 5.305892 4.650773 0
M  V30 66 H -0.309645 4.810630 3.535674 0
M  V30 67 H -3.249578 3.852017 3.637566 0
M  V30 68 H -1.763116 2.906502 3.639708 0
M  V30 69 H -0.623533 1.753123 2.444769 0
M  V30 70 H 0.290398 0.080527 1.039953 0
M  V30 71 H 1.324155 -4.063898 2.593766 0
M  V30 72 H 1.755422 -5.367282 4.687529 0
M  V30 END ATOM
M  V30 BEGIN BOND
M  V30 1 3 1 2
M  V30 2 1 2 3
M  V30 3 2 3 4
M  V30 4 1 4 5
M  V30 5 2 5 6
M  V30 6 1 6 7
M  V30 7 2 7 8
M  V30 8 1 8 9
M  V30 9 2 9 10
M  V30 10 1 10 11
M  V30 11 2 11 12
M  V30 12 1 11 13
M  V30 13 1 13 14
M  V30 14 1 14 15
M  V30 15 2 15 16
M  V30 16 1 16 17
M  V30 17 2 17 18
M  V30 18 1 18 19
M  V30 19 2 19 20
M  V30 20 1 20 21
M  V30 21 2 21 22
M  V30 22 1 22 23
M  V30 23 2 23 24
M  V30 24 1 24 25
M  V30 25 3 25 26
M  V30 26 1 24 27
M  V30 27 2 27 28
M  V30 28 1 13 29
M  V30 29 2 29 30
M  V30 30 1 30 31
M  V30 31 2 31 32
M  V30 32 1 32 33
M  V30 33 1 33 34
M  V30 34 1 34 35
M  V30 35 1 35 36
M  V30 36 1 36 37
M  V30 37 1 37 38
M  V30 38 1 32 39
M  V30 39 2 39 40
M  V30 40 1 10 41
M  V30 41 1 6 42
M  V30 42 2 42 43
M  V30 43 1 43 3
M  V30 44 1 41 7
M  V30 45 1 20 15
M  V30 46 1 28 21
M  V30 47 1 40 29
M  V30 48 1 38 33
M  V30 49 1 4 44
M  V30 50 1 5 45
M  V30 51 1 8 46
M  V30 52 1 9 47
M  V30 53 1 14 48
M  V30 54 1 14 49
M  V30 55 1 16 50
M  V30 56 1 17 51
M  V30 57 1 18 52
M  V30 58 1 19 53
M  V30 59 1 22 54
M  V30 60 1 23 55
M  V30 61 1 27 56
M  V30 62 1 28 57
M  V30 63 1 30 58
M  V30 64 1 31 59
M  V30 65 1 34 60
M  V30 66 1 34 61
M  V30 67 1 35 62
M  V30 68 1 35 63
M  V30 69 1 36 64
M  V30 70 1 37 65
M  V30 71 1 37 66
M  V30 72 1 38 67
M  V30 73 1 38 68
M  V30 74 1 39 69
M  V30 75 1 40 70
M  V30 76 1 42 71
M  V30 77 1 43 72
M  V30 END BOND
M  V30 END CTAB
M  END
>  <Dataset>  (934) 
ChEMBL_Kinases

>  <Ligand_Instance>  (934) 
nan

>  <PDB_ID>  (934) 
nan

>  <Standardized_SMILES>  (934) 
N#Cc1ccc(-c2ccc(C(=O)N(Cc3ccccc3-c3ccc(C#N)cc3)c3ccc(N4CCNCC4)cc3)o2)cc1

>  <Name>  (934) 
nan

>  <Pocket>  (934) 
nan

>  <ATP_Site>  (934) 
nan

>  <Peripheral>  (934) 
nan

>  <Num_H_Atoms_ProtBoundConf>  (934) 
nan

>  <Num_Resolved_Atoms>  (934) 
nan

>  <Num_Not_Resolved_Atoms>  (934) 
nan

$$$$
CHEMBL1940644
     RDKit          3D

  0  0  0  0  0  0  0  0  0  0999 V3000
M  V30 BEGIN CTAB
M  V30 COUNTS 73 78 0 0 0
M  V30 BEGIN ATOM
M  V30 1 C 2.609289 0.281992 2.605827 0
M  V30 2 C 1.989555 -0.943775 3.117563 0
M  V30 3 N 1.835492 -1.456505 4.350112 0
M  V30 4 O 1.192481 -2.583621 4.296300 0
M  V30 5 C 0.896705 -2.860160 3.043342 0
M  V30 6 C 0.155460 -4.138884 2.874074 0
M  V30 7 C 1.395306 -1.821754 2.242500 0
M  V30 8 C 1.163623 -1.982890 0.805656 0
M  V30 9 C 2.136925 -2.714908 0.112800 0
M  V30 10 C 2.051613 -2.953257 -1.228178 0
M  V30 11 C 0.954436 -2.447194 -1.926784 0
M  V30 12 C 0.005860 -1.730010 -1.237438 0
M  V30 13 C 0.049914 -1.466513 0.107951 0
M  V30 14 C -0.824403 -0.770908 1.040648 0
M  V30 15 N -1.796332 0.126983 0.508400 0
M  V30 16 C -3.115292 -0.365119 0.162382 0
M  V30 17 O -4.178907 0.339211 0.067597 0
M  V30 18 C -3.118799 -1.808047 -0.092683 0
M  V30 19 C -3.692192 -1.915765 -1.384357 0
M  V30 20 C -3.750121 -3.272786 -1.764284 0
M  V30 21 C -3.200639 -3.902582 -0.659934 0
M  V30 22 C -3.017473 -5.362036 -0.544862 0
M  V30 23 C -3.432120 -6.143609 -1.618954 0
M  V30 24 C -3.333474 -7.517101 -1.678665 0
M  V30 25 C -2.772534 -8.154685 -0.563830 0
M  V30 26 C -2.703592 -9.577185 -0.666386 0
M  V30 27 N -2.632482 -10.728855 -0.736710 0
M  V30 28 C -2.369767 -7.386561 0.480340 0
M  V30 29 C -2.469763 -6.014704 0.534715 0
M  V30 30 O -2.862865 -3.035969 0.254601 0
M  V30 31 C -1.177634 1.432270 0.536496 0
M  V30 32 C -0.734972 1.721525 -0.761638 0
M  V30 33 C -0.035702 2.901935 -1.023954 0
M  V30 34 C 0.193539 3.754060 0.039307 0
M  V30 35 N 0.955709 4.919836 -0.242845 0
M  V30 36 C 1.692036 5.717154 0.767132 0
M  V30 37 C 3.156388 5.720035 0.430325 0
M  V30 38 N 3.544264 5.193681 -0.821032 0
M  V30 39 C 2.610676 5.054034 -1.867514 0
M  V30 40 C 1.193610 5.538792 -1.532454 0
M  V30 41 C -0.240847 3.481246 1.315928 0
M  V30 42 C -0.927423 2.314139 1.552294 0
M  V30 43 H 3.138097 0.154864 1.650208 0
M  V30 44 H 1.878046 1.128960 2.510373 0
M  V30 45 H 3.383466 0.613082 3.358641 0
M  V30 46 H 0.846953 -4.952636 3.206643 0
M  V30 47 H -0.032711 -4.298515 1.785470 0
M  V30 48 H -0.779814 -4.107036 3.475493 0
M  V30 49 H 3.002154 -3.127884 0.613954 0
M  V30 50 H 2.754270 -3.510341 -1.824304 0
M  V30 51 H 0.730950 -2.545124 -2.984433 0
M  V30 52 H -0.856901 -1.301611 -1.709248 0
M  V30 53 H -0.218560 -0.234912 1.829004 0
M  V30 54 H -1.379890 -1.540285 1.705999 0
M  V30 55 H -4.105909 -1.266915 -2.182958 0
M  V30 56 H -4.121124 -3.747636 -2.668368 0
M  V30 57 H -3.873479 -5.706596 -2.512255 0
M  V30 58 H -3.679000 -8.065035 -2.546963 0
M  V30 59 H -1.942578 -7.963570 1.285617 0
M  V30 60 H -2.138387 -5.437247 1.372039 0
M  V30 61 H -0.878907 1.102158 -1.655315 0
M  V30 62 H 0.302714 3.137782 -2.018722 0
M  V30 63 H 1.288773 6.729244 0.705983 0
M  V30 64 H 1.506919 5.337952 1.768102 0
M  V30 65 H 3.672768 5.166276 1.272713 0
M  V30 66 H 3.536479 6.760248 0.497757 0
M  V30 67 H 4.010509 4.267989 -0.676231 0
M  V30 68 H 2.988646 5.621900 -2.770758 0
M  V30 69 H 2.505703 4.015413 -2.229285 0
M  V30 70 H 0.528524 5.114601 -2.304651 0
M  V30 71 H 1.190175 6.652438 -1.507105 0
M  V30 72 H -0.085025 4.115611 2.148151 0
M  V30 73 H -1.327676 1.939691 2.473787 0
M  V30 END ATOM
M  V30 BEGIN BOND
M  V30 1 1 1 2
M  V30 2 2 2 3
M  V30 3 1 3 4
M  V30 4 1 4 5
M  V30 5 1 5 6
M  V30 6 2 5 7
M  V30 7 1 7 8
M  V30 8 2 8 9
M  V30 9 1 9 10
M  V30 10 2 10 11
M  V30 11 1 11 12
M  V30 12 2 12 13
M  V30 13 1 13 14
M  V30 14 1 14 15
M  V30 15 1 15 16
M  V30 16 2 16 17
M  V30 17 1 16 18
M  V30 18 2 18 19
M  V30 19 1 19 20
M  V30 20 2 20 21
M  V30 21 1 21 22
M  V30 22 2 22 23
M  V30 23 1 23 24
M  V30 24 2 24 25
M  V30 25 1 25 26
M  V30 26 3 26 27
M  V30 27 1 25 28
M  V30 28 2 28 29
M  V30 29 1 21 30
M  V30 30 1 15 31
M  V30 31 2 31 32
M  V30 32 1 32 33
M  V30 33 2 33 34
M  V30 34 1 34 35
M  V30 35 1 35 36
M  V30 36 1 36 37
M  V30 37 1 37 38
M  V30 38 1 38 39
M  V30 39 1 39 40
M  V30 40 1 34 41
M  V30 41 2 41 42
M  V30 42 1 7 2
M  V30 43 1 13 8
M  V30 44 1 30 18
M  V30 45 1 42 31
M  V30 46 1 29 22
M  V30 47 1 40 35
M  V30 48 1 1 43
M  V30 49 1 1 44
M  V30 50 1 1 45
M  V30 51 1 6 46
M  V30 52 1 6 47
M  V30 53 1 6 48
M  V30 54 1 9 49
M  V30 55 1 10 50
M  V30 56 1 11 51
M  V30 57 1 12 52
M  V30 58 1 14 53
M  V30 59 1 14 54
M  V30 60 1 19 55
M  V30 61 1 20 56
M  V30 62 1 23 57
M  V30 63 1 24 58
M  V30 64 1 28 59
M  V30 65 1 29 60
M  V30 66 1 32 61
M  V30 67 1 33 62
M  V30 68 1 36 63
M  V30 69 1 36 64
M  V30 70 1 37 65
M  V30 71 1 37 66
M  V30 72 1 38 67
M  V30 73 1 39 68
M  V30 74 1 39 69
M  V30 75 1 40 70
M  V30 76 1 40 71
M  V30 77 1 41 72
M  V30 78 1 42 73
M  V30 END BOND
M  V30 END CTAB
M  END
>  <Dataset>  (935) 
ChEMBL_Kinases

>  <Ligand_Instance>  (935) 
nan

>  <PDB_ID>  (935) 
nan

>  <Standardized_SMILES>  (935) 
Cc1noc(C)c1-c1ccccc1CN(C(=O)c1ccc(-c2ccc(C#N)cc2)o1)c1ccc(N2CCNCC2)cc1

>  <Name>  (935) 
nan

>  <Pocket>  (935) 
nan

>  <ATP_Site>  (935) 
nan

>  <Peripheral>  (935) 
nan

>  <Num_H_Atoms_ProtBoundConf>  (935) 
nan

>  <Num_Resolved_Atoms>  (935) 
nan

>  <Num_Not_Resolved_Atoms>  (935) 
nan

$$$$
CHEMBL1940643
     RDKit          3D

  0  0  0  0  0  0  0  0  0  0999 V3000
M  V30 BEGIN CTAB
M  V30 COUNTS 74 79 0 0 0
M  V30 BEGIN ATOM
M  V30 1 C 1.021926 -0.108304 3.590562 0
M  V30 2 C 2.208402 -0.153009 2.660438 0
M  V30 3 C 2.926570 1.039961 2.510383 0
M  V30 4 C 4.032106 1.010819 1.680105 0
M  V30 5 C 4.382983 -0.159592 1.043581 0
M  V30 6 C 3.669892 -1.321983 1.199314 0
M  V30 7 C 2.556351 -1.347900 2.017611 0
M  V30 8 C 1.648635 -2.435428 2.331499 0
M  V30 9 C 1.877095 -3.010096 3.573507 0
M  V30 10 C 1.070414 -4.019621 4.027066 0
M  V30 11 C 0.045970 -4.446745 3.242017 0
M  V30 12 C -0.127065 -3.834950 2.018785 0
M  V30 13 C 0.645680 -2.797870 1.470441 0
M  V30 14 C 0.347671 -2.306646 0.145508 0
M  V30 15 N -0.315256 -1.078436 -0.071792 0
M  V30 16 C -1.689711 -0.735636 -0.180382 0
M  V30 17 O -1.602015 0.492727 -0.418779 0
M  V30 18 C -2.961193 -1.430410 -0.082205 0
M  V30 19 C -4.133302 -0.709732 -0.021744 0
M  V30 20 C -5.093500 -1.718699 0.061980 0
M  V30 21 C -4.492513 -2.939781 0.049528 0
M  V30 22 C -5.228814 -4.192217 0.125142 0
M  V30 23 C -4.561777 -5.396760 0.107334 0
M  V30 24 C -5.056536 -6.680027 0.171865 0
M  V30 25 C -6.451704 -6.725304 0.269711 0
M  V30 26 C -7.038743 -8.038957 0.343405 0
M  V30 27 N -7.520974 -9.102008 0.398775 0
M  V30 28 C -7.208122 -5.556139 0.294472 0
M  V30 29 C -6.594069 -4.300164 0.222123 0
M  V30 30 O -3.214624 -2.714508 -0.037868 0
M  V30 31 C 0.153885 0.238545 -0.340232 0
M  V30 32 C 0.486231 0.266315 -1.711433 0
M  V30 33 C 0.990735 1.388170 -2.386247 0
M  V30 34 C 1.175889 2.559510 -1.643868 0
M  V30 35 N 1.684104 3.750452 -2.219142 0
M  V30 36 C 2.157953 4.959040 -1.515280 0
M  V30 37 C 3.624828 5.096524 -1.917558 0
M  V30 38 N 4.067154 4.075259 -2.813699 0
M  V30 39 C 3.265273 3.998347 -4.020687 0
M  V30 40 C 1.814836 3.955849 -3.661871 0
M  V30 41 C 0.852549 2.536371 -0.307980 0
M  V30 42 C 0.359611 1.420496 0.323328 0
M  V30 43 H 0.650703 0.917943 3.713757 0
M  V30 44 H 0.163173 -0.668602 3.127602 0
M  V30 45 H 1.296839 -0.583260 4.552214 0
M  V30 46 H 2.595847 1.924991 3.041021 0
M  V30 47 H 4.608617 1.935755 1.550172 0
M  V30 48 H 5.261030 -0.195196 0.380621 0
M  V30 49 H 3.872242 -2.277968 0.740774 0
M  V30 50 H 2.681671 -2.698659 4.228906 0
M  V30 51 H 1.250703 -4.465330 4.993090 0
M  V30 52 H -0.626291 -5.237288 3.537914 0
M  V30 53 H -0.963263 -4.200415 1.404046 0
M  V30 54 H 1.298862 -2.316721 -0.502477 0
M  V30 55 H -0.273656 -3.106571 -0.374769 0
M  V30 56 H -4.301076 0.366645 -0.034186 0
M  V30 57 H -6.173074 -1.528679 0.128978 0
M  V30 58 H -3.463630 -5.334539 0.029063 0
M  V30 59 H -4.409160 -7.541890 0.147487 0
M  V30 60 H -8.296628 -5.632536 0.370528 0
M  V30 61 H -7.179548 -3.389815 0.240544 0
M  V30 62 H 0.410364 -0.542613 -2.438256 0
M  V30 63 H 1.249102 1.428950 -3.417752 0
M  V30 64 H 1.624846 5.855394 -1.825083 0
M  V30 65 H 2.140476 4.764191 -0.431394 0
M  V30 66 H 3.844759 6.078491 -2.363639 0
M  V30 67 H 4.281760 5.026875 -1.015224 0
M  V30 68 H 4.289297 3.160146 -2.403166 0
M  V30 69 H 3.473617 4.909389 -4.618043 0
M  V30 70 H 3.568516 3.147577 -4.659277 0
M  V30 71 H 1.373826 4.965625 -3.899349 0
M  V30 72 H 1.205537 3.253740 -4.258911 0
M  V30 73 H 0.943528 3.365045 0.378108 0
M  V30 74 H 0.060396 1.276656 1.340457 0
M  V30 END ATOM
M  V30 BEGIN BOND
M  V30 1 1 1 2
M  V30 2 2 2 3
M  V30 3 1 3 4
M  V30 4 2 4 5
M  V30 5 1 5 6
M  V30 6 2 6 7
M  V30 7 1 7 8
M  V30 8 2 8 9
M  V30 9 1 9 10
M  V30 10 2 10 11
M  V30 11 1 11 12
M  V30 12 2 12 13
M  V30 13 1 13 14
M  V30 14 1 14 15
M  V30 15 1 15 16
M  V30 16 2 16 17
M  V30 17 1 16 18
M  V30 18 2 18 19
M  V30 19 1 19 20
M  V30 20 2 20 21
M  V30 21 1 21 22
M  V30 22 2 22 23
M  V30 23 1 23 24
M  V30 24 2 24 25
M  V30 25 1 25 26
M  V30 26 3 26 27
M  V30 27 1 25 28
M  V30 28 2 28 29
M  V30 29 1 21 30
M  V30 30 1 15 31
M  V30 31 2 31 32
M  V30 32 1 32 33
M  V30 33 2 33 34
M  V30 34 1 34 35
M  V30 35 1 35 36
M  V30 36 1 36 37
M  V30 37 1 37 38
M  V30 38 1 38 39
M  V30 39 1 39 40
M  V30 40 1 34 41
M  V30 41 2 41 42
M  V30 42 1 7 2
M  V30 43 1 13 8
M  V30 44 1 30 18
M  V30 45 1 42 31
M  V30 46 1 29 22
M  V30 47 1 40 35
M  V30 48 1 1 43
M  V30 49 1 1 44
M  V30 50 1 1 45
M  V30 51 1 3 46
M  V30 52 1 4 47
M  V30 53 1 5 48
M  V30 54 1 6 49
M  V30 55 1 9 50
M  V30 56 1 10 51
M  V30 57 1 11 52
M  V30 58 1 12 53
M  V30 59 1 14 54
M  V30 60 1 14 55
M  V30 61 1 19 56
M  V30 62 1 20 57
M  V30 63 1 23 58
M  V30 64 1 24 59
M  V30 65 1 28 60
M  V30 66 1 29 61
M  V30 67 1 32 62
M  V30 68 1 33 63
M  V30 69 1 36 64
M  V30 70 1 36 65
M  V30 71 1 37 66
M  V30 72 1 37 67
M  V30 73 1 38 68
M  V30 74 1 39 69
M  V30 75 1 39 70
M  V30 76 1 40 71
M  V30 77 1 40 72
M  V30 78 1 41 73
M  V30 79 1 42 74
M  V30 END BOND
M  V30 END CTAB
M  END
>  <Dataset>  (936) 
ChEMBL_Kinases

>  <Ligand_Instance>  (936) 
nan

>  <PDB_ID>  (936) 
nan

>  <Standardized_SMILES>  (936) 
Cc1ccccc1-c1ccccc1CN(C(=O)c1ccc(-c2ccc(C#N)cc2)o1)c1ccc(N2CCNCC2)cc1

>  <Name>  (936) 
nan

>  <Pocket>  (936) 
nan

>  <ATP_Site>  (936) 
nan

>  <Peripheral>  (936) 
nan

>  <Num_H_Atoms_ProtBoundConf>  (936) 
nan

>  <Num_Resolved_Atoms>  (936) 
nan

>  <Num_Not_Resolved_Atoms>  (936) 
nan

$$$$
CHEMBL1940524
     RDKit          3D

  0  0  0  0  0  0  0  0  0  0999 V3000
M  V30 BEGIN CTAB
M  V30 COUNTS 70 75 0 0 0
M  V30 BEGIN ATOM
M  V30 1 N 8.209051 -0.819848 4.795583 0
M  V30 2 C 7.433568 -0.708382 3.959802 0
M  V30 3 C 6.439523 -0.549424 2.913428 0
M  V30 4 C 5.704748 -1.646114 2.509397 0
M  V30 5 C 4.754977 -1.470243 1.501989 0
M  V30 6 C 4.601437 -0.199599 0.960663 0
M  V30 7 C 3.591208 -0.047412 -0.096672 0
M  V30 8 C 3.300058 1.151970 -0.756457 0
M  V30 9 C 2.290441 0.771898 -1.648257 0
M  V30 10 C 2.043064 -0.594936 -1.474709 0
M  V30 11 C 0.998913 -1.091292 -2.363592 0
M  V30 12 O 1.609165 -1.591006 -3.358854 0
M  V30 13 N -0.441313 -1.067534 -2.230433 0
M  V30 14 C -1.162868 -1.644470 -3.347497 0
M  V30 15 C -1.425188 -3.090252 -3.214912 0
M  V30 16 C -0.662458 -4.038115 -3.902013 0
M  V30 17 C -0.822939 -5.402955 -3.827816 0
M  V30 18 C -1.818232 -5.893632 -3.009367 0
M  V30 19 C -2.585722 -4.971751 -2.319798 0
M  V30 20 C -2.407424 -3.587336 -2.408429 0
M  V30 21 C -3.350560 -2.833523 -1.607106 0
M  V30 22 C -3.393549 -3.232569 -0.260608 0
M  V30 23 C -4.212843 -2.690640 0.706639 0
M  V30 24 N -5.057082 -1.690253 0.362315 0
M  V30 25 C -5.049062 -1.276671 -0.919004 0
M  V30 26 C -4.233186 -1.815010 -1.886883 0
M  V30 27 C -0.729655 -0.454487 -1.009513 0
M  V30 28 C -0.852903 -1.077729 0.218710 0
M  V30 29 C -1.136295 -0.437918 1.406044 0
M  V30 30 C -1.306337 0.929067 1.342280 0
M  V30 31 N -1.600967 1.652167 2.523723 0
M  V30 32 C -1.820714 1.124043 3.853690 0
M  V30 33 C -3.143450 1.738805 4.321903 0
M  V30 34 N -2.901321 3.129300 4.641728 0
M  V30 35 C -1.825236 3.696822 3.865198 0
M  V30 36 C -1.712787 3.109785 2.491885 0
M  V30 37 C -1.196844 1.606672 0.151684 0
M  V30 38 C -0.911428 0.913760 -1.006560 0
M  V30 39 O 2.846723 -1.035543 -0.536398 0
M  V30 40 C 5.338650 0.900462 1.365933 0
M  V30 41 C 6.270741 0.701245 2.362927 0
M  V30 42 H 5.846454 -2.621686 2.948242 0
M  V30 43 H 4.199517 -2.330069 1.206221 0
M  V30 44 H 3.772022 2.112075 -0.580163 0
M  V30 45 H 1.901625 1.580725 -2.286051 0
M  V30 46 H -2.076292 -1.083907 -3.592548 0
M  V30 47 H -0.544032 -1.550173 -4.291302 0
M  V30 48 H 0.118515 -3.634414 -4.542526 0
M  V30 49 H -0.176652 -6.055980 -4.403122 0
M  V30 50 H -1.973743 -6.955904 -2.924157 0
M  V30 51 H -3.356337 -5.437863 -1.691026 0
M  V30 52 H -2.748167 -4.037127 0.126472 0
M  V30 53 H -4.208176 -3.032338 1.729739 0
M  V30 54 H -5.691268 -0.476342 -1.300072 0
M  V30 55 H -4.230819 -1.505524 -2.904367 0
M  V30 56 H -0.701879 -2.166703 0.176035 0
M  V30 57 H -1.208999 -1.029160 2.305841 0
M  V30 58 H -1.007342 1.536816 4.507092 0
M  V30 59 H -1.845520 0.037092 3.907739 0
M  V30 60 H -3.562493 1.227931 5.201504 0
M  V30 61 H -3.904894 1.723798 3.500355 0
M  V30 62 H -3.767141 3.677569 4.645849 0
M  V30 63 H -2.032878 4.780554 3.747465 0
M  V30 64 H -0.866410 3.599559 4.402071 0
M  V30 65 H -2.450592 3.476442 1.765059 0
M  V30 66 H -0.700296 3.438516 2.108782 0
M  V30 67 H -1.335317 2.686974 0.126319 0
M  V30 68 H -0.838925 1.505140 -1.904648 0
M  V30 69 H 5.158488 1.850836 0.895285 0
M  V30 70 H 6.841415 1.581490 2.667776 0
M  V30 END ATOM
M  V30 BEGIN BOND
M  V30 1 3 1 2
M  V30 2 1 2 3
M  V30 3 2 3 4
M  V30 4 1 4 5
M  V30 5 2 5 6
M  V30 6 1 6 7
M  V30 7 2 7 8
M  V30 8 1 8 9
M  V30 9 2 9 10
M  V30 10 1 10 11
M  V30 11 2 11 12
M  V30 12 1 11 13
M  V30 13 1 13 14
M  V30 14 1 14 15
M  V30 15 2 15 16
M  V30 16 1 16 17
M  V30 17 2 17 18
M  V30 18 1 18 19
M  V30 19 2 19 20
M  V30 20 1 20 21
M  V30 21 2 21 22
M  V30 22 1 22 23
M  V30 23 2 23 24
M  V30 24 1 24 25
M  V30 25 2 25 26
M  V30 26 1 13 27
M  V30 27 2 27 28
M  V30 28 1 28 29
M  V30 29 2 29 30
M  V30 30 1 30 31
M  V30 31 1 31 32
M  V30 32 1 32 33
M  V30 33 1 33 34
M  V30 34 1 34 35
M  V30 35 1 35 36
M  V30 36 1 30 37
M  V30 37 2 37 38
M  V30 38 1 10 39
M  V30 39 1 6 40
M  V30 40 2 40 41
M  V30 41 1 41 3
M  V30 42 1 39 7
M  V30 43 1 20 15
M  V30 44 1 26 21
M  V30 45 1 38 27
M  V30 46 1 36 31
M  V30 47 1 4 42
M  V30 48 1 5 43
M  V30 49 1 8 44
M  V30 50 1 9 45
M  V30 51 1 14 46
M  V30 52 1 14 47
M  V30 53 1 16 48
M  V30 54 1 17 49
M  V30 55 1 18 50
M  V30 56 1 19 51
M  V30 57 1 22 52
M  V30 58 1 23 53
M  V30 59 1 25 54
M  V30 60 1 26 55
M  V30 61 1 28 56
M  V30 62 1 29 57
M  V30 63 1 32 58
M  V30 64 1 32 59
M  V30 65 1 33 60
M  V30 66 1 33 61
M  V30 67 1 34 62
M  V30 68 1 35 63
M  V30 69 1 35 64
M  V30 70 1 36 65
M  V30 71 1 36 66
M  V30 72 1 37 67
M  V30 73 1 38 68
M  V30 74 1 40 69
M  V30 75 1 41 70
M  V30 END BOND
M  V30 END CTAB
M  END
>  <Dataset>  (937) 
ChEMBL_Kinases

>  <Ligand_Instance>  (937) 
nan

>  <PDB_ID>  (937) 
nan

>  <Standardized_SMILES>  (937) 
N#Cc1ccc(-c2ccc(C(=O)N(Cc3ccccc3-c3ccncc3)c3ccc(N4CCNCC4)cc3)o2)cc1

>  <Name>  (937) 
nan

>  <Pocket>  (937) 
nan

>  <ATP_Site>  (937) 
nan

>  <Peripheral>  (937) 
nan

>  <Num_H_Atoms_ProtBoundConf>  (937) 
nan

>  <Num_Resolved_Atoms>  (937) 
nan

>  <Num_Not_Resolved_Atoms>  (937) 
nan

$$$$
CHEMBL1940523
     RDKit          3D

  0  0  0  0  0  0  0  0  0  0999 V3000
M  V30 BEGIN CTAB
M  V30 COUNTS 70 75 0 0 0
M  V30 BEGIN ATOM
M  V30 1 N 8.085284 -1.672304 4.765944 0
M  V30 2 C 7.366683 -1.381623 3.908953 0
M  V30 3 C 6.457703 -1.027653 2.827915 0
M  V30 4 C 5.399012 -1.819872 2.440090 0
M  V30 5 C 4.592651 -1.390908 1.397106 0
M  V30 6 C 4.828988 -0.197394 0.747177 0
M  V30 7 C 3.972448 0.236655 -0.348264 0
M  V30 8 C 4.148991 1.433143 -1.047675 0
M  V30 9 C 3.114646 1.420128 -1.983539 0
M  V30 10 C 2.384663 0.242226 -1.802508 0
M  V30 11 C 1.260446 0.093242 -2.721420 0
M  V30 12 O 1.634548 -0.164871 -3.914299 0
M  V30 13 N -0.101193 0.236776 -2.262920 0
M  V30 14 C -1.161146 0.095154 -3.236987 0
M  V30 15 C -1.648409 -1.301898 -3.376343 0
M  V30 16 C -1.076364 -2.168422 -4.285774 0
M  V30 17 C -1.467279 -3.477721 -4.481005 0
M  V30 18 C -2.510567 -3.976231 -3.715108 0
M  V30 19 C -3.093566 -3.103388 -2.792817 0
M  V30 20 C -4.193746 -3.639019 -1.993857 0
M  V30 21 C -5.228982 -2.834721 -1.554542 0
M  V30 22 C -6.241269 -3.404215 -0.802269 0
M  V30 23 N -6.244966 -4.701382 -0.491435 0
M  V30 24 C -5.241720 -5.482290 -0.916758 0
M  V30 25 C -4.196464 -4.986326 -1.671839 0
M  V30 26 C -2.697387 -1.793279 -2.602092 0
M  V30 27 C -0.342244 0.508001 -0.887758 0
M  V30 28 C -0.527664 -0.549401 -0.021106 0
M  V30 29 C -0.766818 -0.358973 1.343447 0
M  V30 30 C -0.827363 0.908051 1.883226 0
M  V30 31 N -1.076985 1.112598 3.264671 0
M  V30 32 C -1.620400 0.078675 4.141592 0
M  V30 33 C -2.883101 0.588692 4.820801 0
M  V30 34 N -3.156381 1.958428 4.393249 0
M  V30 35 C -2.011413 2.750869 4.775976 0
M  V30 36 C -0.816798 2.337771 3.991427 0
M  V30 37 C -0.639226 1.940994 0.995988 0
M  V30 38 C -0.402422 1.778289 -0.350162 0
M  V30 39 O 2.943347 -0.426280 -0.811298 0
M  V30 40 C 5.898690 0.562428 1.168462 0
M  V30 41 C 6.735097 0.186095 2.200862 0
M  V30 42 H 5.250356 -2.742324 2.971638 0
M  V30 43 H 3.758385 -1.997989 1.082061 0
M  V30 44 H 4.934953 2.186204 -0.874037 0
M  V30 45 H 3.056612 2.272203 -2.648506 0
M  V30 46 H -0.851089 0.430377 -4.249851 0
M  V30 47 H -1.962079 0.805557 -2.938456 0
M  V30 48 H -0.255143 -1.877399 -4.928847 0
M  V30 49 H -1.021845 -4.145586 -5.185199 0
M  V30 50 H -2.826848 -4.988232 -3.852285 0
M  V30 51 H -5.171019 -1.775151 -1.841491 0
M  V30 52 H -7.042616 -2.734624 -0.474480 0
M  V30 53 H -5.207582 -6.520183 -0.690050 0
M  V30 54 H -3.396832 -5.636611 -2.004181 0
M  V30 55 H -3.187679 -1.162805 -1.868460 0
M  V30 56 H -0.481157 -1.557073 -0.435579 0
M  V30 57 H -0.890491 -1.265088 1.907571 0
M  V30 58 H -0.887985 -0.238014 4.887662 0
M  V30 59 H -1.928953 -0.794147 3.549798 0
M  V30 60 H -2.700501 0.622351 5.911183 0
M  V30 61 H -3.769827 -0.008350 4.632528 0
M  V30 62 H -3.999457 2.315463 4.877137 0
M  V30 63 H -2.197621 3.840622 4.635544 0
M  V30 64 H -1.814859 2.508796 5.845702 0
M  V30 65 H -0.578643 3.168011 3.264716 0
M  V30 66 H 0.061155 2.176502 4.665348 0
M  V30 67 H -0.664165 2.969333 1.285123 0
M  V30 68 H -0.252237 2.574277 -1.056294 0
M  V30 69 H 6.098446 1.501396 0.670379 0
M  V30 70 H 7.561172 0.828118 2.484723 0
M  V30 END ATOM
M  V30 BEGIN BOND
M  V30 1 3 1 2
M  V30 2 1 2 3
M  V30 3 2 3 4
M  V30 4 1 4 5
M  V30 5 2 5 6
M  V30 6 1 6 7
M  V30 7 2 7 8
M  V30 8 1 8 9
M  V30 9 2 9 10
M  V30 10 1 10 11
M  V30 11 2 11 12
M  V30 12 1 11 13
M  V30 13 1 13 14
M  V30 14 1 14 15
M  V30 15 2 15 16
M  V30 16 1 16 17
M  V30 17 2 17 18
M  V30 18 1 18 19
M  V30 19 1 19 20
M  V30 20 2 20 21
M  V30 21 1 21 22
M  V30 22 2 22 23
M  V30 23 1 23 24
M  V30 24 2 24 25
M  V30 25 2 19 26
M  V30 26 1 13 27
M  V30 27 2 27 28
M  V30 28 1 28 29
M  V30 29 2 29 30
M  V30 30 1 30 31
M  V30 31 1 31 32
M  V30 32 1 32 33
M  V30 33 1 33 34
M  V30 34 1 34 35
M  V30 35 1 35 36
M  V30 36 1 30 37
M  V30 37 2 37 38
M  V30 38 1 10 39
M  V30 39 1 6 40
M  V30 40 2 40 41
M  V30 41 1 41 3
M  V30 42 1 39 7
M  V30 43 1 26 15
M  V30 44 1 38 27
M  V30 45 1 25 20
M  V30 46 1 36 31
M  V30 47 1 4 42
M  V30 48 1 5 43
M  V30 49 1 8 44
M  V30 50 1 9 45
M  V30 51 1 14 46
M  V30 52 1 14 47
M  V30 53 1 16 48
M  V30 54 1 17 49
M  V30 55 1 18 50
M  V30 56 1 21 51
M  V30 57 1 22 52
M  V30 58 1 24 53
M  V30 59 1 25 54
M  V30 60 1 26 55
M  V30 61 1 28 56
M  V30 62 1 29 57
M  V30 63 1 32 58
M  V30 64 1 32 59
M  V30 65 1 33 60
M  V30 66 1 33 61
M  V30 67 1 34 62
M  V30 68 1 35 63
M  V30 69 1 35 64
M  V30 70 1 36 65
M  V30 71 1 36 66
M  V30 72 1 37 67
M  V30 73 1 38 68
M  V30 74 1 40 69
M  V30 75 1 41 70
M  V30 END BOND
M  V30 END CTAB
M  END
>  <Dataset>  (938) 
ChEMBL_Kinases

>  <Ligand_Instance>  (938) 
nan

>  <PDB_ID>  (938) 
nan

>  <Standardized_SMILES>  (938) 
N#Cc1ccc(-c2ccc(C(=O)N(Cc3cccc(-c4ccncc4)c3)c3ccc(N4CCNCC4)cc3)o2)cc1

>  <Name>  (938) 
nan

>  <Pocket>  (938) 
nan

>  <ATP_Site>  (938) 
nan

>  <Peripheral>  (938) 
nan

>  <Num_H_Atoms_ProtBoundConf>  (938) 
nan

>  <Num_Resolved_Atoms>  (938) 
nan

>  <Num_Not_Resolved_Atoms>  (938) 
nan

$$$$
CHEMBL1940522
     RDKit          3D

  0  0  0  0  0  0  0  0  0  0999 V3000
M  V30 BEGIN CTAB
M  V30 COUNTS 70 75 0 0 0
M  V30 BEGIN ATOM
M  V30 1 N 4.513650 -2.487543 6.517306 0
M  V30 2 C 4.552420 -2.195206 5.394998 0
M  V30 3 C 4.585760 -1.814359 4.016447 0
M  V30 4 C 3.392383 -1.955733 3.317018 0
M  V30 5 C 3.407725 -1.589581 1.983784 0
M  V30 6 C 4.523575 -1.103884 1.334367 0
M  V30 7 C 4.376704 -0.739342 -0.065684 0
M  V30 8 C 5.442338 -0.271999 -0.912129 0
M  V30 9 C 4.820397 -0.060314 -2.121410 0
M  V30 10 C 3.487747 -0.366343 -2.046626 0
M  V30 11 C 2.303760 -0.375863 -2.887746 0
M  V30 12 O 2.492832 -0.923633 -3.980523 0
M  V30 13 N 1.052010 0.183078 -2.497226 0
M  V30 14 C -0.077703 0.110302 -3.442243 0
M  V30 15 C -1.025591 -0.970578 -3.090783 0
M  V30 16 C -1.039880 -2.308883 -3.390541 0
M  V30 17 C -2.064005 -3.103261 -2.908440 0
M  V30 18 C -3.110515 -2.631980 -2.120703 0
M  V30 19 C -4.115126 -3.583276 -1.667392 0
M  V30 20 C -4.679816 -3.271452 -0.456006 0
M  V30 21 C -5.645461 -4.090777 0.096169 0
M  V30 22 N -5.969222 -5.170068 -0.621591 0
M  V30 23 C -5.424922 -5.480309 -1.796635 0
M  V30 24 C -4.448957 -4.694855 -2.402118 0
M  V30 25 C -3.077825 -1.287468 -1.836479 0
M  V30 26 C -2.074943 -0.478667 -2.299272 0
M  V30 27 C 0.559628 0.827178 -1.327772 0
M  V30 28 C 0.138969 -0.203669 -0.472540 0
M  V30 29 C -0.430911 0.066533 0.781220 0
M  V30 30 C -0.588597 1.365609 1.194740 0
M  V30 31 N -1.173150 1.772901 2.438224 0
M  V30 32 C -1.670975 0.794510 3.411162 0
M  V30 33 C -3.193532 1.041791 3.391119 0
M  V30 34 N -3.472800 2.430514 3.633729 0
M  V30 35 C -2.307290 3.200334 3.971059 0
M  V30 36 C -1.331007 3.157405 2.838860 0
M  V30 37 C -0.167300 2.373953 0.337189 0
M  V30 38 C 0.401801 2.126671 -0.911785 0
M  V30 39 O 3.356275 -0.738880 -0.840405 0
M  V30 40 C 5.704525 -0.965223 2.030506 0
M  V30 41 C 5.704662 -1.326615 3.360743 0
M  V30 42 H 2.464219 -2.328735 3.742261 0
M  V30 43 H 2.469275 -1.701234 1.414298 0
M  V30 44 H 6.475303 -0.122398 -0.645607 0
M  V30 45 H 5.234733 0.294038 -3.059449 0
M  V30 46 H -0.520574 1.100884 -3.538121 0
M  V30 47 H 0.319016 -0.150989 -4.451389 0
M  V30 48 H -0.203173 -2.584868 -3.995531 0
M  V30 49 H -1.960166 -4.147356 -3.218002 0
M  V30 50 H -4.410517 -2.386939 0.118434 0
M  V30 51 H -6.081874 -3.834533 1.047223 0
M  V30 52 H -5.731606 -6.386251 -2.343678 0
M  V30 53 H -3.971664 -4.896069 -3.352087 0
M  V30 54 H -3.895541 -0.929516 -1.235235 0
M  V30 55 H -2.199472 0.572615 -1.988105 0
M  V30 56 H 0.190271 -1.291701 -0.639756 0
M  V30 57 H -0.749189 -0.732580 1.433938 0
M  V30 58 H -1.329809 0.984915 4.432037 0
M  V30 59 H -1.562100 -0.243338 3.100157 0
M  V30 60 H -3.714203 0.441848 4.129100 0
M  V30 61 H -3.598972 0.728159 2.385641 0
M  V30 62 H -3.974783 2.881092 2.846059 0
M  V30 63 H -2.606654 4.285797 4.126590 0
M  V30 64 H -1.803586 2.842090 4.882698 0
M  V30 65 H -0.326836 3.555450 3.126866 0
M  V30 66 H -1.675803 3.757729 1.975825 0
M  V30 67 H -0.242052 3.427289 0.552787 0
M  V30 68 H 0.762700 2.779511 -1.653322 0
M  V30 69 H 6.577555 -0.582704 1.522553 0
M  V30 70 H 6.619641 -1.227551 3.949729 0
M  V30 END ATOM
M  V30 BEGIN BOND
M  V30 1 3 1 2
M  V30 2 1 2 3
M  V30 3 2 3 4
M  V30 4 1 4 5
M  V30 5 2 5 6
M  V30 6 1 6 7
M  V30 7 2 7 8
M  V30 8 1 8 9
M  V30 9 2 9 10
M  V30 10 1 10 11
M  V30 11 2 11 12
M  V30 12 1 11 13
M  V30 13 1 13 14
M  V30 14 1 14 15
M  V30 15 2 15 16
M  V30 16 1 16 17
M  V30 17 2 17 18
M  V30 18 1 18 19
M  V30 19 2 19 20
M  V30 20 1 20 21
M  V30 21 2 21 22
M  V30 22 1 22 23
M  V30 23 2 23 24
M  V30 24 1 18 25
M  V30 25 2 25 26
M  V30 26 1 13 27
M  V30 27 2 27 28
M  V30 28 1 28 29
M  V30 29 2 29 30
M  V30 30 1 30 31
M  V30 31 1 31 32
M  V30 32 1 32 33
M  V30 33 1 33 34
M  V30 34 1 34 35
M  V30 35 1 35 36
M  V30 36 1 30 37
M  V30 37 2 37 38
M  V30 38 1 10 39
M  V30 39 1 6 40
M  V30 40 2 40 41
M  V30 41 1 41 3
M  V30 42 1 39 7
M  V30 43 1 26 15
M  V30 44 1 38 27
M  V30 45 1 24 19
M  V30 46 1 36 31
M  V30 47 1 4 42
M  V30 48 1 5 43
M  V30 49 1 8 44
M  V30 50 1 9 45
M  V30 51 1 14 46
M  V30 52 1 14 47
M  V30 53 1 16 48
M  V30 54 1 17 49
M  V30 55 1 20 50
M  V30 56 1 21 51
M  V30 57 1 23 52
M  V30 58 1 24 53
M  V30 59 1 25 54
M  V30 60 1 26 55
M  V30 61 1 28 56
M  V30 62 1 29 57
M  V30 63 1 32 58
M  V30 64 1 32 59
M  V30 65 1 33 60
M  V30 66 1 33 61
M  V30 67 1 34 62
M  V30 68 1 35 63
M  V30 69 1 35 64
M  V30 70 1 36 65
M  V30 71 1 36 66
M  V30 72 1 37 67
M  V30 73 1 38 68
M  V30 74 1 40 69
M  V30 75 1 41 70
M  V30 END BOND
M  V30 END CTAB
M  END
>  <Dataset>  (939) 
ChEMBL_Kinases

>  <Ligand_Instance>  (939) 
nan

>  <PDB_ID>  (939) 
nan

>  <Standardized_SMILES>  (939) 
N#Cc1ccc(-c2ccc(C(=O)N(Cc3ccc(-c4ccncc4)cc3)c3ccc(N4CCNCC4)cc3)o2)cc1

>  <Name>  (939) 
nan

>  <Pocket>  (939) 
nan

>  <ATP_Site>  (939) 
nan

>  <Peripheral>  (939) 
nan

>  <Num_H_Atoms_ProtBoundConf>  (939) 
nan

>  <Num_Resolved_Atoms>  (939) 
nan

>  <Num_Not_Resolved_Atoms>  (939) 
nan

$$$$
CHEMBL1940521
     RDKit          3D

  0  0  0  0  0  0  0  0  0  0999 V3000
M  V30 BEGIN CTAB
M  V30 COUNTS 71 76 0 0 0
M  V30 BEGIN ATOM
M  V30 1 N 9.077332 -4.917032 -1.474812 0
M  V30 2 C 8.111056 -4.285739 -1.610293 0
M  V30 3 C 6.918219 -3.516778 -1.771225 0
M  V30 4 C 6.207471 -3.164614 -0.639865 0
M  V30 5 C 5.054722 -2.425810 -0.750775 0
M  V30 6 C 4.607608 -2.035634 -1.995624 0
M  V30 7 C 3.374795 -1.254714 -2.016455 0
M  V30 8 C 2.768025 -0.771142 -3.155794 0
M  V30 9 C 1.634945 -0.089637 -2.763098 0
M  V30 10 C 1.588913 -0.181275 -1.389993 0
M  V30 11 C 0.728357 0.264860 -0.284119 0
M  V30 12 O 0.889209 1.044468 0.666646 0
M  V30 13 N -0.608018 -0.266008 -0.208851 0
M  V30 14 C -1.314501 -1.194877 -1.065864 0
M  V30 15 C -1.169652 -2.603548 -0.708361 0
M  V30 16 C -0.381140 -3.214252 0.233451 0
M  V30 17 C -0.378023 -4.579093 0.424185 0
M  V30 18 C -1.187999 -5.412008 -0.343098 0
M  V30 19 C -1.974776 -4.810121 -1.282122 0
M  V30 20 C -1.990151 -3.428325 -1.488701 0
M  V30 21 C -2.921494 -3.036316 -2.554246 0
M  V30 22 C -2.714289 -2.897055 -3.910231 0
M  V30 23 C -3.767250 -2.512720 -4.711992 0
M  V30 24 C -5.020565 -2.264026 -4.195799 0
M  V30 25 C -5.243734 -2.400903 -2.826157 0
M  V30 26 C -4.178343 -2.789327 -2.018325 0
M  V30 27 F -4.544618 -2.881481 -0.708449 0
M  V30 28 C -1.007788 0.435557 0.978227 0
M  V30 29 C -0.863115 0.014773 2.275800 0
M  V30 30 C -1.293729 0.788142 3.330578 0
M  V30 31 C -1.889833 2.017202 3.159578 0
M  V30 32 N -2.333799 2.812535 4.249993 0
M  V30 33 C -2.952189 4.124105 4.099081 0
M  V30 34 C -2.589302 4.930888 5.323880 0
M  V30 35 N -1.237498 4.629023 5.769908 0
M  V30 36 C -1.159861 3.275409 6.280760 0
M  V30 37 C -2.225908 2.417167 5.641666 0
M  V30 38 C -2.037209 2.442140 1.868121 0
M  V30 39 C -1.608652 1.676052 0.787563 0
M  V30 40 O 2.649650 -0.885118 -1.005930 0
M  V30 41 C 5.273450 -2.356417 -3.159607 0
M  V30 42 C 6.422606 -3.098997 -2.981821 0
M  V30 43 H 6.547746 -3.466341 0.360337 0
M  V30 44 H 4.526511 -2.168878 0.161245 0
M  V30 45 H 3.031469 -0.845267 -4.197451 0
M  V30 46 H 0.842227 0.452021 -3.231559 0
M  V30 47 H -2.392339 -0.882085 -1.029234 0
M  V30 48 H -0.979226 -0.969112 -2.104061 0
M  V30 49 H 0.219502 -2.534939 0.790026 0
M  V30 50 H 0.308709 -4.892790 1.214915 0
M  V30 51 H -1.128681 -6.462910 -0.133458 0
M  V30 52 H -2.585070 -5.519916 -1.849316 0
M  V30 53 H -1.697583 -3.119810 -4.185668 0
M  V30 54 H -3.535290 -2.421716 -5.764396 0
M  V30 55 H -5.828929 -1.962075 -4.870030 0
M  V30 56 H -6.247623 -2.192174 -2.477969 0
M  V30 57 H -0.406198 -0.928845 2.427660 0
M  V30 58 H -1.133388 0.368912 4.311952 0
M  V30 59 H -4.054084 3.918414 4.106253 0
M  V30 60 H -2.745070 4.628075 3.163631 0
M  V30 61 H -3.262020 4.698136 6.172818 0
M  V30 62 H -2.639956 6.018953 5.128369 0
M  V30 63 H -0.911221 5.325260 6.447743 0
M  V30 64 H -0.139698 2.899120 6.069919 0
M  V30 65 H -1.269631 3.324508 7.384230 0
M  V30 66 H -2.070862 1.344904 5.804188 0
M  V30 67 H -3.195359 2.661663 6.150189 0
M  V30 68 H -2.481183 3.370758 1.601829 0
M  V30 69 H -1.741647 2.046338 -0.242650 0
M  V30 70 H 4.910202 -2.043063 -4.130347 0
M  V30 71 H 6.983044 -3.375926 -3.877399 0
M  V30 END ATOM
M  V30 BEGIN BOND
M  V30 1 3 1 2
M  V30 2 1 2 3
M  V30 3 2 3 4
M  V30 4 1 4 5
M  V30 5 2 5 6
M  V30 6 1 6 7
M  V30 7 2 7 8
M  V30 8 1 8 9
M  V30 9 2 9 10
M  V30 10 1 10 11
M  V30 11 2 11 12
M  V30 12 1 11 13
M  V30 13 1 13 14
M  V30 14 1 14 15
M  V30 15 2 15 16
M  V30 16 1 16 17
M  V30 17 2 17 18
M  V30 18 1 18 19
M  V30 19 2 19 20
M  V30 20 1 20 21
M  V30 21 2 21 22
M  V30 22 1 22 23
M  V30 23 2 23 24
M  V30 24 1 24 25
M  V30 25 2 25 26
M  V30 26 1 26 27
M  V30 27 1 13 28
M  V30 28 2 28 29
M  V30 29 1 29 30
M  V30 30 2 30 31
M  V30 31 1 31 32
M  V30 32 1 32 33
M  V30 33 1 33 34
M  V30 34 1 34 35
M  V30 35 1 35 36
M  V30 36 1 36 37
M  V30 37 1 31 38
M  V30 38 2 38 39
M  V30 39 1 10 40
M  V30 40 1 6 41
M  V30 41 2 41 42
M  V30 42 1 42 3
M  V30 43 1 40 7
M  V30 44 1 20 15
M  V30 45 1 26 21
M  V30 46 1 39 28
M  V30 47 1 37 32
M  V30 48 1 4 43
M  V30 49 1 5 44
M  V30 50 1 8 45
M  V30 51 1 9 46
M  V30 52 1 14 47
M  V30 53 1 14 48
M  V30 54 1 16 49
M  V30 55 1 17 50
M  V30 56 1 18 51
M  V30 57 1 19 52
M  V30 58 1 22 53
M  V30 59 1 23 54
M  V30 60 1 24 55
M  V30 61 1 25 56
M  V30 62 1 29 57
M  V30 63 1 30 58
M  V30 64 1 33 59
M  V30 65 1 33 60
M  V30 66 1 34 61
M  V30 67 1 34 62
M  V30 68 1 35 63
M  V30 69 1 36 64
M  V30 70 1 36 65
M  V30 71 1 37 66
M  V30 72 1 37 67
M  V30 73 1 38 68
M  V30 74 1 39 69
M  V30 75 1 41 70
M  V30 76 1 42 71
M  V30 END BOND
M  V30 END CTAB
M  END
>  <Dataset>  (940) 
ChEMBL_Kinases

>  <Ligand_Instance>  (940) 
nan

>  <PDB_ID>  (940) 
nan

>  <Standardized_SMILES>  (940) 
N#Cc1ccc(-c2ccc(C(=O)N(Cc3ccccc3-c3ccccc3F)c3ccc(N4CCNCC4)cc3)o2)cc1

>  <Name>  (940) 
nan

>  <Pocket>  (940) 
nan

>  <ATP_Site>  (940) 
nan

>  <Peripheral>  (940) 
nan

>  <Num_H_Atoms_ProtBoundConf>  (940) 
nan

>  <Num_Resolved_Atoms>  (940) 
nan

>  <Num_Not_Resolved_Atoms>  (940) 
nan

$$$$
CHEMBL1940520
     RDKit          3D

  0  0  0  0  0  0  0  0  0  0999 V3000
M  V30 BEGIN CTAB
M  V30 COUNTS 71 76 0 0 0
M  V30 BEGIN ATOM
M  V30 1 N 8.823606 -6.192443 0.827673 0
M  V30 2 C 8.072265 -5.378603 0.450653 0
M  V30 3 C 7.164578 -4.370669 0.008456 0
M  V30 4 C 6.009101 -4.074278 0.666975 0
M  V30 5 C 5.104050 -3.106486 0.271950 0
M  V30 6 C 5.383591 -2.377450 -0.878548 0
M  V30 7 C 4.444189 -1.351488 -1.313654 0
M  V30 8 C 4.562332 -0.544693 -2.425503 0
M  V30 9 C 3.449788 0.270218 -2.442033 0
M  V30 10 C 2.695054 -0.070155 -1.339719 0
M  V30 11 C 1.432944 0.370148 -0.754926 0
M  V30 12 O 1.267308 0.909374 0.380138 0
M  V30 13 N 0.089040 0.346496 -1.214907 0
M  V30 14 C -0.526949 -0.120918 -2.440437 0
M  V30 15 C -0.954063 -1.539817 -2.380316 0
M  V30 16 C -0.162642 -2.628481 -2.728248 0
M  V30 17 C -0.667329 -3.920127 -2.636274 0
M  V30 18 C -1.954272 -4.165079 -2.202404 0
M  V30 19 C -2.777904 -3.135092 -1.847074 0
M  V30 20 C -4.169423 -3.269242 -1.369734 0
M  V30 21 C -4.501856 -2.507845 -0.267921 0
M  V30 22 C -5.788701 -2.580090 0.239317 0
M  V30 23 C -6.736990 -3.411229 -0.354908 0
M  V30 24 C -6.384296 -4.160265 -1.450753 0
M  V30 25 C -5.122314 -4.102418 -1.964455 0
M  V30 26 F -4.741133 -4.821961 -3.037162 0
M  V30 27 C -2.243576 -1.865007 -1.950749 0
M  V30 28 C -0.556996 0.943976 -0.094900 0
M  V30 29 C -1.010332 0.210735 0.971031 0
M  V30 30 C -1.636632 0.815994 2.038780 0
M  V30 31 C -1.845580 2.176009 2.104855 0
M  V30 32 N -2.482975 2.845660 3.184829 0
M  V30 33 C -2.819093 4.256212 3.231683 0
M  V30 34 C -2.564075 4.736277 4.634983 0
M  V30 35 N -1.513966 3.991455 5.293707 0
M  V30 36 C -1.836532 2.586576 5.431675 0
M  V30 37 C -2.881778 2.174816 4.410256 0
M  V30 38 C -1.384907 2.897289 1.027283 0
M  V30 39 C -0.748275 2.307991 -0.064093 0
M  V30 40 O 3.328221 -1.045257 -0.692995 0
M  V30 41 C 6.549066 -2.631041 -1.598788 0
M  V30 42 C 7.406780 -3.619105 -1.136825 0
M  V30 43 H 5.828530 -4.675868 1.571826 0
M  V30 44 H 4.224010 -2.960092 0.871830 0
M  V30 45 H 5.330243 -0.505424 -3.163725 0
M  V30 46 H 3.101891 1.047195 -3.098188 0
M  V30 47 H 0.107148 0.085080 -3.324294 0
M  V30 48 H -1.471101 0.490587 -2.543162 0
M  V30 49 H 0.829954 -2.385241 -3.059384 0
M  V30 50 H -0.017770 -4.738251 -2.916596 0
M  V30 51 H -2.370203 -5.167037 -2.122544 0
M  V30 52 H -3.767181 -1.858465 0.199300 0
M  V30 53 H -6.098642 -2.010597 1.092241 0
M  V30 54 H -7.740673 -3.448136 0.065613 0
M  V30 55 H -7.108646 -4.819177 -1.934447 0
M  V30 56 H -2.875763 -1.025440 -1.674500 0
M  V30 57 H -0.869800 -0.848438 0.962539 0
M  V30 58 H -1.973675 0.192949 2.852476 0
M  V30 59 H -3.940746 4.282108 3.091249 0
M  V30 60 H -2.403170 4.876130 2.455543 0
M  V30 61 H -3.468512 4.626322 5.283690 0
M  V30 62 H -2.268872 5.788338 4.600558 0
M  V30 63 H -0.563503 4.164418 4.908063 0
M  V30 64 H -0.903423 2.019281 5.162349 0
M  V30 65 H -2.088167 2.281326 6.465162 0
M  V30 66 H -3.010348 1.102078 4.335071 0
M  V30 67 H -3.864831 2.563823 4.810422 0
M  V30 68 H -1.467663 3.950205 0.924379 0
M  V30 69 H -0.382187 2.868029 -0.917197 0
M  V30 70 H 6.795364 -2.080606 -2.498534 0
M  V30 71 H 8.305684 -3.794516 -1.717063 0
M  V30 END ATOM
M  V30 BEGIN BOND
M  V30 1 3 1 2
M  V30 2 1 2 3
M  V30 3 2 3 4
M  V30 4 1 4 5
M  V30 5 2 5 6
M  V30 6 1 6 7
M  V30 7 2 7 8
M  V30 8 1 8 9
M  V30 9 2 9 10
M  V30 10 1 10 11
M  V30 11 2 11 12
M  V30 12 1 11 13
M  V30 13 1 13 14
M  V30 14 1 14 15
M  V30 15 2 15 16
M  V30 16 1 16 17
M  V30 17 2 17 18
M  V30 18 1 18 19
M  V30 19 1 19 20
M  V30 20 2 20 21
M  V30 21 1 21 22
M  V30 22 2 22 23
M  V30 23 1 23 24
M  V30 24 2 24 25
M  V30 25 1 25 26
M  V30 26 2 19 27
M  V30 27 1 13 28
M  V30 28 2 28 29
M  V30 29 1 29 30
M  V30 30 2 30 31
M  V30 31 1 31 32
M  V30 32 1 32 33
M  V30 33 1 33 34
M  V30 34 1 34 35
M  V30 35 1 35 36
M  V30 36 1 36 37
M  V30 37 1 31 38
M  V30 38 2 38 39
M  V30 39 1 10 40
M  V30 40 1 6 41
M  V30 41 2 41 42
M  V30 42 1 42 3
M  V30 43 1 40 7
M  V30 44 1 27 15
M  V30 45 1 39 28
M  V30 46 1 25 20
M  V30 47 1 37 32
M  V30 48 1 4 43
M  V30 49 1 5 44
M  V30 50 1 8 45
M  V30 51 1 9 46
M  V30 52 1 14 47
M  V30 53 1 14 48
M  V30 54 1 16 49
M  V30 55 1 17 50
M  V30 56 1 18 51
M  V30 57 1 21 52
M  V30 58 1 22 53
M  V30 59 1 23 54
M  V30 60 1 24 55
M  V30 61 1 27 56
M  V30 62 1 29 57
M  V30 63 1 30 58
M  V30 64 1 33 59
M  V30 65 1 33 60
M  V30 66 1 34 61
M  V30 67 1 34 62
M  V30 68 1 35 63
M  V30 69 1 36 64
M  V30 70 1 36 65
M  V30 71 1 37 66
M  V30 72 1 37 67
M  V30 73 1 38 68
M  V30 74 1 39 69
M  V30 75 1 41 70
M  V30 76 1 42 71
M  V30 END BOND
M  V30 END CTAB
M  END
>  <Dataset>  (941) 
ChEMBL_Kinases

>  <Ligand_Instance>  (941) 
nan

>  <PDB_ID>  (941) 
nan

>  <Standardized_SMILES>  (941) 
N#Cc1ccc(-c2ccc(C(=O)N(Cc3cccc(-c4ccccc4F)c3)c3ccc(N4CCNCC4)cc3)o2)cc1

>  <Name>  (941) 
nan

>  <Pocket>  (941) 
nan

>  <ATP_Site>  (941) 
nan

>  <Peripheral>  (941) 
nan

>  <Num_H_Atoms_ProtBoundConf>  (941) 
nan

>  <Num_Resolved_Atoms>  (941) 
nan

>  <Num_Not_Resolved_Atoms>  (941) 
nan

$$$$
CHEMBL1940519
     RDKit          3D

  0  0  0  0  0  0  0  0  0  0999 V3000
M  V30 BEGIN CTAB
M  V30 COUNTS 71 76 0 0 0
M  V30 BEGIN ATOM
M  V30 1 N 9.708682 -5.014860 -0.956631 0
M  V30 2 C 8.768638 -4.353601 -1.178639 0
M  V30 3 C 7.621387 -3.535822 -1.437156 0
M  V30 4 C 6.747161 -3.224267 -0.416235 0
M  V30 5 C 5.639795 -2.420508 -0.719989 0
M  V30 6 C 5.428500 -1.953471 -2.004559 0
M  V30 7 C 4.232446 -1.128814 -2.138953 0
M  V30 8 C 3.857433 -0.580214 -3.344778 0
M  V30 9 C 2.697250 0.133979 -3.126553 0
M  V30 10 C 2.398242 -0.000457 -1.787493 0
M  V30 11 C 1.490520 0.322688 -0.657263 0
M  V30 12 O 1.237194 1.430631 -0.066674 0
M  V30 13 N 0.692640 -0.650638 0.001092 0
M  V30 14 C 0.431662 -2.069620 -0.258902 0
M  V30 15 C -0.844757 -2.224755 -0.971092 0
M  V30 16 C -1.919864 -2.353101 -0.084752 0
M  V30 17 C -3.236648 -2.507730 -0.529973 0
M  V30 18 C -3.490275 -2.534631 -1.900129 0
M  V30 19 C -4.915217 -2.699025 -2.234723 0
M  V30 20 C -5.656832 -1.944187 -3.154965 0
M  V30 21 C -6.994218 -2.241203 -3.314525 0
M  V30 22 C -7.601706 -3.244850 -2.601292 0
M  V30 23 C -6.903906 -3.989649 -1.703988 0
M  V30 24 C -5.550942 -3.712644 -1.522270 0
M  V30 25 F -4.960636 -4.530558 -0.601396 0
M  V30 26 C -2.428398 -2.408553 -2.769655 0
M  V30 27 C -1.142593 -2.258174 -2.301137 0
M  V30 28 C 0.075781 0.063876 1.062488 0
M  V30 29 C 0.661204 0.136840 2.307454 0
M  V30 30 C 0.015625 0.850314 3.295906 0
M  V30 31 C -1.192529 1.482754 3.057517 0
M  V30 32 N -1.839971 2.196600 4.105745 0
M  V30 33 C -2.917131 3.174499 3.917997 0
M  V30 34 C -2.690955 4.256813 4.938569 0
M  V30 35 N -1.259795 4.414183 5.253031 0
M  V30 36 C -0.829230 3.235745 6.007106 0
M  V30 37 C -1.482343 1.986483 5.496923 0
M  V30 38 C -1.801742 1.420235 1.802105 0
M  V30 39 C -1.115328 0.690736 0.836631 0
M  V30 40 O 3.346402 -0.763670 -1.246611 0
M  V30 41 C 6.285365 -2.250933 -3.037485 0
M  V30 42 C 7.370047 -3.045154 -2.711620 0
M  V30 43 H 6.928626 -3.600665 0.579562 0
M  V30 44 H 5.011980 -2.230775 0.147345 0
M  V30 45 H 4.227347 -0.575043 -4.352994 0
M  V30 46 H 1.948684 0.744985 -3.591219 0
M  V30 47 H 1.223834 -2.451686 -0.980563 0
M  V30 48 H 0.473366 -2.700888 0.619353 0
M  V30 49 H -1.813284 -2.340783 0.996059 0
M  V30 50 H -4.038575 -2.601612 0.199078 0
M  V30 51 H -5.080732 -1.174838 -3.663500 0
M  V30 52 H -7.534728 -1.637251 -4.032030 0
M  V30 53 H -8.661290 -3.456784 -2.746745 0
M  V30 54 H -7.432266 -4.771359 -1.167038 0
M  V30 55 H -2.667645 -2.435420 -3.805764 0
M  V30 56 H -0.300237 -2.159456 -2.943081 0
M  V30 57 H 1.601919 -0.369688 2.440880 0
M  V30 58 H 0.529347 0.868102 4.235137 0
M  V30 59 H -3.862811 2.643162 4.177257 0
M  V30 60 H -3.006622 3.513064 2.886320 0
M  V30 61 H -3.221386 4.066736 5.892506 0
M  V30 62 H -3.055074 5.228414 4.540338 0
M  V30 63 H -1.171919 5.219887 5.882939 0
M  V30 64 H 0.272004 3.198938 6.008146 0
M  V30 65 H -1.116218 3.421376 7.078353 0
M  V30 66 H -0.885752 1.065321 5.668786 0
M  V30 67 H -2.460424 1.856161 6.051349 0
M  V30 68 H -2.751701 1.907142 1.587045 0
M  V30 69 H -1.554123 0.608958 -0.166966 0
M  V30 70 H 6.075641 -1.861576 -4.020783 0
M  V30 71 H 8.028353 -3.259137 -3.553294 0
M  V30 END ATOM
M  V30 BEGIN BOND
M  V30 1 3 1 2
M  V30 2 1 2 3
M  V30 3 2 3 4
M  V30 4 1 4 5
M  V30 5 2 5 6
M  V30 6 1 6 7
M  V30 7 2 7 8
M  V30 8 1 8 9
M  V30 9 2 9 10
M  V30 10 1 10 11
M  V30 11 2 11 12
M  V30 12 1 11 13
M  V30 13 1 13 14
M  V30 14 1 14 15
M  V30 15 2 15 16
M  V30 16 1 16 17
M  V30 17 2 17 18
M  V30 18 1 18 19
M  V30 19 2 19 20
M  V30 20 1 20 21
M  V30 21 2 21 22
M  V30 22 1 22 23
M  V30 23 2 23 24
M  V30 24 1 24 25
M  V30 25 1 18 26
M  V30 26 2 26 27
M  V30 27 1 13 28
M  V30 28 2 28 29
M  V30 29 1 29 30
M  V30 30 2 30 31
M  V30 31 1 31 32
M  V30 32 1 32 33
M  V30 33 1 33 34
M  V30 34 1 34 35
M  V30 35 1 35 36
M  V30 36 1 36 37
M  V30 37 1 31 38
M  V30 38 2 38 39
M  V30 39 1 10 40
M  V30 40 1 6 41
M  V30 41 2 41 42
M  V30 42 1 42 3
M  V30 43 1 40 7
M  V30 44 1 27 15
M  V30 45 1 39 28
M  V30 46 1 24 19
M  V30 47 1 37 32
M  V30 48 1 4 43
M  V30 49 1 5 44
M  V30 50 1 8 45
M  V30 51 1 9 46
M  V30 52 1 14 47
M  V30 53 1 14 48
M  V30 54 1 16 49
M  V30 55 1 17 50
M  V30 56 1 20 51
M  V30 57 1 21 52
M  V30 58 1 22 53
M  V30 59 1 23 54
M  V30 60 1 26 55
M  V30 61 1 27 56
M  V30 62 1 29 57
M  V30 63 1 30 58
M  V30 64 1 33 59
M  V30 65 1 33 60
M  V30 66 1 34 61
M  V30 67 1 34 62
M  V30 68 1 35 63
M  V30 69 1 36 64
M  V30 70 1 36 65
M  V30 71 1 37 66
M  V30 72 1 37 67
M  V30 73 1 38 68
M  V30 74 1 39 69
M  V30 75 1 41 70
M  V30 76 1 42 71
M  V30 END BOND
M  V30 END CTAB
M  END
>  <Dataset>  (942) 
ChEMBL_Kinases

>  <Ligand_Instance>  (942) 
nan

>  <PDB_ID>  (942) 
nan

>  <Standardized_SMILES>  (942) 
N#Cc1ccc(-c2ccc(C(=O)N(Cc3ccc(-c4ccccc4F)cc3)c3ccc(N4CCNCC4)cc3)o2)cc1

>  <Name>  (942) 
nan

>  <Pocket>  (942) 
nan

>  <ATP_Site>  (942) 
nan

>  <Peripheral>  (942) 
nan

>  <Num_H_Atoms_ProtBoundConf>  (942) 
nan

>  <Num_Resolved_Atoms>  (942) 
nan

>  <Num_Not_Resolved_Atoms>  (942) 
nan

$$$$
CHEMBL1940518
     RDKit          3D

  0  0  0  0  0  0  0  0  0  0999 V3000
M  V30 BEGIN CTAB
M  V30 COUNTS 71 76 0 0 0
M  V30 BEGIN ATOM
M  V30 1 N 8.990396 -5.961549 4.073586 0
M  V30 2 C 8.205521 -5.286130 3.552590 0
M  V30 3 C 7.227424 -4.457484 2.882057 0
M  V30 4 C 5.918212 -4.393430 3.304651 0
M  V30 5 C 4.960867 -3.598219 2.668694 0
M  V30 6 C 5.395638 -2.871617 1.584058 0
M  V30 7 C 4.428057 -2.029307 0.894850 0
M  V30 8 C 4.716560 -1.235340 -0.220591 0
M  V30 9 C 3.489953 -0.625113 -0.515583 0
M  V30 10 C 2.557204 -1.082228 0.425163 0
M  V30 11 C 1.239511 -0.499544 0.200034 0
M  V30 12 O 1.007027 0.731870 0.434937 0
M  V30 13 N -0.005197 -1.023414 -0.276425 0
M  V30 14 C -0.130986 -2.440673 -0.620885 0
M  V30 15 C -0.555179 -3.288279 0.498415 0
M  V30 16 C 0.378597 -4.054127 1.203527 0
M  V30 17 C 0.105410 -4.857276 2.268696 0
M  V30 18 C -1.207767 -4.937390 2.709750 0
M  V30 19 C -2.136667 -4.187024 2.021946 0
M  V30 20 C -1.850926 -3.372614 0.939032 0
M  V30 21 C -2.986981 -2.695908 0.355628 0
M  V30 22 C -3.716007 -1.974121 1.314742 0
M  V30 23 C -4.857982 -1.256144 1.027461 0
M  V30 24 C -5.328366 -1.232872 -0.269179 0
M  V30 25 C -4.649832 -1.923067 -1.237399 0
M  V30 26 C -3.521199 -2.621952 -0.905448 0
M  V30 27 C -0.804989 0.152138 -0.252257 0
M  V30 28 C -0.706006 0.874833 -1.443674 0
M  V30 29 C -1.435358 2.051209 -1.603351 0
M  V30 30 C -2.240604 2.467683 -0.566351 0
M  V30 31 N -2.961921 3.679395 -0.762190 0
M  V30 32 C -4.429310 3.756266 -0.842859 0
M  V30 33 C -4.831671 4.050721 -2.278001 0
M  V30 34 N -3.869254 4.917467 -2.928850 0
M  V30 35 C -3.167998 5.785339 -2.001935 0
M  V30 36 C -2.466956 5.054353 -0.905702 0
M  V30 37 C -2.348931 1.767006 0.614908 0
M  V30 38 C -1.621004 0.602961 0.760662 0
M  V30 39 O 3.169291 -1.915591 1.240678 0
M  V30 40 C 6.717281 -2.927858 1.147303 0
M  V30 41 C 7.640801 -3.725562 1.799162 0
M  V30 42 H 5.593160 -4.974524 4.164611 0
M  V30 43 H 3.943331 -3.566684 3.020616 0
M  V30 44 H 5.711981 -1.181698 -0.673779 0
M  V30 45 H 3.506978 0.043540 -1.369820 0
M  V30 46 H -0.754587 -2.593449 -1.500467 0
M  V30 47 H 0.913332 -2.715753 -0.966487 0
M  V30 48 H 1.411585 -3.982278 0.843588 0
M  V30 49 H 0.940772 -5.400151 2.723344 0
M  V30 50 H -1.416333 -5.575910 3.555956 0
M  V30 51 H -3.165826 -4.284335 2.407240 0
M  V30 52 H -3.454446 -1.911383 2.370437 0
M  V30 53 H -5.427983 -0.696162 1.748047 0
M  V30 54 H -6.202823 -0.716540 -0.645232 0
M  V30 55 H -4.929350 -1.978133 -2.299973 0
M  V30 56 H -2.968304 -3.191029 -1.632206 0
M  V30 57 H -0.082298 0.597137 -2.304897 0
M  V30 58 H -1.376892 2.631072 -2.516203 0
M  V30 59 H -4.856706 4.498492 -0.170761 0
M  V30 60 H -4.891173 2.770692 -0.610065 0
M  V30 61 H -5.794462 4.598692 -2.237833 0
M  V30 62 H -4.972248 3.160313 -2.893030 0
M  V30 63 H -3.237491 4.433645 -3.586320 0
M  V30 64 H -2.414175 6.343582 -2.594659 0
M  V30 65 H -3.862211 6.581155 -1.615903 0
M  V30 66 H -1.399180 5.002845 -1.109086 0
M  V30 67 H -2.629949 5.622712 0.035986 0
M  V30 68 H -2.984617 2.095812 1.432552 0
M  V30 69 H -1.625072 -0.017741 1.635935 0
M  V30 70 H 7.070338 -2.353570 0.285082 0
M  V30 71 H 8.675265 -3.787190 1.481078 0
M  V30 END ATOM
M  V30 BEGIN BOND
M  V30 1 3 1 2
M  V30 2 1 2 3
M  V30 3 2 3 4
M  V30 4 1 4 5
M  V30 5 2 5 6
M  V30 6 1 6 7
M  V30 7 2 7 8
M  V30 8 1 8 9
M  V30 9 2 9 10
M  V30 10 1 10 11
M  V30 11 2 11 12
M  V30 12 1 11 13
M  V30 13 1 13 14
M  V30 14 1 14 15
M  V30 15 2 15 16
M  V30 16 1 16 17
M  V30 17 2 17 18
M  V30 18 1 18 19
M  V30 19 2 19 20
M  V30 20 1 20 21
M  V30 21 2 21 22
M  V30 22 1 22 23
M  V30 23 2 23 24
M  V30 24 1 24 25
M  V30 25 2 25 26
M  V30 26 1 13 27
M  V30 27 2 27 28
M  V30 28 1 28 29
M  V30 29 2 29 30
M  V30 30 1 30 31
M  V30 31 1 31 32
M  V30 32 1 32 33
M  V30 33 1 33 34
M  V30 34 1 34 35
M  V30 35 1 35 36
M  V30 36 1 30 37
M  V30 37 2 37 38
M  V30 38 1 10 39
M  V30 39 1 6 40
M  V30 40 2 40 41
M  V30 41 1 41 3
M  V30 42 1 39 7
M  V30 43 1 20 15
M  V30 44 1 26 21
M  V30 45 1 38 27
M  V30 46 1 36 31
M  V30 47 1 4 42
M  V30 48 1 5 43
M  V30 49 1 8 44
M  V30 50 1 9 45
M  V30 51 1 14 46
M  V30 52 1 14 47
M  V30 53 1 16 48
M  V30 54 1 17 49
M  V30 55 1 18 50
M  V30 56 1 19 51
M  V30 57 1 22 52
M  V30 58 1 23 53
M  V30 59 1 24 54
M  V30 60 1 25 55
M  V30 61 1 26 56
M  V30 62 1 28 57
M  V30 63 1 29 58
M  V30 64 1 32 59
M  V30 65 1 32 60
M  V30 66 1 33 61
M  V30 67 1 33 62
M  V30 68 1 34 63
M  V30 69 1 35 64
M  V30 70 1 35 65
M  V30 71 1 36 66
M  V30 72 1 36 67
M  V30 73 1 37 68
M  V30 74 1 38 69
M  V30 75 1 40 70
M  V30 76 1 41 71
M  V30 END BOND
M  V30 END CTAB
M  END
>  <Dataset>  (943) 
ChEMBL_Kinases

>  <Ligand_Instance>  (943) 
nan

>  <PDB_ID>  (943) 
nan

>  <Standardized_SMILES>  (943) 
N#Cc1ccc(-c2ccc(C(=O)N(Cc3ccccc3-c3ccccc3)c3ccc(N4CCNCC4)cc3)o2)cc1

>  <Name>  (943) 
nan

>  <Pocket>  (943) 
nan

>  <ATP_Site>  (943) 
nan

>  <Peripheral>  (943) 
nan

>  <Num_H_Atoms_ProtBoundConf>  (943) 
nan

>  <Num_Resolved_Atoms>  (943) 
nan

>  <Num_Not_Resolved_Atoms>  (943) 
nan

$$$$
CHEMBL1940517
     RDKit          3D

  0  0  0  0  0  0  0  0  0  0999 V3000
M  V30 BEGIN CTAB
M  V30 COUNTS 71 76 0 0 0
M  V30 BEGIN ATOM
M  V30 1 N 7.853582 -6.256861 4.008080 0
M  V30 2 C 7.266547 -5.279553 3.780520 0
M  V30 3 C 6.522347 -4.077068 3.495735 0
M  V30 4 C 5.288011 -4.152379 2.898448 0
M  V30 5 C 4.624086 -2.964842 2.647797 0
M  V30 6 C 5.181026 -1.749722 2.985057 0
M  V30 7 C 4.503863 -0.485504 2.732970 0
M  V30 8 C 4.952605 0.775221 2.998880 0
M  V30 9 C 3.935537 1.603235 2.568099 0
M  V30 10 C 2.911256 0.826869 2.059595 0
M  V30 11 C 1.620745 1.141817 1.479854 0
M  V30 12 O 0.701089 1.865079 1.984772 0
M  V30 13 N 1.020416 0.771865 0.260908 0
M  V30 14 C 1.449300 -0.021350 -0.895649 0
M  V30 15 C 1.117131 -1.456798 -0.738882 0
M  V30 16 C 1.978717 -2.413600 -0.221699 0
M  V30 17 C 1.624935 -3.737754 -0.085536 0
M  V30 18 C 0.353846 -4.094832 -0.488916 0
M  V30 19 C -0.540683 -3.168191 -1.011766 0
M  V30 20 C -1.858513 -3.681107 -1.393066 0
M  V30 21 C -2.879674 -2.775656 -1.254316 0
M  V30 22 C -4.147912 -3.209095 -1.597204 0
M  V30 23 C -4.385074 -4.504943 -2.062977 0
M  V30 24 C -3.301940 -5.382448 -2.182405 0
M  V30 25 C -2.009494 -4.979040 -1.845739 0
M  V30 26 C -0.132634 -1.855961 -1.125664 0
M  V30 27 C -0.305681 1.302576 0.119044 0
M  V30 28 C -1.443003 0.658217 0.626382 0
M  V30 29 C -2.691964 1.208406 0.433114 0
M  V30 30 C -2.891189 2.394748 -0.253323 0
M  V30 31 N -4.213972 2.877770 -0.410299 0
M  V30 32 C -5.380052 2.521909 0.414008 0
M  V30 33 C -6.544414 2.233796 -0.519297 0
M  V30 34 N -6.052780 1.856893 -1.839274 0
M  V30 35 C -5.519061 3.039200 -2.465679 0
M  V30 36 C -4.697003 3.788314 -1.441649 0
M  V30 37 C -1.792871 3.044918 -0.759161 0
M  V30 38 C -0.553705 2.479912 -0.555267 0
M  V30 39 O 3.316543 -0.394369 2.189629 0
M  V30 40 C 6.438140 -1.746922 3.589358 0
M  V30 41 C 7.163204 -2.904394 3.871289 0
M  V30 42 H 4.821759 -5.085641 2.619197 0
M  V30 43 H 3.660357 -3.023648 2.180767 0
M  V30 44 H 5.877748 1.081006 3.438877 0
M  V30 45 H 3.866295 2.684249 2.585603 0
M  V30 46 H 0.991301 0.389642 -1.806286 0
M  V30 47 H 2.570598 0.110679 -1.021221 0
M  V30 48 H 2.948114 -2.107011 0.078826 0
M  V30 49 H 2.335812 -4.442450 0.323596 0
M  V30 50 H 0.104119 -5.140236 -0.368727 0
M  V30 51 H -2.735221 -1.761126 -0.894941 0
M  V30 52 H -4.996293 -2.544455 -1.510561 0
M  V30 53 H -5.336076 -4.899895 -2.342465 0
M  V30 54 H -3.337002 -6.411903 -2.525497 0
M  V30 55 H -1.149067 -5.629074 -1.923180 0
M  V30 56 H -0.872219 -1.190193 -1.536910 0
M  V30 57 H -1.270731 -0.278855 1.167720 0
M  V30 58 H -3.468026 0.606949 0.875386 0
M  V30 59 H -5.203932 1.613135 1.013760 0
M  V30 60 H -5.692410 3.355444 1.074275 0
M  V30 61 H -7.250911 3.057095 -0.626012 0
M  V30 62 H -7.102639 1.363082 -0.127356 0
M  V30 63 H -6.876050 1.461590 -2.360912 0
M  V30 64 H -4.843949 2.794743 -3.314004 0
M  V30 65 H -6.331437 3.706489 -2.800163 0
M  V30 66 H -3.771796 4.184037 -1.949530 0
M  V30 67 H -5.247358 4.600293 -0.932091 0
M  V30 68 H -1.873687 3.964825 -1.297766 0
M  V30 69 H 0.328144 2.973197 -0.944620 0
M  V30 70 H 6.882015 -0.809073 3.858197 0
M  V30 71 H 8.128508 -2.850683 4.339865 0
M  V30 END ATOM
M  V30 BEGIN BOND
M  V30 1 3 1 2
M  V30 2 1 2 3
M  V30 3 2 3 4
M  V30 4 1 4 5
M  V30 5 2 5 6
M  V30 6 1 6 7
M  V30 7 2 7 8
M  V30 8 1 8 9
M  V30 9 2 9 10
M  V30 10 1 10 11
M  V30 11 2 11 12
M  V30 12 1 11 13
M  V30 13 1 13 14
M  V30 14 1 14 15
M  V30 15 2 15 16
M  V30 16 1 16 17
M  V30 17 2 17 18
M  V30 18 1 18 19
M  V30 19 1 19 20
M  V30 20 2 20 21
M  V30 21 1 21 22
M  V30 22 2 22 23
M  V30 23 1 23 24
M  V30 24 2 24 25
M  V30 25 2 19 26
M  V30 26 1 13 27
M  V30 27 2 27 28
M  V30 28 1 28 29
M  V30 29 2 29 30
M  V30 30 1 30 31
M  V30 31 1 31 32
M  V30 32 1 32 33
M  V30 33 1 33 34
M  V30 34 1 34 35
M  V30 35 1 35 36
M  V30 36 1 30 37
M  V30 37 2 37 38
M  V30 38 1 10 39
M  V30 39 1 6 40
M  V30 40 2 40 41
M  V30 41 1 41 3
M  V30 42 1 39 7
M  V30 43 1 26 15
M  V30 44 1 38 27
M  V30 45 1 25 20
M  V30 46 1 36 31
M  V30 47 1 4 42
M  V30 48 1 5 43
M  V30 49 1 8 44
M  V30 50 1 9 45
M  V30 51 1 14 46
M  V30 52 1 14 47
M  V30 53 1 16 48
M  V30 54 1 17 49
M  V30 55 1 18 50
M  V30 56 1 21 51
M  V30 57 1 22 52
M  V30 58 1 23 53
M  V30 59 1 24 54
M  V30 60 1 25 55
M  V30 61 1 26 56
M  V30 62 1 28 57
M  V30 63 1 29 58
M  V30 64 1 32 59
M  V30 65 1 32 60
M  V30 66 1 33 61
M  V30 67 1 33 62
M  V30 68 1 34 63
M  V30 69 1 35 64
M  V30 70 1 35 65
M  V30 71 1 36 66
M  V30 72 1 36 67
M  V30 73 1 37 68
M  V30 74 1 38 69
M  V30 75 1 40 70
M  V30 76 1 41 71
M  V30 END BOND
M  V30 END CTAB
M  END
>  <Dataset>  (944) 
ChEMBL_Kinases

>  <Ligand_Instance>  (944) 
nan

>  <PDB_ID>  (944) 
nan

>  <Standardized_SMILES>  (944) 
N#Cc1ccc(-c2ccc(C(=O)N(Cc3cccc(-c4ccccc4)c3)c3ccc(N4CCNCC4)cc3)o2)cc1

>  <Name>  (944) 
nan

>  <Pocket>  (944) 
nan

>  <ATP_Site>  (944) 
nan

>  <Peripheral>  (944) 
nan

>  <Num_H_Atoms_ProtBoundConf>  (944) 
nan

>  <Num_Resolved_Atoms>  (944) 
nan

>  <Num_Not_Resolved_Atoms>  (944) 
nan

$$$$
CHEMBL1940516
     RDKit          3D

  0  0  0  0  0  0  0  0  0  0999 V3000
M  V30 BEGIN CTAB
M  V30 COUNTS 71 76 0 0 0
M  V30 BEGIN ATOM
M  V30 1 N 8.030371 -4.576081 0.222157 0
M  V30 2 C 7.269196 -3.734959 0.521030 0
M  V30 3 C 6.337240 -2.716959 0.908291 0
M  V30 4 C 5.180954 -3.029309 1.591480 0
M  V30 5 C 4.212580 -2.097210 2.007042 0
M  V30 6 C 4.473124 -0.782725 1.688393 0
M  V30 7 C 3.550823 0.300943 2.051521 0
M  V30 8 C 3.690513 1.645592 1.805419 0
M  V30 9 C 2.583543 2.306061 2.319124 0
M  V30 10 C 1.795413 1.300359 2.871404 0
M  V30 11 C 0.492853 1.400134 3.559735 0
M  V30 12 O 0.674042 1.354289 4.802842 0
M  V30 13 N -0.571829 1.515435 2.595886 0
M  V30 14 C -2.003427 1.569131 2.933561 0
M  V30 15 C -2.645419 0.266480 2.794374 0
M  V30 16 C -2.754179 -0.761513 3.701474 0
M  V30 17 C -3.415208 -1.916076 3.336800 0
M  V30 18 C -3.985798 -2.110309 2.097142 0
M  V30 19 C -4.684395 -3.324466 1.691896 0
M  V30 20 C -4.678985 -3.760272 0.362395 0
M  V30 21 C -5.329196 -4.907744 -0.069097 0
M  V30 22 C -6.023163 -5.679790 0.823055 0
M  V30 23 C -6.052763 -5.278036 2.161428 0
M  V30 24 C -5.390239 -4.131805 2.531443 0
M  V30 25 C -3.878847 -1.082683 1.187448 0
M  V30 26 C -3.216139 0.103906 1.520186 0
M  V30 27 C -0.475017 1.571139 1.156652 0
M  V30 28 C -0.422684 0.246406 0.701345 0
M  V30 29 C -0.364434 -0.060699 -0.663991 0
M  V30 30 C -0.362856 1.036621 -1.528291 0
M  V30 31 N -0.317482 0.762088 -2.912115 0
M  V30 32 C -0.628333 1.714911 -3.991157 0
M  V30 33 C -1.231817 0.982180 -5.179012 0
M  V30 34 N -0.187991 0.172474 -5.777288 0
M  V30 35 C 0.767593 -0.253438 -4.777652 0
M  V30 36 C 0.059913 -0.547167 -3.445878 0
M  V30 37 C -0.412980 2.313245 -1.059309 0
M  V30 38 C -0.469687 2.618372 0.280460 0
M  V30 39 O 2.408438 0.156486 2.686130 0
M  V30 40 C 5.629921 -0.434598 1.000272 0
M  V30 41 C 6.559097 -1.365746 0.606872 0
M  V30 42 H 5.046053 -4.095038 1.805895 0
M  V30 43 H 3.332195 -2.390918 2.536215 0
M  V30 44 H 4.520547 2.107337 1.297039 0
M  V30 45 H 2.335781 3.339902 2.323085 0
M  V30 46 H -2.063082 1.878543 4.004563 0
M  V30 47 H -2.481923 2.359563 2.342208 0
M  V30 48 H -2.300083 -0.570785 4.651781 0
M  V30 49 H -3.492346 -2.722674 4.069378 0
M  V30 50 H -4.128345 -3.159482 -0.378286 0
M  V30 51 H -5.288111 -5.185642 -1.095769 0
M  V30 52 H -6.517940 -6.560230 0.462348 0
M  V30 53 H -6.609184 -5.894800 2.883260 0
M  V30 54 H -5.410434 -3.809555 3.586569 0
M  V30 55 H -4.322812 -1.220416 0.209761 0
M  V30 56 H -3.214835 0.843725 0.703988 0
M  V30 57 H -0.416877 -0.673998 1.302191 0
M  V30 58 H -0.321325 -1.053605 -1.061186 0
M  V30 59 H 0.324757 2.154034 -4.330121 0
M  V30 60 H -1.318959 2.515812 -3.658319 0
M  V30 61 H -1.566248 1.751733 -5.890632 0
M  V30 62 H -2.110512 0.361448 -4.909726 0
M  V30 63 H 0.340772 0.780483 -6.460837 0
M  V30 64 H 1.511636 0.522476 -4.556764 0
M  V30 65 H 1.199214 -1.221071 -5.110629 0
M  V30 66 H 0.815827 -1.058557 -2.822863 0
M  V30 67 H -0.792555 -1.193902 -3.658108 0
M  V30 68 H -0.413360 3.198332 -1.710620 0
M  V30 69 H -0.511607 3.563438 0.794168 0
M  V30 70 H 5.822664 0.613945 0.753939 0
M  V30 71 H 7.455620 -1.094199 0.073603 0
M  V30 END ATOM
M  V30 BEGIN BOND
M  V30 1 3 1 2
M  V30 2 1 2 3
M  V30 3 2 3 4
M  V30 4 1 4 5
M  V30 5 2 5 6
M  V30 6 1 6 7
M  V30 7 2 7 8
M  V30 8 1 8 9
M  V30 9 2 9 10
M  V30 10 1 10 11
M  V30 11 2 11 12
M  V30 12 1 11 13
M  V30 13 1 13 14
M  V30 14 1 14 15
M  V30 15 2 15 16
M  V30 16 1 16 17
M  V30 17 2 17 18
M  V30 18 1 18 19
M  V30 19 2 19 20
M  V30 20 1 20 21
M  V30 21 2 21 22
M  V30 22 1 22 23
M  V30 23 2 23 24
M  V30 24 1 18 25
M  V30 25 2 25 26
M  V30 26 1 13 27
M  V30 27 2 27 28
M  V30 28 1 28 29
M  V30 29 2 29 30
M  V30 30 1 30 31
M  V30 31 1 31 32
M  V30 32 1 32 33
M  V30 33 1 33 34
M  V30 34 1 34 35
M  V30 35 1 35 36
M  V30 36 1 30 37
M  V30 37 2 37 38
M  V30 38 1 10 39
M  V30 39 1 6 40
M  V30 40 2 40 41
M  V30 41 1 41 3
M  V30 42 1 39 7
M  V30 43 1 26 15
M  V30 44 1 38 27
M  V30 45 1 24 19
M  V30 46 1 36 31
M  V30 47 1 4 42
M  V30 48 1 5 43
M  V30 49 1 8 44
M  V30 50 1 9 45
M  V30 51 1 14 46
M  V30 52 1 14 47
M  V30 53 1 16 48
M  V30 54 1 17 49
M  V30 55 1 20 50
M  V30 56 1 21 51
M  V30 57 1 22 52
M  V30 58 1 23 53
M  V30 59 1 24 54
M  V30 60 1 25 55
M  V30 61 1 26 56
M  V30 62 1 28 57
M  V30 63 1 29 58
M  V30 64 1 32 59
M  V30 65 1 32 60
M  V30 66 1 33 61
M  V30 67 1 33 62
M  V30 68 1 34 63
M  V30 69 1 35 64
M  V30 70 1 35 65
M  V30 71 1 36 66
M  V30 72 1 36 67
M  V30 73 1 37 68
M  V30 74 1 38 69
M  V30 75 1 40 70
M  V30 76 1 41 71
M  V30 END BOND
M  V30 END CTAB
M  END
>  <Dataset>  (945) 
ChEMBL_Kinases

>  <Ligand_Instance>  (945) 
nan

>  <PDB_ID>  (945) 
nan

>  <Standardized_SMILES>  (945) 
N#Cc1ccc(-c2ccc(C(=O)N(Cc3ccc(-c4ccccc4)cc3)c3ccc(N4CCNCC4)cc3)o2)cc1

>  <Name>  (945) 
nan

>  <Pocket>  (945) 
nan

>  <ATP_Site>  (945) 
nan

>  <Peripheral>  (945) 
nan

>  <Num_H_Atoms_ProtBoundConf>  (945) 
nan

>  <Num_Resolved_Atoms>  (945) 
nan

>  <Num_Not_Resolved_Atoms>  (945) 
nan

$$$$
CHEMBL1940513
     RDKit          3D

  0  0  0  0  0  0  0  0  0  0999 V3000
M  V30 BEGIN CTAB
M  V30 COUNTS 63 67 0 0 0
M  V30 BEGIN ATOM
M  V30 1 C 3.348366 -1.247657 5.687441 0
M  V30 2 C 3.447041 -1.715834 4.265854 0
M  V30 3 C 3.439804 -3.058169 3.988852 0
M  V30 4 C 3.521172 -3.550722 2.709482 0
M  V30 5 C 3.611929 -2.610063 1.700085 0
M  V30 6 C 3.617733 -1.254486 1.997376 0
M  V30 7 C 3.694983 -0.151450 1.000870 0
M  V30 8 N 2.339731 0.277986 0.620824 0
M  V30 9 C 1.869063 1.327345 1.496104 0
M  V30 10 O 2.456791 1.858648 2.463334 0
M  V30 11 C 0.540169 1.894510 1.286593 0
M  V30 12 C 0.048119 2.853811 0.417407 0
M  V30 13 C -1.313743 2.934948 0.733061 0
M  V30 14 C -1.560377 2.037633 1.753858 0
M  V30 15 C -2.874465 1.834989 2.355812 0
M  V30 16 C -3.982782 2.547077 1.945804 0
M  V30 17 C -5.218966 2.340712 2.524601 0
M  V30 18 C -5.290956 1.385308 3.535033 0
M  V30 19 C -6.562860 1.123413 4.179102 0
M  V30 20 N -7.570280 0.904747 4.709501 0
M  V30 21 C -4.211744 0.647091 3.980875 0
M  V30 22 C -2.994012 0.890037 3.369550 0
M  V30 23 O -0.426733 1.424538 2.067906 0
M  V30 24 C 1.515586 -0.195998 -0.429395 0
M  V30 25 C 1.394111 0.236105 -1.731742 0
M  V30 26 C 0.512894 -0.385986 -2.589699 0
M  V30 27 C -0.272780 -1.448128 -2.193842 0
M  V30 28 N -1.194602 -2.066557 -3.114486 0
M  V30 29 C -1.809635 -3.375149 -2.839087 0
M  V30 30 C -1.860893 -4.106856 -4.154293 0
M  V30 31 N -0.899996 -3.638885 -5.125580 0
M  V30 32 C -1.056556 -2.267520 -5.495534 0
M  V30 33 C -1.599798 -1.454360 -4.361387 0
M  V30 34 C -0.184097 -1.918142 -0.890052 0
M  V30 35 C 0.714245 -1.273508 -0.039207 0
M  V30 36 N 3.536441 -0.817950 3.264643 0
M  V30 37 H 2.788709 -2.028534 6.231472 0
M  V30 38 H 2.816773 -0.271167 5.739547 0
M  V30 39 H 4.364885 -1.169348 6.097022 0
M  V30 40 H 3.368568 -3.791983 4.785542 0
M  V30 41 H 3.517272 -4.585388 2.461282 0
M  V30 42 H 3.684191 -2.872305 0.633866 0
M  V30 43 H 4.307451 0.660524 1.381673 0
M  V30 44 H 4.226867 -0.558667 0.112098 0
M  V30 45 H 0.699708 3.342585 -0.290675 0
M  V30 46 H -1.955675 3.619030 0.197811 0
M  V30 47 H -3.847736 3.282368 1.145651 0
M  V30 48 H -6.102353 2.897742 2.208727 0
M  V30 49 H -4.329269 -0.089207 4.775999 0
M  V30 50 H -2.125547 0.324765 3.698221 0
M  V30 51 H 2.035228 1.066158 -1.964495 0
M  V30 52 H 0.490064 0.019467 -3.580744 0
M  V30 53 H -2.855292 -3.157234 -2.528352 0
M  V30 54 H -1.229449 -3.955512 -2.091053 0
M  V30 55 H -2.889762 -4.138231 -4.554301 0
M  V30 56 H -1.562395 -5.175211 -3.942939 0
M  V30 57 H 0.052984 -3.972989 -4.963640 0
M  V30 58 H -0.040126 -1.852682 -5.762444 0
M  V30 59 H -1.709287 -2.180295 -6.400669 0
M  V30 60 H -2.724978 -1.504134 -4.460447 0
M  V30 61 H -1.305878 -0.387560 -4.416278 0
M  V30 62 H -0.782987 -2.741648 -0.547295 0
M  V30 63 H 0.729669 -1.694594 0.965047 0
M  V30 END ATOM
M  V30 BEGIN BOND
M  V30 1 1 1 2
M  V30 2 2 2 3
M  V30 3 1 3 4
M  V30 4 2 4 5
M  V30 5 1 5 6
M  V30 6 1 6 7
M  V30 7 1 7 8
M  V30 8 1 8 9
M  V30 9 2 9 10
M  V30 10 1 9 11
M  V30 11 2 11 12
M  V30 12 1 12 13
M  V30 13 2 13 14
M  V30 14 1 14 15
M  V30 15 2 15 16
M  V30 16 1 16 17
M  V30 17 2 17 18
M  V30 18 1 18 19
M  V30 19 3 19 20
M  V30 20 1 18 21
M  V30 21 2 21 22
M  V30 22 1 14 23
M  V30 23 1 8 24
M  V30 24 2 24 25
M  V30 25 1 25 26
M  V30 26 2 26 27
M  V30 27 1 27 28
M  V30 28 1 28 29
M  V30 29 1 29 30
M  V30 30 1 30 31
M  V30 31 1 31 32
M  V30 32 1 32 33
M  V30 33 1 27 34
M  V30 34 2 34 35
M  V30 35 2 6 36
M  V30 36 1 36 2
M  V30 37 1 23 11
M  V30 38 1 35 24
M  V30 39 1 22 15
M  V30 40 1 33 28
M  V30 41 1 1 37
M  V30 42 1 1 38
M  V30 43 1 1 39
M  V30 44 1 3 40
M  V30 45 1 4 41
M  V30 46 1 5 42
M  V30 47 1 7 43
M  V30 48 1 7 44
M  V30 49 1 12 45
M  V30 50 1 13 46
M  V30 51 1 16 47
M  V30 52 1 17 48
M  V30 53 1 21 49
M  V30 54 1 22 50
M  V30 55 1 25 51
M  V30 56 1 26 52
M  V30 57 1 29 53
M  V30 58 1 29 54
M  V30 59 1 30 55
M  V30 60 1 30 56
M  V30 61 1 31 57
M  V30 62 1 32 58
M  V30 63 1 32 59
M  V30 64 1 33 60
M  V30 65 1 33 61
M  V30 66 1 34 62
M  V30 67 1 35 63
M  V30 END BOND
M  V30 END CTAB
M  END
>  <Dataset>  (946) 
ChEMBL_Kinases

>  <Ligand_Instance>  (946) 
nan

>  <PDB_ID>  (946) 
nan

>  <Standardized_SMILES>  (946) 
Cc1cccc(CN(C(=O)c2ccc(-c3ccc(C#N)cc3)o2)c2ccc(N3CCNCC3)cc2)n1

>  <Name>  (946) 
nan

>  <Pocket>  (946) 
nan

>  <ATP_Site>  (946) 
nan

>  <Peripheral>  (946) 
nan

>  <Num_H_Atoms_ProtBoundConf>  (946) 
nan

>  <Num_Resolved_Atoms>  (946) 
nan

>  <Num_Not_Resolved_Atoms>  (946) 
nan

$$$$
CHEMBL1940512
     RDKit          3D

  0  0  0  0  0  0  0  0  0  0999 V3000
M  V30 BEGIN CTAB
M  V30 COUNTS 51 54 0 0 0
M  V30 BEGIN ATOM
M  V30 1 N 4.207463 -7.564043 3.199756 0
M  V30 2 C 3.810134 -6.673648 2.581458 0
M  V30 3 C 3.336763 -5.560236 1.799407 0
M  V30 4 C 3.310162 -5.609536 0.401615 0
M  V30 5 C 2.857262 -4.545476 -0.363337 0
M  V30 6 C 2.422583 -3.409691 0.287206 0
M  V30 7 C 1.924377 -2.223786 -0.403951 0
M  V30 8 C 1.857710 -2.155860 -1.779497 0
M  V30 9 C 1.348591 -0.916932 -2.103311 0
M  V30 10 C 1.119285 -0.264209 -0.906124 0
M  V30 11 C 0.622956 1.000748 -0.375931 0
M  V30 12 O 1.571970 1.785723 -0.215516 0
M  V30 13 N -0.652522 1.522867 -0.012900 0
M  V30 14 C -0.621683 2.879889 0.491888 0
M  V30 15 C -0.505375 2.968474 1.967670 0
M  V30 16 C 0.636280 3.052461 2.736234 0
M  V30 17 C 0.590561 3.126287 4.107858 0
M  V30 18 C -0.617961 3.118689 4.771084 0
M  V30 19 C -1.711480 3.032907 3.937152 0
M  V30 20 N -1.713750 2.959013 2.595429 0
M  V30 21 C -1.932655 0.805621 -0.118939 0
M  V30 22 C -1.957263 -0.476966 0.620395 0
M  V30 23 C -2.194492 -1.700582 -0.235859 0
M  V30 24 N -3.407080 -1.515029 -0.974650 0
M  V30 25 C -3.509798 -0.291741 -1.701429 0
M  V30 26 C -2.237854 0.511974 -1.586117 0
M  V30 27 O 1.474803 -1.074481 0.087799 0
M  V30 28 C 2.447586 -3.356245 1.686229 0
M  V30 29 C 2.898467 -4.415616 2.447014 0
M  V30 30 H 3.649050 -6.496317 -0.113877 0
M  V30 31 H 2.825750 -4.556233 -1.439151 0
M  V30 32 H 2.104910 -2.825520 -2.591376 0
M  V30 33 H 1.088822 -0.334666 -2.968652 0
M  V30 34 H -1.517941 3.444826 0.129740 0
M  V30 35 H 0.245874 3.459729 0.089277 0
M  V30 36 H 1.558557 3.058531 2.189401 0
M  V30 37 H 1.510440 3.190432 4.671121 0
M  V30 38 H -0.723135 3.173906 5.844792 0
M  V30 39 H -2.687678 3.025337 4.451526 0
M  V30 40 H -2.711839 1.504016 0.260048 0
M  V30 41 H -1.089280 -0.638061 1.291070 0
M  V30 42 H -2.839296 -0.454095 1.328707 0
M  V30 43 H -2.310498 -2.574406 0.448239 0
M  V30 44 H -1.323995 -1.824175 -0.903291 0
M  V30 45 H -4.231968 -1.623658 -0.354922 0
M  V30 46 H -3.576346 -0.577094 -2.790657 0
M  V30 47 H -4.378079 0.334601 -1.405043 0
M  V30 48 H -2.314529 1.472748 -2.141942 0
M  V30 49 H -1.409446 -0.113109 -1.964698 0
M  V30 50 H 2.105899 -2.462205 2.213497 0
M  V30 51 H 2.897388 -4.321872 3.540216 0
M  V30 END ATOM
M  V30 BEGIN BOND
M  V30 1 3 1 2
M  V30 2 1 2 3
M  V30 3 2 3 4
M  V30 4 1 4 5
M  V30 5 2 5 6
M  V30 6 1 6 7
M  V30 7 2 7 8
M  V30 8 1 8 9
M  V30 9 2 9 10
M  V30 10 1 10 11
M  V30 11 2 11 12
M  V30 12 1 11 13
M  V30 13 1 13 14
M  V30 14 1 14 15
M  V30 15 2 15 16
M  V30 16 1 16 17
M  V30 17 2 17 18
M  V30 18 1 18 19
M  V30 19 2 19 20
M  V30 20 1 13 21
M  V30 21 1 21 22
M  V30 22 1 22 23
M  V30 23 1 23 24
M  V30 24 1 24 25
M  V30 25 1 25 26
M  V30 26 1 10 27
M  V30 27 1 6 28
M  V30 28 2 28 29
M  V30 29 1 29 3
M  V30 30 1 27 7
M  V30 31 1 20 15
M  V30 32 1 26 21
M  V30 33 1 4 30
M  V30 34 1 5 31
M  V30 35 1 8 32
M  V30 36 1 9 33
M  V30 37 1 14 34
M  V30 38 1 14 35
M  V30 39 1 16 36
M  V30 40 1 17 37
M  V30 41 1 18 38
M  V30 42 1 19 39
M  V30 43 1 21 40
M  V30 44 1 22 41
M  V30 45 1 22 42
M  V30 46 1 23 43
M  V30 47 1 23 44
M  V30 48 1 24 45
M  V30 49 1 25 46
M  V30 50 1 25 47
M  V30 51 1 26 48
M  V30 52 1 26 49
M  V30 53 1 28 50
M  V30 54 1 29 51
M  V30 END BOND
M  V30 END CTAB
M  END
>  <Dataset>  (947) 
ChEMBL_Kinases

>  <Ligand_Instance>  (947) 
nan

>  <PDB_ID>  (947) 
nan

>  <Standardized_SMILES>  (947) 
N#Cc1ccc(-c2ccc(C(=O)N(Cc3ccccn3)C3CCNCC3)o2)cc1

>  <Name>  (947) 
nan

>  <Pocket>  (947) 
nan

>  <ATP_Site>  (947) 
nan

>  <Peripheral>  (947) 
nan

>  <Num_H_Atoms_ProtBoundConf>  (947) 
nan

>  <Num_Resolved_Atoms>  (947) 
nan

>  <Num_Not_Resolved_Atoms>  (947) 
nan

$$$$
CHEMBL1940647
     RDKit          3D

  0  0  0  0  0  0  0  0  0  0999 V3000
M  V30 BEGIN CTAB
M  V30 COUNTS 75 80 0 0 0
M  V30 BEGIN ATOM
M  V30 1 C 0.970293 -1.607192 6.394263 0
M  V30 2 O 0.546091 -1.998674 5.099477 0
M  V30 3 C 1.329374 -1.639503 4.011374 0
M  V30 4 C 2.523940 -0.913726 4.119217 0
M  V30 5 C 3.214484 -0.607652 2.981013 0
M  V30 6 C 2.846851 -0.949800 1.716193 0
M  V30 7 C 1.670239 -1.671855 1.524427 0
M  V30 8 C 1.075972 -2.176311 0.265723 0
M  V30 9 C 1.927830 -2.987901 -0.451911 0
M  V30 10 C 1.436263 -3.586052 -1.601948 0
M  V30 11 C 0.141841 -3.360760 -1.991982 0
M  V30 12 C -0.611103 -2.534814 -1.201948 0
M  V30 13 C -0.262699 -1.883891 -0.053370 0
M  V30 14 C -1.028242 -0.888852 0.714647 0
M  V30 15 N -1.366289 0.282841 -0.087692 0
M  V30 16 C -2.703806 0.134343 -0.624544 0
M  V30 17 O -3.021974 1.000918 -1.520677 0
M  V30 18 C -3.693489 -0.897375 -0.226651 0
M  V30 19 C -5.032340 -0.663865 -0.049185 0
M  V30 20 C -5.623211 -1.867706 0.322462 0
M  V30 21 C -4.616553 -2.796886 0.357418 0
M  V30 22 C -4.558722 -4.246995 0.677478 0
M  V30 23 C -3.349520 -4.911672 0.529399 0
M  V30 24 C -3.265544 -6.242756 0.867954 0
M  V30 25 C -4.376567 -6.890761 1.346690 0
M  V30 26 C -4.185527 -8.267732 1.693003 0
M  V30 27 N -4.030319 -9.397714 1.965034 0
M  V30 28 C -5.603746 -6.240263 1.502580 0
M  V30 29 C -5.664287 -4.897242 1.153680 0
M  V30 30 O -3.560571 -2.147286 0.029883 0
M  V30 31 C -0.516456 1.362089 -0.365827 0
M  V30 32 C 0.096834 1.062807 -1.598639 0
M  V30 33 C 1.035262 1.911273 -2.204340 0
M  V30 34 C 1.380181 3.084884 -1.577855 0
M  V30 35 N 2.320899 4.000571 -2.132612 0
M  V30 36 C 3.052940 5.062294 -1.433350 0
M  V30 37 C 4.491494 4.889473 -1.856859 0
M  V30 38 N 4.699327 3.505900 -2.336664 0
M  V30 39 C 4.039763 3.336880 -3.632716 0
M  V30 40 C 2.663066 3.980493 -3.568555 0
M  V30 41 C 0.778138 3.386751 -0.356490 0
M  V30 42 C -0.141169 2.550028 0.227425 0
M  V30 43 C 0.991548 -1.965481 2.717880 0
M  V30 44 H 0.993394 -0.483222 6.435689 0
M  V30 45 H 1.970060 -2.016593 6.604494 0
M  V30 46 H 0.195591 -2.026016 7.097728 0
M  V30 47 H 2.823494 -0.643432 5.118474 0
M  V30 48 H 4.151099 -0.035406 3.087502 0
M  V30 49 H 3.358233 -0.729507 0.795254 0
M  V30 50 H 2.948066 -3.172866 -0.159661 0
M  V30 51 H 2.101225 -4.219444 -2.162209 0
M  V30 52 H -0.236279 -3.825603 -2.891229 0
M  V30 53 H -1.603661 -2.385952 -1.596342 0
M  V30 54 H -1.850191 -1.329217 1.236471 0
M  V30 55 H -0.323050 -0.478011 1.515888 0
M  V30 56 H -5.623692 0.230813 -0.147963 0
M  V30 57 H -6.659738 -2.174191 0.572417 0
M  V30 58 H -2.431866 -4.433995 0.146479 0
M  V30 59 H -2.295738 -6.759650 0.745333 0
M  V30 60 H -6.438310 -6.802854 1.883748 0
M  V30 61 H -6.624037 -4.446119 1.297512 0
M  V30 62 H -0.027484 0.187729 -2.265945 0
M  V30 63 H 1.534924 1.742455 -3.140511 0
M  V30 64 H 2.628015 6.018977 -1.793890 0
M  V30 65 H 2.890475 5.024275 -0.340144 0
M  V30 66 H 4.666475 5.515578 -2.760710 0
M  V30 67 H 5.229872 5.078266 -1.068797 0
M  V30 68 H 4.220631 2.887364 -1.642824 0
M  V30 69 H 4.658455 3.731388 -4.461001 0
M  V30 70 H 3.877876 2.261519 -3.836298 0
M  V30 71 H 1.894148 3.454253 -4.146467 0
M  V30 72 H 2.726196 5.047605 -3.944382 0
M  V30 73 H 1.005850 4.279896 0.193051 0
M  V30 74 H -0.676689 2.649171 1.151513 0
M  V30 75 H 0.052277 -2.539156 2.634259 0
M  V30 END ATOM
M  V30 BEGIN BOND
M  V30 1 1 1 2
M  V30 2 1 2 3
M  V30 3 2 3 4
M  V30 4 1 4 5
M  V30 5 2 5 6
M  V30 6 1 6 7
M  V30 7 1 7 8
M  V30 8 2 8 9
M  V30 9 1 9 10
M  V30 10 2 10 11
M  V30 11 1 11 12
M  V30 12 2 12 13
M  V30 13 1 13 14
M  V30 14 1 14 15
M  V30 15 1 15 16
M  V30 16 2 16 17
M  V30 17 1 16 18
M  V30 18 2 18 19
M  V30 19 1 19 20
M  V30 20 2 20 21
M  V30 21 1 21 22
M  V30 22 2 22 23
M  V30 23 1 23 24
M  V30 24 2 24 25
M  V30 25 1 25 26
M  V30 26 3 26 27
M  V30 27 1 25 28
M  V30 28 2 28 29
M  V30 29 1 21 30
M  V30 30 1 15 31
M  V30 31 2 31 32
M  V30 32 1 32 33
M  V30 33 2 33 34
M  V30 34 1 34 35
M  V30 35 1 35 36
M  V30 36 1 36 37
M  V30 37 1 37 38
M  V30 38 1 38 39
M  V30 39 1 39 40
M  V30 40 1 34 41
M  V30 41 2 41 42
M  V30 42 2 7 43
M  V30 43 1 43 3
M  V30 44 1 13 8
M  V30 45 1 30 18
M  V30 46 1 42 31
M  V30 47 1 29 22
M  V30 48 1 40 35
M  V30 49 1 1 44
M  V30 50 1 1 45
M  V30 51 1 1 46
M  V30 52 1 4 47
M  V30 53 1 5 48
M  V30 54 1 6 49
M  V30 55 1 9 50
M  V30 56 1 10 51
M  V30 57 1 11 52
M  V30 58 1 12 53
M  V30 59 1 14 54
M  V30 60 1 14 55
M  V30 61 1 19 56
M  V30 62 1 20 57
M  V30 63 1 23 58
M  V30 64 1 24 59
M  V30 65 1 28 60
M  V30 66 1 29 61
M  V30 67 1 32 62
M  V30 68 1 33 63
M  V30 69 1 36 64
M  V30 70 1 36 65
M  V30 71 1 37 66
M  V30 72 1 37 67
M  V30 73 1 38 68
M  V30 74 1 39 69
M  V30 75 1 39 70
M  V30 76 1 40 71
M  V30 77 1 40 72
M  V30 78 1 41 73
M  V30 79 1 42 74
M  V30 80 1 43 75
M  V30 END BOND
M  V30 END CTAB
M  END
>  <Dataset>  (948) 
ChEMBL_Kinases

>  <Ligand_Instance>  (948) 
nan

>  <PDB_ID>  (948) 
nan

>  <Standardized_SMILES>  (948) 
COc1cccc(-c2ccccc2CN(C(=O)c2ccc(-c3ccc(C#N)cc3)o2)c2ccc(N3CCNCC3)cc2)c1

>  <Name>  (948) 
nan

>  <Pocket>  (948) 
nan

>  <ATP_Site>  (948) 
nan

>  <Peripheral>  (948) 
nan

>  <Num_H_Atoms_ProtBoundConf>  (948) 
nan

>  <Num_Resolved_Atoms>  (948) 
nan

>  <Num_Not_Resolved_Atoms>  (948) 
nan

$$$$
CHEMBL1945025
     RDKit          3D

  0  0  0  0  0  0  0  0  0  0999 V3000
M  V30 BEGIN CTAB
M  V30 COUNTS 41 44 0 0 0
M  V30 BEGIN ATOM
M  V30 1 N 6.582932 -3.909611 1.068367 0
M  V30 2 C 5.241495 -3.565441 1.379763 0
M  V30 3 O 4.850802 -4.168930 2.429958 0
M  V30 4 C 4.378021 -2.650707 0.635397 0
M  V30 5 C 4.735328 -1.984553 -0.505700 0
M  V30 6 C 3.884682 -1.142741 -1.153709 0
M  V30 7 C 2.594979 -0.901344 -0.701569 0
M  V30 8 N 1.732116 -0.025386 -1.407773 0
M  V30 9 C 0.449544 0.441259 -1.019140 0
M  V30 10 N -0.234925 1.219038 -1.899604 0
M  V30 11 C -1.443399 1.731654 -1.667024 0
M  V30 12 C -2.058080 1.471450 -0.466231 0
M  V30 13 C -1.386247 0.685467 0.446203 0
M  V30 14 N -0.182691 0.210352 0.140582 0
M  V30 15 C -1.844670 0.289400 1.772240 0
M  V30 16 C -0.766499 0.046016 2.597646 0
M  V30 17 C -1.056669 -0.342402 3.895219 0
M  V30 18 C -2.380363 -0.473786 4.322945 0
M  V30 19 Cl -2.707894 -0.971188 5.985129 0
M  V30 20 C -3.448290 -0.220823 3.466369 0
M  V30 21 C -3.181989 0.167681 2.167978 0
M  V30 22 N -4.374450 0.396440 1.405426 0
M  V30 23 C -4.409109 1.266194 0.280603 0
M  V30 24 O -5.573432 1.306359 -0.241983 0
M  V30 25 C -3.379239 2.106633 -0.375545 0
M  V30 26 C 2.279109 -1.590755 0.446224 0
M  V30 27 C 3.112048 -2.448015 1.126530 0
M  V30 28 H 7.238870 -4.207541 0.337014 0
M  V30 29 H 7.356067 -3.909602 1.771791 0
M  V30 30 H 5.743508 -2.146299 -0.896264 0
M  V30 31 H 4.254170 -0.655809 -2.053766 0
M  V30 32 H 2.105987 0.311332 -2.334805 0
M  V30 33 H -1.906218 2.344624 -2.444349 0
M  V30 34 H 0.230827 0.170064 2.200695 0
M  V30 35 H -0.220376 -0.542797 4.574812 0
M  V30 36 H -4.482688 -0.313382 3.767029 0
M  V30 37 H -5.210165 -0.124107 1.740867 0
M  V30 38 H -3.761563 2.420949 -1.357891 0
M  V30 39 H -3.296511 3.040723 0.228650 0
M  V30 40 H 1.294805 -1.470415 0.868502 0
M  V30 41 H 2.793014 -2.956051 2.024497 0
M  V30 END ATOM
M  V30 BEGIN BOND
M  V30 1 1 1 2
M  V30 2 2 2 3
M  V30 3 1 2 4
M  V30 4 2 4 5
M  V30 5 1 5 6
M  V30 6 2 6 7
M  V30 7 1 7 8
M  V30 8 1 8 9
M  V30 9 2 9 10
M  V30 10 1 10 11
M  V30 11 2 11 12
M  V30 12 1 12 13
M  V30 13 2 13 14
M  V30 14 1 13 15
M  V30 15 2 15 16
M  V30 16 1 16 17
M  V30 17 2 17 18
M  V30 18 1 18 19
M  V30 19 1 18 20
M  V30 20 2 20 21
M  V30 21 1 21 22
M  V30 22 1 22 23
M  V30 23 2 23 24
M  V30 24 1 23 25
M  V30 25 1 7 26
M  V30 26 2 26 27
M  V30 27 1 27 4
M  V30 28 1 14 9
M  V30 29 1 21 15
M  V30 30 1 25 12
M  V30 31 1 1 28
M  V30 32 1 1 29
M  V30 33 1 5 30
M  V30 34 1 6 31
M  V30 35 1 8 32
M  V30 36 1 11 33
M  V30 37 1 16 34
M  V30 38 1 17 35
M  V30 39 1 20 36
M  V30 40 1 22 37
M  V30 41 1 25 38
M  V30 42 1 25 39
M  V30 43 1 26 40
M  V30 44 1 27 41
M  V30 END BOND
M  V30 END CTAB
M  END
>  <Dataset>  (949) 
ChEMBL_Kinases

>  <Ligand_Instance>  (949) 
nan

>  <PDB_ID>  (949) 
nan

>  <Standardized_SMILES>  (949) 
NC(=O)c1ccc(Nc2ncc3c(n2)-c2ccc(Cl)cc2NC(=O)C3)cc1

>  <Name>  (949) 
nan

>  <Pocket>  (949) 
nan

>  <ATP_Site>  (949) 
nan

>  <Peripheral>  (949) 
nan

>  <Num_H_Atoms_ProtBoundConf>  (949) 
nan

>  <Num_Resolved_Atoms>  (949) 
nan

>  <Num_Not_Resolved_Atoms>  (949) 
nan

$$$$
CHEMBL1945024
     RDKit          3D

  0  0  0  0  0  0  0  0  0  0999 V3000
M  V30 BEGIN CTAB
M  V30 COUNTS 54 58 0 0 0
M  V30 BEGIN ATOM
M  V30 1 C 0.216181 -2.425494 4.788952 0
M  V30 2 N 1.099749 -3.541437 4.983717 0
M  V30 3 C 2.392023 -3.130053 5.412385 0
M  V30 4 C 3.391704 -2.922964 4.281370 0
M  V30 5 N 2.648048 -3.033911 3.063075 0
M  V30 6 C 2.434963 -2.005510 2.126088 0
M  V30 7 C 3.022049 -0.777092 2.271847 0
M  V30 8 C 2.798478 0.220765 1.338318 0
M  V30 9 C 1.992439 0.045487 0.233068 0
M  V30 10 N 1.784660 1.081201 -0.716757 0
M  V30 11 C 0.882154 0.835910 -1.798582 0
M  V30 12 N 1.127721 0.256453 -2.988852 0
M  V30 13 C 0.112147 0.133299 -3.868932 0
M  V30 14 C -1.176589 0.572093 -3.615742 0
M  V30 15 C -1.359620 1.161932 -2.365170 0
M  V30 16 N -0.353374 1.298499 -1.459450 0
M  V30 17 C -2.639001 1.693783 -1.906041 0
M  V30 18 C -2.413764 2.605822 -0.888053 0
M  V30 19 C -3.465829 3.261590 -0.274195 0
M  V30 20 C -4.739676 2.983693 -0.701242 0
M  V30 21 Cl -6.078289 3.806997 0.067458 0
M  V30 22 C -4.981474 2.078090 -1.713548 0
M  V30 23 C -3.931988 1.430604 -2.318958 0
M  V30 24 N -4.278335 0.501724 -3.367177 0
M  V30 25 C -3.431356 -0.095551 -4.351545 0
M  V30 26 O -3.949464 -1.091594 -4.937697 0
M  V30 27 C -2.059979 0.301081 -4.754643 0
M  V30 28 C 1.405597 -1.187449 0.091191 0
M  V30 29 C 1.635548 -2.177103 1.029054 0
M  V30 30 C 2.156283 -4.393132 2.955518 0
M  V30 31 C 1.045448 -4.542287 3.971164 0
M  V30 32 H 0.015637 -2.326584 3.684335 0
M  V30 33 H -0.754861 -2.630111 5.302001 0
M  V30 34 H 0.598752 -1.453340 5.115846 0
M  V30 35 H 2.840647 -3.848885 6.146648 0
M  V30 36 H 2.252703 -2.189372 6.000974 0
M  V30 37 H 4.179197 -3.707633 4.337839 0
M  V30 38 H 3.888040 -1.964390 4.461235 0
M  V30 39 H 3.661192 -0.507862 3.070685 0
M  V30 40 H 3.249546 1.205708 1.425756 0
M  V30 41 H 2.282032 1.988092 -0.614512 0
M  V30 42 H 0.339070 -0.337260 -4.817359 0
M  V30 43 H -1.387323 2.803337 -0.572940 0
M  V30 44 H -3.227161 3.971237 0.523968 0
M  V30 45 H -5.983670 1.842239 -2.069316 0
M  V30 46 H -5.289246 0.271947 -3.358300 0
M  V30 47 H -1.635414 -0.562061 -5.315349 0
M  V30 48 H -2.131884 1.186857 -5.439429 0
M  V30 49 H 0.763043 -1.332704 -0.786220 0
M  V30 50 H 1.120086 -3.097967 0.808768 0
M  V30 51 H 1.767426 -4.641984 1.943983 0
M  V30 52 H 2.943750 -5.158655 3.156918 0
M  V30 53 H 0.074173 -4.411407 3.408829 0
M  V30 54 H 1.038770 -5.568104 4.407719 0
M  V30 END ATOM
M  V30 BEGIN BOND
M  V30 1 1 1 2
M  V30 2 1 2 3
M  V30 3 1 3 4
M  V30 4 1 4 5
M  V30 5 1 5 6
M  V30 6 2 6 7
M  V30 7 1 7 8
M  V30 8 2 8 9
M  V30 9 1 9 10
M  V30 10 1 10 11
M  V30 11 2 11 12
M  V30 12 1 12 13
M  V30 13 2 13 14
M  V30 14 1 14 15
M  V30 15 2 15 16
M  V30 16 1 15 17
M  V30 17 2 17 18
M  V30 18 1 18 19
M  V30 19 2 19 20
M  V30 20 1 20 21
M  V30 21 1 20 22
M  V30 22 2 22 23
M  V30 23 1 23 24
M  V30 24 1 24 25
M  V30 25 2 25 26
M  V30 26 1 25 27
M  V30 27 1 9 28
M  V30 28 2 28 29
M  V30 29 1 5 30
M  V30 30 1 30 31
M  V30 31 1 31 2
M  V30 32 1 29 6
M  V30 33 1 16 11
M  V30 34 1 23 17
M  V30 35 1 27 14
M  V30 36 1 1 32
M  V30 37 1 1 33
M  V30 38 1 1 34
M  V30 39 1 3 35
M  V30 40 1 3 36
M  V30 41 1 4 37
M  V30 42 1 4 38
M  V30 43 1 7 39
M  V30 44 1 8 40
M  V30 45 1 10 41
M  V30 46 1 13 42
M  V30 47 1 18 43
M  V30 48 1 19 44
M  V30 49 1 22 45
M  V30 50 1 24 46
M  V30 51 1 27 47
M  V30 52 1 27 48
M  V30 53 1 28 49
M  V30 54 1 29 50
M  V30 55 1 30 51
M  V30 56 1 30 52
M  V30 57 1 31 53
M  V30 58 1 31 54
M  V30 END BOND
M  V30 END CTAB
M  END
>  <Dataset>  (950) 
ChEMBL_Kinases

>  <Ligand_Instance>  (950) 
nan

>  <PDB_ID>  (950) 
nan

>  <Standardized_SMILES>  (950) 
CN1CCN(c2ccc(Nc3ncc4c(n3)-c3ccc(Cl)cc3NC(=O)C4)cc2)CC1

>  <Name>  (950) 
nan

>  <Pocket>  (950) 
nan

>  <ATP_Site>  (950) 
nan

>  <Peripheral>  (950) 
nan

>  <Num_H_Atoms_ProtBoundConf>  (950) 
nan

>  <Num_Resolved_Atoms>  (950) 
nan

>  <Num_Not_Resolved_Atoms>  (950) 
nan

$$$$
CHEMBL1945023
     RDKit          3D

  0  0  0  0  0  0  0  0  0  0999 V3000
M  V30 BEGIN CTAB
M  V30 COUNTS 48 51 0 0 0
M  V30 BEGIN ATOM
M  V30 1 N 2.110492 -7.398834 0.759543 0
M  V30 2 C 3.178901 -6.447554 0.515986 0
M  V30 3 C 2.630877 -5.086451 0.893121 0
M  V30 4 C 3.672790 -4.002806 0.669669 0
M  V30 5 C 3.138806 -2.669300 1.046062 0
M  V30 6 C 2.460547 -1.901211 0.123451 0
M  V30 7 C 1.969621 -0.652545 0.480218 0
M  V30 8 C 2.150112 -0.156743 1.760804 0
M  V30 9 N 1.615571 1.147094 2.060256 0
M  V30 10 C 0.832129 1.806517 1.076397 0
M  V30 11 N 1.204045 2.540459 -0.009610 0
M  V30 12 C 0.265258 3.094927 -0.816792 0
M  V30 13 C -1.103657 2.949000 -0.586459 0
M  V30 14 C -1.436097 2.192009 0.534346 0
M  V30 15 N -0.504995 1.655376 1.314329 0
M  V30 16 C -2.815409 1.914658 0.980061 0
M  V30 17 C -2.813015 1.453322 2.279772 0
M  V30 18 C -4.047891 1.145288 2.862638 0
M  V30 19 C -5.227728 1.303811 2.144641 0
M  V30 20 Cl -6.735147 0.899184 2.937290 0
M  V30 21 C -5.222816 1.766809 0.841936 0
M  V30 22 C -3.984098 2.073252 0.263959 0
M  V30 23 N -4.148541 2.540310 -1.091443 0
M  V30 24 C -3.129749 2.972755 -2.016787 0
M  V30 25 O -3.468200 2.684539 -3.216378 0
M  V30 26 C -1.871709 3.655187 -1.625392 0
M  V30 27 C 2.821841 -0.915377 2.678407 0
M  V30 28 C 3.319730 -2.175081 2.327075 0
M  V30 29 H 1.948670 -7.580782 1.751187 0
M  V30 30 H 1.288302 -7.240376 0.163213 0
M  V30 31 H 3.587876 -6.473629 -0.497103 0
M  V30 32 H 4.015130 -6.706055 1.221383 0
M  V30 33 H 1.760676 -4.843919 0.238295 0
M  V30 34 H 2.266657 -5.053891 1.928729 0
M  V30 35 H 4.559476 -4.263335 1.312599 0
M  V30 36 H 3.959188 -3.984173 -0.384093 0
M  V30 37 H 2.300253 -2.251299 -0.882659 0
M  V30 38 H 1.443149 -0.066653 -0.254272 0
M  V30 39 H 1.827378 1.555555 2.992799 0
M  V30 40 H 0.678442 3.656577 -1.648718 0
M  V30 41 H -1.881717 1.341685 2.806381 0
M  V30 42 H -4.029612 0.778322 3.901669 0
M  V30 43 H -6.150618 1.885787 0.297900 0
M  V30 44 H -5.149525 2.558362 -1.420740 0
M  V30 45 H -1.246692 3.673898 -2.564679 0
M  V30 46 H -2.092659 4.707602 -1.414762 0
M  V30 47 H 2.953276 -0.502691 3.682154 0
M  V30 48 H 3.844705 -2.746790 3.078341 0
M  V30 END ATOM
M  V30 BEGIN BOND
M  V30 1 1 1 2
M  V30 2 1 2 3
M  V30 3 1 3 4
M  V30 4 1 4 5
M  V30 5 2 5 6
M  V30 6 1 6 7
M  V30 7 2 7 8
M  V30 8 1 8 9
M  V30 9 1 9 10
M  V30 10 2 10 11
M  V30 11 1 11 12
M  V30 12 2 12 13
M  V30 13 1 13 14
M  V30 14 2 14 15
M  V30 15 1 14 16
M  V30 16 2 16 17
M  V30 17 1 17 18
M  V30 18 2 18 19
M  V30 19 1 19 20
M  V30 20 1 19 21
M  V30 21 2 21 22
M  V30 22 1 22 23
M  V30 23 1 23 24
M  V30 24 2 24 25
M  V30 25 1 24 26
M  V30 26 1 8 27
M  V30 27 2 27 28
M  V30 28 1 28 5
M  V30 29 1 15 10
M  V30 30 1 22 16
M  V30 31 1 26 13
M  V30 32 1 1 29
M  V30 33 1 1 30
M  V30 34 1 2 31
M  V30 35 1 2 32
M  V30 36 1 3 33
M  V30 37 1 3 34
M  V30 38 1 4 35
M  V30 39 1 4 36
M  V30 40 1 6 37
M  V30 41 1 7 38
M  V30 42 1 9 39
M  V30 43 1 12 40
M  V30 44 1 17 41
M  V30 45 1 18 42
M  V30 46 1 21 43
M  V30 47 1 23 44
M  V30 48 1 26 45
M  V30 49 1 26 46
M  V30 50 1 27 47
M  V30 51 1 28 48
M  V30 END BOND
M  V30 END CTAB
M  END
>  <Dataset>  (951) 
ChEMBL_Kinases

>  <Ligand_Instance>  (951) 
nan

>  <PDB_ID>  (951) 
nan

>  <Standardized_SMILES>  (951) 
NCCCc1ccc(Nc2ncc3c(n2)-c2ccc(Cl)cc2NC(=O)C3)cc1

>  <Name>  (951) 
nan

>  <Pocket>  (951) 
nan

>  <ATP_Site>  (951) 
nan

>  <Peripheral>  (951) 
nan

>  <Num_H_Atoms_ProtBoundConf>  (951) 
nan

>  <Num_Resolved_Atoms>  (951) 
nan

>  <Num_Not_Resolved_Atoms>  (951) 
nan

$$$$
CHEMBL1945022
     RDKit          3D

  0  0  0  0  0  0  0  0  0  0999 V3000
M  V30 BEGIN CTAB
M  V30 COUNTS 37 40 0 0 0
M  V30 BEGIN ATOM
M  V30 1 O 0.567454 -4.128212 4.768956 0
M  V30 2 C 0.543738 -3.725484 3.565322 0
M  V30 3 C 1.849777 -3.328011 2.970412 0
M  V30 4 C 1.745994 -2.060497 2.202944 0
M  V30 5 C 2.814434 -1.233780 2.449837 0
M  V30 6 N 2.860685 -0.049675 1.828817 0
M  V30 7 C 1.936766 0.410184 0.969460 0
M  V30 8 N 2.138931 1.690581 0.394676 0
M  V30 9 C 1.290597 2.410400 -0.480823 0
M  V30 10 C 0.031132 2.032124 -0.882986 0
M  V30 11 C -0.786853 2.735257 -1.739934 0
M  V30 12 C -0.327092 3.929372 -2.255668 0
M  V30 13 I -1.558756 5.013909 -3.561040 0
M  V30 14 C 0.920044 4.333088 -1.875361 0
M  V30 15 C 1.722262 3.612848 -1.016080 0
M  V30 16 N 0.882026 -0.411512 0.728588 0
M  V30 17 C 0.788999 -1.621377 1.332839 0
M  V30 18 C -0.422056 -2.322481 0.922957 0
M  V30 19 C -0.824526 -1.948748 -0.333671 0
M  V30 20 C -1.979159 -2.557870 -0.823811 0
M  V30 21 C -2.659898 -3.490861 -0.050250 0
M  V30 22 Cl -4.100743 -4.262029 -0.640481 0
M  V30 23 C -2.247157 -3.861750 1.214640 0
M  V30 24 C -1.093832 -3.260131 1.717099 0
M  V30 25 N -0.793940 -3.745698 3.027174 0
M  V30 26 H 2.567708 -3.216056 3.786354 0
M  V30 27 H 2.124327 -4.159570 2.275080 0
M  V30 28 H 3.627761 -1.511034 3.136167 0
M  V30 29 H 3.038310 2.182343 0.644519 0
M  V30 30 H -0.384239 1.112495 -0.509325 0
M  V30 31 H -1.780276 2.358514 -2.008557 0
M  V30 32 H 1.279104 5.279718 -2.287171 0
M  V30 33 H 2.700102 4.025153 -0.777017 0
M  V30 34 H -0.234372 -1.220551 -0.861733 0
M  V30 35 H -2.316053 -2.277577 -1.814872 0
M  V30 36 H -2.737119 -4.571319 1.843038 0
M  V30 37 H -1.586434 -4.118184 3.582872 0
M  V30 END ATOM
M  V30 BEGIN BOND
M  V30 1 2 1 2
M  V30 2 1 2 3
M  V30 3 1 3 4
M  V30 4 2 4 5
M  V30 5 1 5 6
M  V30 6 2 6 7
M  V30 7 1 7 8
M  V30 8 1 8 9
M  V30 9 2 9 10
M  V30 10 1 10 11
M  V30 11 2 11 12
M  V30 12 1 12 13
M  V30 13 1 12 14
M  V30 14 2 14 15
M  V30 15 1 7 16
M  V30 16 2 16 17
M  V30 17 1 17 18
M  V30 18 2 18 19
M  V30 19 1 19 20
M  V30 20 2 20 21
M  V30 21 1 21 22
M  V30 22 1 21 23
M  V30 23 2 23 24
M  V30 24 1 24 25
M  V30 25 1 25 2
M  V30 26 1 17 4
M  V30 27 1 24 18
M  V30 28 1 15 9
M  V30 29 1 3 26
M  V30 30 1 3 27
M  V30 31 1 5 28
M  V30 32 1 8 29
M  V30 33 1 10 30
M  V30 34 1 11 31
M  V30 35 1 14 32
M  V30 36 1 15 33
M  V30 37 1 19 34
M  V30 38 1 20 35
M  V30 39 1 23 36
M  V30 40 1 25 37
M  V30 END BOND
M  V30 END CTAB
M  END
>  <Dataset>  (952) 
ChEMBL_Kinases

>  <Ligand_Instance>  (952) 
nan

>  <PDB_ID>  (952) 
nan

>  <Standardized_SMILES>  (952) 
O=C1Cc2cnc(Nc3ccc(I)cc3)nc2-c2ccc(Cl)cc2N1

>  <Name>  (952) 
nan

>  <Pocket>  (952) 
nan

>  <ATP_Site>  (952) 
nan

>  <Peripheral>  (952) 
nan

>  <Num_H_Atoms_ProtBoundConf>  (952) 
nan

>  <Num_Resolved_Atoms>  (952) 
nan

>  <Num_Not_Resolved_Atoms>  (952) 
nan

$$$$
CHEMBL1945021
     RDKit          3D

  0  0  0  0  0  0  0  0  0  0999 V3000
M  V30 BEGIN CTAB
M  V30 COUNTS 40 43 0 0 0
M  V30 BEGIN ATOM
M  V30 1 O -0.070967 -6.500650 1.102986 0
M  V30 2 C -0.085924 -5.268388 1.419330 0
M  V30 3 C 1.219500 -4.704694 1.830722 0
M  V30 4 C 1.438297 -3.315344 1.356835 0
M  V30 5 C 2.736564 -3.112182 0.950248 0
M  V30 6 N 3.077435 -1.906354 0.496939 0
M  V30 7 C 2.276961 -0.842724 0.389965 0
M  V30 8 N 2.805122 0.376010 -0.109628 0
M  V30 9 C 2.108271 1.584359 -0.356374 0
M  V30 10 C 0.746870 1.770524 -0.293117 0
M  V30 11 C 0.104117 2.965783 -0.529528 0
M  V30 12 C 0.858338 4.064595 -0.853859 0
M  V30 13 C 0.228010 5.352864 -1.114608 0
M  V30 14 O 0.737604 6.460862 -1.421006 0
M  V30 15 O -1.144329 5.494770 -1.041841 0
M  V30 16 C 2.229157 3.936425 -0.932025 0
M  V30 17 C 2.816488 2.717854 -0.685442 0
M  V30 18 N 1.004204 -1.058279 0.793665 0
M  V30 19 C 0.584546 -2.237011 1.260027 0
M  V30 20 C -0.824784 -2.221835 1.633276 0
M  V30 21 C -1.223213 -0.954359 1.983631 0
M  V30 22 C -2.555367 -0.771316 2.366970 0
M  V30 23 C -3.403185 -1.880568 2.372798 0
M  V30 24 Cl -5.065978 -1.621238 2.855881 0
M  V30 25 C -2.987788 -3.146768 2.018526 0
M  V30 26 C -1.672356 -3.330861 1.639393 0
M  V30 27 N -1.385606 -4.701967 1.302081 0
M  V30 28 H 2.026306 -5.332829 1.372687 0
M  V30 29 H 1.317597 -4.740646 2.949542 0
M  V30 30 H 3.472267 -3.906200 0.992693 0
M  V30 31 H 3.840801 0.386603 -0.325092 0
M  V30 32 H 0.124503 0.947012 -0.051612 0
M  V30 33 H -0.980803 3.036576 -0.460538 0
M  V30 34 H -1.658338 6.317078 -0.833106 0
M  V30 35 H 2.838692 4.807674 -1.189911 0
M  V30 36 H 3.898449 2.694000 -0.765350 0
M  V30 37 H -0.495858 -0.156409 1.951563 0
M  V30 38 H -2.883513 0.201226 2.641163 0
M  V30 39 H -3.638193 -4.010474 2.020263 0
M  V30 40 H -2.210421 -5.241564 0.967683 0
M  V30 END ATOM
M  V30 BEGIN BOND
M  V30 1 2 1 2
M  V30 2 1 2 3
M  V30 3 1 3 4
M  V30 4 2 4 5
M  V30 5 1 5 6
M  V30 6 2 6 7
M  V30 7 1 7 8
M  V30 8 1 8 9
M  V30 9 2 9 10
M  V30 10 1 10 11
M  V30 11 2 11 12
M  V30 12 1 12 13
M  V30 13 2 13 14
M  V30 14 1 13 15
M  V30 15 1 12 16
M  V30 16 2 16 17
M  V30 17 1 7 18
M  V30 18 2 18 19
M  V30 19 1 19 20
M  V30 20 2 20 21
M  V30 21 1 21 22
M  V30 22 2 22 23
M  V30 23 1 23 24
M  V30 24 1 23 25
M  V30 25 2 25 26
M  V30 26 1 26 27
M  V30 27 1 27 2
M  V30 28 1 19 4
M  V30 29 1 26 20
M  V30 30 1 17 9
M  V30 31 1 3 28
M  V30 32 1 3 29
M  V30 33 1 5 30
M  V30 34 1 8 31
M  V30 35 1 10 32
M  V30 36 1 11 33
M  V30 37 1 15 34
M  V30 38 1 16 35
M  V30 39 1 17 36
M  V30 40 1 21 37
M  V30 41 1 22 38
M  V30 42 1 25 39
M  V30 43 1 27 40
M  V30 END BOND
M  V30 END CTAB
M  END
>  <Dataset>  (953) 
ChEMBL_Kinases

>  <Ligand_Instance>  (953) 
nan

>  <PDB_ID>  (953) 
nan

>  <Standardized_SMILES>  (953) 
O=C1Cc2cnc(Nc3ccc(C(=O)O)cc3)nc2-c2ccc(Cl)cc2N1

>  <Name>  (953) 
nan

>  <Pocket>  (953) 
nan

>  <ATP_Site>  (953) 
nan

>  <Peripheral>  (953) 
nan

>  <Num_H_Atoms_ProtBoundConf>  (953) 
nan

>  <Num_Resolved_Atoms>  (953) 
nan

>  <Num_Not_Resolved_Atoms>  (953) 
nan

$$$$
CHEMBL194495
     RDKit          3D

  0  0  0  0  0  0  0  0  0  0999 V3000
M  V30 BEGIN CTAB
M  V30 COUNTS 35 37 0 0 0
M  V30 BEGIN ATOM
M  V30 1 C 0.928579 -4.500274 2.173283 0
M  V30 2 C 0.546306 -3.946161 3.537252 0
M  V30 3 O -0.709215 -3.295503 3.497055 0
M  V30 4 C -0.841448 -2.212481 2.642315 0
M  V30 5 N 0.162130 -1.777483 1.873742 0
M  V30 6 C 0.056313 -0.747347 1.052710 0
M  V30 7 N 1.167368 -0.343843 0.267256 0
M  V30 8 C 1.279597 0.716488 -0.666685 0
M  V30 9 C 2.453048 0.962670 -1.345561 0
M  V30 10 C 2.584106 1.985783 -2.255877 0
M  V30 11 C 1.541876 2.827037 -2.541299 0
M  V30 12 N 1.423252 3.877261 -3.373798 0
M  V30 13 C 0.144648 4.337976 -3.245079 0
M  V30 14 N -0.512880 3.567789 -2.334754 0
M  V30 15 C 0.342202 2.628814 -1.892063 0
M  V30 16 C 0.264408 1.589809 -0.989874 0
M  V30 17 N -1.144745 -0.159519 1.043273 0
M  V30 18 C -2.211151 -0.509135 1.765553 0
M  V30 19 C -2.061332 -1.575530 2.599270 0
M  V30 20 C -3.174709 -2.061238 3.454537 0
M  V30 21 F -2.709882 -1.950562 4.771190 0
M  V30 22 F -3.366946 -3.396641 3.222033 0
M  V30 23 F -4.306126 -1.316976 3.266518 0
M  V30 24 H 0.041632 -4.927213 1.658848 0
M  V30 25 H 1.650264 -5.323265 2.352541 0
M  V30 26 H 1.462001 -3.751895 1.569240 0
M  V30 27 H 1.365789 -3.228803 3.818449 0
M  V30 28 H 0.510717 -4.806303 4.236218 0
M  V30 29 H 2.058541 -0.914078 0.386462 0
M  V30 30 H 3.315628 0.331643 -1.163988 0
M  V30 31 H 3.542376 2.116398 -2.751232 0
M  V30 32 H 2.178082 4.246943 -3.987620 0
M  V30 33 H -0.222100 5.181120 -3.804094 0
M  V30 34 H -0.703323 1.497015 -0.522386 0
M  V30 35 H -3.160847 0.006053 1.715852 0
M  V30 END ATOM
M  V30 BEGIN BOND
M  V30 1 1 1 2
M  V30 2 1 2 3
M  V30 3 1 3 4
M  V30 4 2 4 5
M  V30 5 1 5 6
M  V30 6 1 6 7
M  V30 7 1 7 8
M  V30 8 2 8 9
M  V30 9 1 9 10
M  V30 10 2 10 11
M  V30 11 1 11 12
M  V30 12 1 12 13
M  V30 13 2 13 14
M  V30 14 1 14 15
M  V30 15 2 15 16
M  V30 16 2 6 17
M  V30 17 1 17 18
M  V30 18 2 18 19
M  V30 19 1 19 20
M  V30 20 1 20 21
M  V30 21 1 20 22
M  V30 22 1 20 23
M  V30 23 1 19 4
M  V30 24 1 16 8
M  V30 25 1 15 11
M  V30 26 1 1 24
M  V30 27 1 1 25
M  V30 28 1 1 26
M  V30 29 1 2 27
M  V30 30 1 2 28
M  V30 31 1 7 29
M  V30 32 1 9 30
M  V30 33 1 10 31
M  V30 34 1 12 32
M  V30 35 1 13 33
M  V30 36 1 16 34
M  V30 37 1 18 35
M  V30 END BOND
M  V30 END CTAB
M  END
>  <Dataset>  (954) 
ChEMBL_Kinases

>  <Ligand_Instance>  (954) 
nan

>  <PDB_ID>  (954) 
nan

>  <Standardized_SMILES>  (954) 
CCOc1nc(Nc2ccc3[nH]cnc3c2)ncc1C(F)(F)F

>  <Name>  (954) 
nan

>  <Pocket>  (954) 
nan

>  <ATP_Site>  (954) 
nan

>  <Peripheral>  (954) 
nan

>  <Num_H_Atoms_ProtBoundConf>  (954) 
nan

>  <Num_Resolved_Atoms>  (954) 
nan

>  <Num_Not_Resolved_Atoms>  (954) 
nan

$$$$
CHEMBL1944921
     RDKit          3D

  0  0  0  0  0  0  0  0  0  0999 V3000
M  V30 BEGIN CTAB
M  V30 COUNTS 30 32 0 0 0
M  V30 BEGIN ATOM
M  V30 1 C 3.095698 -2.772715 3.439943 0
M  V30 2 O 2.340757 -1.938837 2.581897 0
M  V30 3 C 1.100673 -2.377066 2.135611 0
M  V30 4 C 0.449978 -3.562593 2.410507 0
M  V30 5 C -0.783946 -3.823923 1.873350 0
M  V30 6 C -1.451112 -2.954603 1.044519 0
M  V30 7 C -0.799020 -1.776179 0.774171 0
M  V30 8 C 0.439689 -1.482966 1.296971 0
M  V30 9 C 1.018204 -0.193086 0.926923 0
M  V30 10 O 2.143723 0.106828 1.384113 0
M  V30 11 C 0.349548 0.762783 0.051170 0
M  V30 12 C 0.955679 1.978346 -0.264230 0
M  V30 13 O 2.190053 2.303988 0.238901 0
M  V30 14 C 0.334697 2.893446 -1.092200 0
M  V30 15 C -0.907577 2.580115 -1.606227 0
M  V30 16 C -1.507843 1.377186 -1.294349 0
M  V30 17 O -2.760408 1.019459 -1.790363 0
M  V30 18 C -0.895713 0.445139 -0.462203 0
M  V30 19 C -1.506755 -0.833029 -0.116228 0
M  V30 20 O -2.649404 -1.107834 -0.596185 0
M  V30 21 H 4.176703 -2.450613 3.384075 0
M  V30 22 H 2.770690 -2.708321 4.510511 0
M  V30 23 H 3.009515 -3.844904 3.161646 0
M  V30 24 H 1.006866 -4.221104 3.066596 0
M  V30 25 H -1.242823 -4.765002 2.123184 0
M  V30 26 H -2.417266 -3.200600 0.645975 0
M  V30 27 H 3.013177 2.223171 -0.320802 0
M  V30 28 H 0.783418 3.849414 -1.355551 0
M  V30 29 H -1.422746 3.278519 -2.260739 0
M  V30 30 H -3.631580 1.177839 -1.308078 0
M  V30 END ATOM
M  V30 BEGIN BOND
M  V30 1 1 1 2
M  V30 2 1 2 3
M  V30 3 2 3 4
M  V30 4 1 4 5
M  V30 5 2 5 6
M  V30 6 1 6 7
M  V30 7 2 7 8
M  V30 8 1 8 9
M  V30 9 2 9 10
M  V30 10 1 9 11
M  V30 11 2 11 12
M  V30 12 1 12 13
M  V30 13 1 12 14
M  V30 14 2 14 15
M  V30 15 1 15 16
M  V30 16 1 16 17
M  V30 17 2 16 18
M  V30 18 1 18 19
M  V30 19 2 19 20
M  V30 20 1 8 3
M  V30 21 1 18 11
M  V30 22 1 19 7
M  V30 23 1 1 21
M  V30 24 1 1 22
M  V30 25 1 1 23
M  V30 26 1 4 24
M  V30 27 1 5 25
M  V30 28 1 6 26
M  V30 29 1 13 27
M  V30 30 1 14 28
M  V30 31 1 15 29
M  V30 32 1 17 30
M  V30 END BOND
M  V30 END CTAB
M  END
>  <Dataset>  (955) 
ChEMBL_Kinases

>  <Ligand_Instance>  (955) 
nan

>  <PDB_ID>  (955) 
nan

>  <Standardized_SMILES>  (955) 
COc1cccc2c1C(=O)c1c(O)ccc(O)c1C2=O

>  <Name>  (955) 
nan

>  <Pocket>  (955) 
nan

>  <ATP_Site>  (955) 
nan

>  <Peripheral>  (955) 
nan

>  <Num_H_Atoms_ProtBoundConf>  (955) 
nan

>  <Num_Resolved_Atoms>  (955) 
nan

>  <Num_Not_Resolved_Atoms>  (955) 
nan

$$$$
CHEMBL1944822
     RDKit          3D

  0  0  0  0  0  0  0  0  0  0999 V3000
M  V30 BEGIN CTAB
M  V30 COUNTS 48 51 0 0 0
M  V30 BEGIN ATOM
M  V30 1 C 2.492927 -2.305148 4.355159 0
M  V30 2 C 1.949374 -3.701947 4.391940 0
M  V30 3 C 2.142138 -4.482266 3.116771 0
M  V30 4 N 1.457041 -3.776995 2.049199 0
M  V30 5 C 1.782910 -2.535296 1.442405 0
M  V30 6 N 3.042689 -2.242851 1.315800 0
M  V30 7 C 3.216798 -0.978370 0.695102 0
M  V30 8 O 4.296231 -0.392446 0.422973 0
M  V30 9 C 1.868389 -0.488182 0.433225 0
M  V30 10 C 1.536820 0.706452 -0.090582 0
M  V30 11 C 2.582553 1.679329 -0.453538 0
M  V30 12 C 2.549988 2.739453 0.634537 0
M  V30 13 N 1.365444 3.572919 0.546781 0
M  V30 14 C -0.061249 3.321672 0.517756 0
M  V30 15 O -0.940205 4.129850 0.891428 0
M  V30 16 C -0.633780 2.043684 0.027444 0
M  V30 17 N -1.907976 1.736563 -0.264629 0
M  V30 18 C -2.003018 0.464360 -0.704126 0
M  V30 19 C -3.250001 -0.161603 -1.099310 0
M  V30 20 C -4.425689 0.552652 -1.033141 0
M  V30 21 C -5.592309 -0.075189 -1.418515 0
M  V30 22 C -5.614766 -1.390641 -1.865797 0
M  V30 23 C -4.447790 -2.097668 -1.930898 0
M  V30 24 C -3.295856 -1.461587 -1.544640 0
M  V30 25 C -0.746258 -0.162947 -0.727398 0
M  V30 26 C 0.067501 0.854425 -0.264119 0
M  V30 27 N 0.986016 -1.486862 0.915174 0
M  V30 28 H 2.443565 -1.893290 5.392493 0
M  V30 29 H 3.542750 -2.218064 4.042278 0
M  V30 30 H 1.848229 -1.616541 3.750281 0
M  V30 31 H 0.843385 -3.595237 4.591059 0
M  V30 32 H 2.335275 -4.256108 5.281938 0
M  V30 33 H 1.838144 -5.524221 3.196707 0
M  V30 34 H 3.243681 -4.378101 2.880763 0
M  V30 35 H 0.584089 -4.245086 1.663044 0
M  V30 36 H 3.536881 1.334380 -0.773241 0
M  V30 37 H 2.218276 2.271958 -1.350423 0
M  V30 38 H 3.427966 3.379879 0.665012 0
M  V30 39 H 2.467585 2.168313 1.604493 0
M  V30 40 H 1.494163 4.632939 0.489667 0
M  V30 41 H -2.680016 2.428606 -0.147647 0
M  V30 42 H -4.459681 1.596211 -0.686249 0
M  V30 43 H -6.520413 0.461401 -1.376042 0
M  V30 44 H -6.553443 -1.854869 -2.160655 0
M  V30 45 H -4.425855 -3.140967 -2.279845 0
M  V30 46 H -2.366106 -2.033525 -1.599987 0
M  V30 47 H -0.458662 -1.145282 -1.043283 0
M  V30 48 H -0.033711 -1.600971 0.995362 0
M  V30 END ATOM
M  V30 BEGIN BOND
M  V30 1 1 1 2
M  V30 2 1 2 3
M  V30 3 1 3 4
M  V30 4 1 4 5
M  V30 5 2 5 6
M  V30 6 1 6 7
M  V30 7 2 7 8
M  V30 8 1 7 9
M  V30 9 2 9 10
M  V30 10 1 10 11
M  V30 11 1 11 12
M  V30 12 1 12 13
M  V30 13 1 13 14
M  V30 14 2 14 15
M  V30 15 1 14 16
M  V30 16 1 16 17
M  V30 17 1 17 18
M  V30 18 1 18 19
M  V30 19 2 19 20
M  V30 20 1 20 21
M  V30 21 2 21 22
M  V30 22 1 22 23
M  V30 23 2 23 24
M  V30 24 2 18 25
M  V30 25 1 25 26
M  V30 26 1 9 27
M  V30 27 1 27 5
M  V30 28 1 26 10
M  V30 29 2 26 16
M  V30 30 1 24 19
M  V30 31 1 1 28
M  V30 32 1 1 29
M  V30 33 1 1 30
M  V30 34 1 2 31
M  V30 35 1 2 32
M  V30 36 1 3 33
M  V30 37 1 3 34
M  V30 38 1 4 35
M  V30 39 1 11 36
M  V30 40 1 11 37
M  V30 41 1 12 38
M  V30 42 1 12 39
M  V30 43 1 13 40
M  V30 44 1 17 41
M  V30 45 1 20 42
M  V30 46 1 21 43
M  V30 47 1 22 44
M  V30 48 1 23 45
M  V30 49 1 24 46
M  V30 50 1 25 47
M  V30 51 1 27 48
M  V30 END BOND
M  V30 END CTAB
M  END
>  <Dataset>  (956) 
ChEMBL_Kinases

>  <Ligand_Instance>  (956) 
nan

>  <PDB_ID>  (956) 
nan

>  <Standardized_SMILES>  (956) 
CCCNC1=NC(=O)/C(=C2\CCNC(=O)c3[nH]c(-c4ccccc4)cc32)N1

>  <Name>  (956) 
nan

>  <Pocket>  (956) 
nan

>  <ATP_Site>  (956) 
nan

>  <Peripheral>  (956) 
nan

>  <Num_H_Atoms_ProtBoundConf>  (956) 
nan

>  <Num_Resolved_Atoms>  (956) 
nan

>  <Num_Not_Resolved_Atoms>  (956) 
nan

$$$$
CHEMBL1944821
     RDKit          3D

  0  0  0  0  0  0  0  0  0  0999 V3000
M  V30 BEGIN CTAB
M  V30 COUNTS 54 57 0 0 0
M  V30 BEGIN ATOM
M  V30 1 C 1.330670 -3.172569 2.112891 0
M  V30 2 C 2.735437 -2.674699 2.354277 0
M  V30 3 O 2.814988 -1.259373 2.168333 0
M  V30 4 C 4.033935 -0.637543 2.342037 0
M  V30 5 O 5.025829 -1.360025 2.660371 0
M  V30 6 C 4.231130 0.852367 2.169253 0
M  V30 7 C 4.658066 0.978655 0.692628 0
M  V30 8 N 3.496639 0.415972 -0.030579 0
M  V30 9 C 2.218229 1.079755 -0.082899 0
M  V30 10 N 2.194532 2.379855 -0.242271 0
M  V30 11 C 0.854208 2.847922 -0.269738 0
M  V30 12 O 0.515334 4.029002 -0.408252 0
M  V30 13 C -0.010183 1.686509 -0.107993 0
M  V30 14 C -1.337861 1.658156 -0.009064 0
M  V30 15 C -2.053148 2.947858 -0.052093 0
M  V30 16 C -3.447952 2.965316 0.423719 0
M  V30 17 N -3.772401 2.226202 1.619844 0
M  V30 18 C -3.722769 0.788553 1.836636 0
M  V30 19 O -4.278114 0.140711 2.752245 0
M  V30 20 C -2.956654 -0.105278 0.928449 0
M  V30 21 N -3.109062 -1.432689 0.685071 0
M  V30 22 C -2.197841 -1.803755 -0.249856 0
M  V30 23 C -2.070107 -3.178189 -0.750707 0
M  V30 24 C -1.119883 -3.474210 -1.686113 0
M  V30 25 C -1.023042 -4.777625 -2.134042 0
M  V30 26 C -1.846288 -5.799568 -1.677825 0
M  V30 27 C -2.811872 -5.487811 -0.724658 0
M  V30 28 C -2.882586 -4.175691 -0.297677 0
M  V30 29 C -1.397994 -0.726831 -0.667323 0
M  V30 30 C -1.898733 0.287194 0.083764 0
M  V30 31 N 0.884996 0.596065 0.007848 0
M  V30 32 H 1.240449 -3.690900 1.120676 0
M  V30 33 H 1.109626 -3.949534 2.861358 0
M  V30 34 H 0.593402 -2.364949 2.132418 0
M  V30 35 H 3.396175 -3.205985 1.620883 0
M  V30 36 H 3.101447 -2.962835 3.366564 0
M  V30 37 H 3.233973 1.304796 2.301798 0
M  V30 38 H 4.997217 1.234100 2.847024 0
M  V30 39 H 5.518029 0.323655 0.564226 0
M  V30 40 H 4.816695 2.031351 0.459312 0
M  V30 41 H 3.506347 -0.499085 -0.549391 0
M  V30 42 H -1.486161 3.702408 0.572015 0
M  V30 43 H -2.012542 3.323582 -1.089795 0
M  V30 44 H -4.149407 2.658638 -0.401455 0
M  V30 45 H -3.715568 4.025936 0.633661 0
M  V30 46 H -4.111571 2.648853 2.545135 0
M  V30 47 H -3.838275 -1.962655 1.195373 0
M  V30 48 H -0.427953 -2.731436 -2.102068 0
M  V30 49 H -0.272072 -5.042668 -2.880942 0
M  V30 50 H -1.713410 -6.798581 -2.071881 0
M  V30 51 H -3.446098 -6.287387 -0.375232 0
M  V30 52 H -3.639513 -3.928928 0.449341 0
M  V30 53 H -0.632923 -0.751551 -1.408462 0
M  V30 54 H 0.765591 -0.414516 0.171869 0
M  V30 END ATOM
M  V30 BEGIN BOND
M  V30 1 1 1 2
M  V30 2 1 2 3
M  V30 3 1 3 4
M  V30 4 2 4 5
M  V30 5 1 4 6
M  V30 6 1 6 7
M  V30 7 1 7 8
M  V30 8 1 8 9
M  V30 9 2 9 10
M  V30 10 1 10 11
M  V30 11 2 11 12
M  V30 12 1 11 13
M  V30 13 2 13 14
M  V30 14 1 14 15
M  V30 15 1 15 16
M  V30 16 1 16 17
M  V30 17 1 17 18
M  V30 18 2 18 19
M  V30 19 1 18 20
M  V30 20 1 20 21
M  V30 21 1 21 22
M  V30 22 1 22 23
M  V30 23 2 23 24
M  V30 24 1 24 25
M  V30 25 2 25 26
M  V30 26 1 26 27
M  V30 27 2 27 28
M  V30 28 2 22 29
M  V30 29 1 29 30
M  V30 30 1 13 31
M  V30 31 1 31 9
M  V30 32 1 30 14
M  V30 33 2 30 20
M  V30 34 1 28 23
M  V30 35 1 1 32
M  V30 36 1 1 33
M  V30 37 1 1 34
M  V30 38 1 2 35
M  V30 39 1 2 36
M  V30 40 1 6 37
M  V30 41 1 6 38
M  V30 42 1 7 39
M  V30 43 1 7 40
M  V30 44 1 8 41
M  V30 45 1 15 42
M  V30 46 1 15 43
M  V30 47 1 16 44
M  V30 48 1 16 45
M  V30 49 1 17 46
M  V30 50 1 21 47
M  V30 51 1 24 48
M  V30 52 1 25 49
M  V30 53 1 26 50
M  V30 54 1 27 51
M  V30 55 1 28 52
M  V30 56 1 29 53
M  V30 57 1 31 54
M  V30 END BOND
M  V30 END CTAB
M  END
>  <Dataset>  (957) 
ChEMBL_Kinases

>  <Ligand_Instance>  (957) 
nan

>  <PDB_ID>  (957) 
nan

>  <Standardized_SMILES>  (957) 
CCOC(=O)CCNC1=NC(=O)/C(=C2\CCNC(=O)c3[nH]c(-c4ccccc4)cc32)N1

>  <Name>  (957) 
nan

>  <Pocket>  (957) 
nan

>  <ATP_Site>  (957) 
nan

>  <Peripheral>  (957) 
nan

>  <Num_H_Atoms_ProtBoundConf>  (957) 
nan

>  <Num_Resolved_Atoms>  (957) 
nan

>  <Num_Not_Resolved_Atoms>  (957) 
nan

$$$$
CHEMBL1944688
     RDKit          3D

  0  0  0  0  0  0  0  0  0  0999 V3000
M  V30 BEGIN CTAB
M  V30 COUNTS 40 43 0 0 0
M  V30 BEGIN ATOM
M  V30 1 O -0.082812 -6.571229 1.320175 0
M  V30 2 C -0.161906 -5.306659 1.371040 0
M  V30 3 C 1.146630 -4.686779 1.709340 0
M  V30 4 C 1.219935 -3.252532 1.322398 0
M  V30 5 C 2.530283 -2.942200 1.049819 0
M  V30 6 N 2.847056 -1.701233 0.673378 0
M  V30 7 C 1.975402 -0.688180 0.529663 0
M  V30 8 N 2.452623 0.585690 0.129801 0
M  V30 9 C 1.705123 1.756811 -0.148517 0
M  V30 10 C 0.334569 1.838258 -0.238195 0
M  V30 11 C -0.374126 2.981766 -0.496135 0
M  V30 12 C 0.318013 4.157027 -0.685318 0
M  V30 13 C 1.691049 4.117546 -0.603989 0
M  V30 14 C 2.376591 5.382711 -0.810131 0
M  V30 15 O 1.725286 6.432642 -1.044922 0
M  V30 16 O 3.722042 5.720811 -0.804840 0
M  V30 17 C 2.359692 2.945346 -0.342283 0
M  V30 18 N 0.679827 -1.004679 0.802307 0
M  V30 19 C 0.314407 -2.233555 1.182904 0
M  V30 20 C -1.118486 -2.348998 1.425941 0
M  V30 21 C -1.674678 -1.124705 1.727207 0
M  V30 22 C -3.019896 -1.041860 1.982638 0
M  V30 23 C -3.816553 -2.189237 1.937001 0
M  V30 24 Cl -5.545298 -2.143497 2.256570 0
M  V30 25 C -3.260250 -3.427342 1.633774 0
M  V30 26 C -1.903339 -3.498192 1.378511 0
M  V30 27 N -1.477172 -4.825358 1.092086 0
M  V30 28 H 1.931416 -5.232189 1.136937 0
M  V30 29 H 1.375311 -4.743836 2.791968 0
M  V30 30 H 3.354843 -3.652351 1.118993 0
M  V30 31 H 3.502785 0.674261 0.024665 0
M  V30 32 H -0.249131 0.957257 -0.107730 0
M  V30 33 H -1.458320 2.995993 -0.556733 0
M  V30 34 H -0.233408 5.070137 -0.890156 0
M  V30 35 H 4.132840 6.314854 -0.089760 0
M  V30 36 H 3.430402 2.997350 -0.294211 0
M  V30 37 H -1.024022 -0.263700 1.756916 0
M  V30 38 H -3.495098 -0.106595 2.222137 0
M  V30 39 H -3.829206 -4.353778 1.583475 0
M  V30 40 H -2.198944 -5.438222 0.659102 0
M  V30 END ATOM
M  V30 BEGIN BOND
M  V30 1 2 1 2
M  V30 2 1 2 3
M  V30 3 1 3 4
M  V30 4 2 4 5
M  V30 5 1 5 6
M  V30 6 2 6 7
M  V30 7 1 7 8
M  V30 8 1 8 9
M  V30 9 2 9 10
M  V30 10 1 10 11
M  V30 11 2 11 12
M  V30 12 1 12 13
M  V30 13 1 13 14
M  V30 14 2 14 15
M  V30 15 1 14 16
M  V30 16 2 13 17
M  V30 17 1 7 18
M  V30 18 2 18 19
M  V30 19 1 19 20
M  V30 20 2 20 21
M  V30 21 1 21 22
M  V30 22 2 22 23
M  V30 23 1 23 24
M  V30 24 1 23 25
M  V30 25 2 25 26
M  V30 26 1 26 27
M  V30 27 1 27 2
M  V30 28 1 19 4
M  V30 29 1 26 20
M  V30 30 1 17 9
M  V30 31 1 3 28
M  V30 32 1 3 29
M  V30 33 1 5 30
M  V30 34 1 8 31
M  V30 35 1 10 32
M  V30 36 1 11 33
M  V30 37 1 12 34
M  V30 38 1 16 35
M  V30 39 1 17 36
M  V30 40 1 21 37
M  V30 41 1 22 38
M  V30 42 1 25 39
M  V30 43 1 27 40
M  V30 END BOND
M  V30 END CTAB
M  END
>  <Dataset>  (958) 
ChEMBL_Kinases

>  <Ligand_Instance>  (958) 
nan

>  <PDB_ID>  (958) 
nan

>  <Standardized_SMILES>  (958) 
O=C1Cc2cnc(Nc3cccc(C(=O)O)c3)nc2-c2ccc(Cl)cc2N1

>  <Name>  (958) 
nan

>  <Pocket>  (958) 
nan

>  <ATP_Site>  (958) 
nan

>  <Peripheral>  (958) 
nan

>  <Num_H_Atoms_ProtBoundConf>  (958) 
nan

>  <Num_Resolved_Atoms>  (958) 
nan

>  <Num_Not_Resolved_Atoms>  (958) 
nan

$$$$
CHEMBL1944687
     RDKit          3D

  0  0  0  0  0  0  0  0  0  0999 V3000
M  V30 BEGIN CTAB
M  V30 COUNTS 37 40 0 0 0
M  V30 BEGIN ATOM
M  V30 1 O 1.456128 -5.469030 2.984746 0
M  V30 2 C 0.869915 -4.414670 2.566419 0
M  V30 3 C 1.024197 -3.235299 3.425644 0
M  V30 4 C 1.091370 -1.947343 2.689812 0
M  V30 5 C 1.969902 -1.057105 3.261310 0
M  V30 6 N 2.134182 0.146134 2.701212 0
M  V30 7 C 1.508858 0.589768 1.601023 0
M  V30 8 N 1.781847 1.897816 1.126729 0
M  V30 9 C 1.287425 2.522807 -0.023080 0
M  V30 10 C 0.531038 1.942986 -1.016687 0
M  V30 11 C 0.058308 2.610626 -2.127906 0
M  V30 12 C 0.345123 3.947712 -2.283136 0
M  V30 13 C 1.098019 4.582891 -1.322047 0
M  V30 14 C 1.537212 3.858339 -0.239771 0
M  V30 15 N 0.641125 -0.290439 1.037500 0
M  V30 16 C 0.435823 -1.513826 1.557360 0
M  V30 17 C -0.535367 -2.287427 0.793931 0
M  V30 18 C -1.412697 -1.460890 0.124929 0
M  V30 19 C -2.414742 -1.988147 -0.662906 0
M  V30 20 C -2.514394 -3.379951 -0.762978 0
M  V30 21 Cl -3.772676 -4.103593 -1.754306 0
M  V30 22 C -1.618525 -4.203935 -0.079194 0
M  V30 23 C -0.623534 -3.672172 0.703252 0
M  V30 24 N 0.183150 -4.647698 1.321196 0
M  V30 25 H 1.986291 -3.337700 3.971120 0
M  V30 26 H 0.208129 -3.215986 4.195046 0
M  V30 27 H 2.537698 -1.304565 4.159996 0
M  V30 28 H 2.446196 2.473567 1.721253 0
M  V30 29 H 0.286672 0.908183 -0.946561 0
M  V30 30 H -0.540597 2.076329 -2.877966 0
M  V30 31 H 0.000455 4.518072 -3.133806 0
M  V30 32 H 1.316942 5.630070 -1.453907 0
M  V30 33 H 2.130048 4.452281 0.471571 0
M  V30 34 H -1.293572 -0.393290 0.239456 0
M  V30 35 H -3.122096 -1.355557 -1.202929 0
M  V30 36 H -1.668314 -5.281073 -0.135132 0
M  V30 37 H 0.248108 -5.554309 0.811775 0
M  V30 END ATOM
M  V30 BEGIN BOND
M  V30 1 2 1 2
M  V30 2 1 2 3
M  V30 3 1 3 4
M  V30 4 2 4 5
M  V30 5 1 5 6
M  V30 6 2 6 7
M  V30 7 1 7 8
M  V30 8 1 8 9
M  V30 9 2 9 10
M  V30 10 1 10 11
M  V30 11 2 11 12
M  V30 12 1 12 13
M  V30 13 2 13 14
M  V30 14 1 7 15
M  V30 15 2 15 16
M  V30 16 1 16 17
M  V30 17 2 17 18
M  V30 18 1 18 19
M  V30 19 2 19 20
M  V30 20 1 20 21
M  V30 21 1 20 22
M  V30 22 2 22 23
M  V30 23 1 23 24
M  V30 24 1 24 2
M  V30 25 1 16 4
M  V30 26 1 23 17
M  V30 27 1 14 9
M  V30 28 1 3 25
M  V30 29 1 3 26
M  V30 30 1 5 27
M  V30 31 1 8 28
M  V30 32 1 10 29
M  V30 33 1 11 30
M  V30 34 1 12 31
M  V30 35 1 13 32
M  V30 36 1 14 33
M  V30 37 1 18 34
M  V30 38 1 19 35
M  V30 39 1 22 36
M  V30 40 1 24 37
M  V30 END BOND
M  V30 END CTAB
M  END
>  <Dataset>  (959) 
ChEMBL_Kinases

>  <Ligand_Instance>  (959) 
nan

>  <PDB_ID>  (959) 
nan

>  <Standardized_SMILES>  (959) 
O=C1Cc2cnc(Nc3ccccc3)nc2-c2ccc(Cl)cc2N1

>  <Name>  (959) 
nan

>  <Pocket>  (959) 
nan

>  <ATP_Site>  (959) 
nan

>  <Peripheral>  (959) 
nan

>  <Num_H_Atoms_ProtBoundConf>  (959) 
nan

>  <Num_Resolved_Atoms>  (959) 
nan

>  <Num_Not_Resolved_Atoms>  (959) 
nan

$$$$
CHEMBL1944686
     RDKit          3D

  0  0  0  0  0  0  0  0  0  0999 V3000
M  V30 BEGIN CTAB
M  V30 COUNTS 45 48 0 0 0
M  V30 BEGIN ATOM
M  V30 1 C 2.623617 -6.531504 3.420815 0
M  V30 2 O 3.100589 -5.272163 3.037952 0
M  V30 3 C 2.309037 -4.306016 2.432963 0
M  V30 4 C 2.882581 -3.101563 2.098958 0
M  V30 5 C 2.188072 -2.074703 1.495687 0
M  V30 6 N 2.839936 -0.858328 1.165795 0
M  V30 7 C 2.264116 0.353487 0.698750 0
M  V30 8 N 3.080914 1.368972 0.366377 0
M  V30 9 C 2.622072 2.545265 -0.073999 0
M  V30 10 C 1.273812 2.785288 -0.212859 0
M  V30 11 C 0.441410 1.740677 0.129948 0
M  V30 12 N 0.940970 0.591982 0.561621 0
M  V30 13 C -1.011601 1.750647 0.074317 0
M  V30 14 C -1.538679 0.851613 0.994589 0
M  V30 15 C -2.921678 0.748730 1.055889 0
M  V30 16 C -3.723938 1.514352 0.230704 0
M  V30 17 Cl -5.470574 1.408061 0.284076 0
M  V30 18 C -3.193612 2.418611 -0.694637 0
M  V30 19 C -1.805819 2.530040 -0.764707 0
M  V30 20 N -1.413043 3.492410 -1.750832 0
M  V30 21 C -0.171485 4.215084 -1.630969 0
M  V30 22 O -0.089288 5.108219 -2.541640 0
M  V30 23 C 0.963596 4.130822 -0.711667 0
M  V30 24 C 0.876674 -2.360218 1.258200 0
M  V30 25 C 0.238589 -3.540680 1.565194 0
M  V30 26 O -1.103191 -3.776042 1.299239 0
M  V30 27 C -1.951308 -2.833557 0.687840 0
M  V30 28 C 0.975622 -4.537948 2.168087 0
M  V30 29 H 3.285631 -6.888164 4.258542 0
M  V30 30 H 1.589128 -6.513951 3.774105 0
M  V30 31 H 2.735937 -7.244534 2.578938 0
M  V30 32 H 3.950579 -2.961002 2.329088 0
M  V30 33 H 3.897177 -0.864638 1.286456 0
M  V30 34 H 3.356902 3.316372 -0.322095 0
M  V30 35 H -0.854528 0.290377 1.606363 0
M  V30 36 H -3.363282 0.058683 1.760255 0
M  V30 37 H -3.773356 3.027572 -1.348964 0
M  V30 38 H -2.067520 3.625448 -2.530172 0
M  V30 39 H 0.930783 4.824731 0.148807 0
M  V30 40 H 1.865890 4.468853 -1.302238 0
M  V30 41 H 0.246214 -1.638119 0.787682 0
M  V30 42 H -1.483676 -2.241933 -0.106877 0
M  V30 43 H -2.832126 -3.414636 0.305725 0
M  V30 44 H -2.371250 -2.103980 1.432312 0
M  V30 45 H 0.488935 -5.475620 2.416527 0
M  V30 END ATOM
M  V30 BEGIN BOND
M  V30 1 1 1 2
M  V30 2 1 2 3
M  V30 3 2 3 4
M  V30 4 1 4 5
M  V30 5 1 5 6
M  V30 6 1 6 7
M  V30 7 2 7 8
M  V30 8 1 8 9
M  V30 9 2 9 10
M  V30 10 1 10 11
M  V30 11 2 11 12
M  V30 12 1 11 13
M  V30 13 2 13 14
M  V30 14 1 14 15
M  V30 15 2 15 16
M  V30 16 1 16 17
M  V30 17 1 16 18
M  V30 18 2 18 19
M  V30 19 1 19 20
M  V30 20 1 20 21
M  V30 21 2 21 22
M  V30 22 1 21 23
M  V30 23 2 5 24
M  V30 24 1 24 25
M  V30 25 1 25 26
M  V30 26 1 26 27
M  V30 27 2 25 28
M  V30 28 1 28 3
M  V30 29 1 12 7
M  V30 30 1 19 13
M  V30 31 1 23 10
M  V30 32 1 1 29
M  V30 33 1 1 30
M  V30 34 1 1 31
M  V30 35 1 4 32
M  V30 36 1 6 33
M  V30 37 1 9 34
M  V30 38 1 14 35
M  V30 39 1 15 36
M  V30 40 1 18 37
M  V30 41 1 20 38
M  V30 42 1 23 39
M  V30 43 1 23 40
M  V30 44 1 24 41
M  V30 45 1 27 42
M  V30 46 1 27 43
M  V30 47 1 27 44
M  V30 48 1 28 45
M  V30 END BOND
M  V30 END CTAB
M  END
>  <Dataset>  (960) 
ChEMBL_Kinases

>  <Ligand_Instance>  (960) 
nan

>  <PDB_ID>  (960) 
nan

>  <Standardized_SMILES>  (960) 
COc1cc(Nc2ncc3c(n2)-c2ccc(Cl)cc2NC(=O)C3)cc(OC)c1

>  <Name>  (960) 
nan

>  <Pocket>  (960) 
nan

>  <ATP_Site>  (960) 
nan

>  <Peripheral>  (960) 
nan

>  <Num_H_Atoms_ProtBoundConf>  (960) 
nan

>  <Num_Resolved_Atoms>  (960) 
nan

>  <Num_Not_Resolved_Atoms>  (960) 
nan

$$$$
CHEMBL1944685
     RDKit          3D

  0  0  0  0  0  0  0  0  0  0999 V3000
M  V30 BEGIN CTAB
M  V30 COUNTS 41 44 0 0 0
M  V30 BEGIN ATOM
M  V30 1 C 2.577243 -5.671076 1.713154 0
M  V30 2 O 1.494625 -5.383850 0.884600 0
M  V30 3 C 1.351876 -4.232935 0.103569 0
M  V30 4 C 2.233422 -3.174242 -0.006288 0
M  V30 5 C 1.897924 -2.117867 -0.842423 0
M  V30 6 C 0.688216 -2.130572 -1.557313 0
M  V30 7 N 0.710237 -0.880597 -2.283452 0
M  V30 8 C -0.184222 0.020282 -1.619581 0
M  V30 9 N -1.362700 0.498699 -2.034117 0
M  V30 10 C -2.106616 1.338267 -1.292713 0
M  V30 11 C -1.619534 1.718432 -0.038974 0
M  V30 12 C -0.404251 1.233438 0.408741 0
M  V30 13 N 0.303076 0.384415 -0.393727 0
M  V30 14 C 0.331195 1.442982 1.655107 0
M  V30 15 C 1.685319 1.209464 1.574319 0
M  V30 16 C 2.470608 1.385197 2.716588 0
M  V30 17 C 1.876051 1.782588 3.882425 0
M  V30 18 Cl 2.897543 1.993208 5.297549 0
M  V30 19 C 0.521269 2.018640 3.971470 0
M  V30 20 C -0.279798 1.852392 2.854323 0
M  V30 21 N -1.673609 2.128434 3.109528 0
M  V30 22 C -2.722444 2.215405 2.123278 0
M  V30 23 O -3.850289 1.880487 2.607714 0
M  V30 24 C -2.514292 2.645818 0.703459 0
M  V30 25 C -0.174230 -3.188448 -1.436333 0
M  V30 26 C 0.153261 -4.238225 -0.609804 0
M  V30 27 H 3.459059 -5.117673 1.322475 0
M  V30 28 H 2.809940 -6.741850 1.590328 0
M  V30 29 H 2.393815 -5.415211 2.779490 0
M  V30 30 H 3.116945 -3.283385 0.588815 0
M  V30 31 H 2.719844 -1.384156 -0.794791 0
M  V30 32 H 1.273963 -0.663240 -3.149072 0
M  V30 33 H -3.054371 1.718874 -1.639311 0
M  V30 34 H 2.037255 0.899629 0.604060 0
M  V30 35 H 3.514589 1.181082 2.566213 0
M  V30 36 H 0.050966 2.336407 4.896309 0
M  V30 37 H -1.912463 2.274303 4.134261 0
M  V30 38 H -3.487647 2.699258 0.176848 0
M  V30 39 H -2.042182 3.668999 0.653707 0
M  V30 40 H -1.027112 -2.989565 -2.066371 0
M  V30 41 H -0.599647 -5.009856 -0.598979 0
M  V30 END ATOM
M  V30 BEGIN BOND
M  V30 1 1 1 2
M  V30 2 1 2 3
M  V30 3 2 3 4
M  V30 4 1 4 5
M  V30 5 2 5 6
M  V30 6 1 6 7
M  V30 7 1 7 8
M  V30 8 2 8 9
M  V30 9 1 9 10
M  V30 10 2 10 11
M  V30 11 1 11 12
M  V30 12 2 12 13
M  V30 13 1 12 14
M  V30 14 2 14 15
M  V30 15 1 15 16
M  V30 16 2 16 17
M  V30 17 1 17 18
M  V30 18 1 17 19
M  V30 19 2 19 20
M  V30 20 1 20 21
M  V30 21 1 21 22
M  V30 22 2 22 23
M  V30 23 1 22 24
M  V30 24 1 6 25
M  V30 25 2 25 26
M  V30 26 1 26 3
M  V30 27 1 13 8
M  V30 28 1 20 14
M  V30 29 1 24 11
M  V30 30 1 1 27
M  V30 31 1 1 28
M  V30 32 1 1 29
M  V30 33 1 4 30
M  V30 34 1 5 31
M  V30 35 1 7 32
M  V30 36 1 10 33
M  V30 37 1 15 34
M  V30 38 1 16 35
M  V30 39 1 19 36
M  V30 40 1 21 37
M  V30 41 1 24 38
M  V30 42 1 24 39
M  V30 43 1 25 40
M  V30 44 1 26 41
M  V30 END BOND
M  V30 END CTAB
M  END
>  <Dataset>  (961) 
ChEMBL_Kinases

>  <Ligand_Instance>  (961) 
nan

>  <PDB_ID>  (961) 
nan

>  <Standardized_SMILES>  (961) 
COc1ccc(Nc2ncc3c(n2)-c2ccc(Cl)cc2NC(=O)C3)cc1

>  <Name>  (961) 
nan

>  <Pocket>  (961) 
nan

>  <ATP_Site>  (961) 
nan

>  <Peripheral>  (961) 
nan

>  <Num_H_Atoms_ProtBoundConf>  (961) 
nan

>  <Num_Resolved_Atoms>  (961) 
nan

>  <Num_Not_Resolved_Atoms>  (961) 
nan

$$$$
CHEMBL1944684
     RDKit          3D

  0  0  0  0  0  0  0  0  0  0999 V3000
M  V30 BEGIN CTAB
M  V30 COUNTS 41 44 0 0 0
M  V30 BEGIN ATOM
M  V30 1 C 2.724544 -5.175224 1.906063 0
M  V30 2 O 2.069321 -3.981854 1.500635 0
M  V30 3 C 2.551295 -3.324664 0.378199 0
M  V30 4 C 3.635585 -3.860185 -0.283445 0
M  V30 5 C 4.104214 -3.199618 -1.395077 0
M  V30 6 C 3.515258 -2.055001 -1.825709 0
M  V30 7 C 2.429373 -1.461933 -1.215277 0
M  V30 8 N 1.841063 -0.272986 -1.703288 0
M  V30 9 C 0.828109 0.536769 -1.121702 0
M  V30 10 N 0.383709 1.577120 -1.806814 0
M  V30 11 C -0.558605 2.420706 -1.372905 0
M  V30 12 C -1.123230 2.219083 -0.133263 0
M  V30 13 C -0.670485 1.143369 0.587602 0
M  V30 14 N 0.280793 0.329541 0.096665 0
M  V30 15 C -1.124663 0.748517 1.915305 0
M  V30 16 C -0.139351 0.040418 2.573498 0
M  V30 17 C -0.440336 -0.405720 3.863045 0
M  V30 18 C -1.662097 -0.151662 4.451134 0
M  V30 19 Cl -2.062436 -0.698292 6.059796 0
M  V30 20 C -2.655474 0.567053 3.777003 0
M  V30 21 C -2.351383 1.010256 2.491398 0
M  V30 22 N -3.461576 1.731125 1.935106 0
M  V30 23 C -3.276144 2.780763 0.962184 0
M  V30 24 O -4.360828 3.431942 0.775475 0
M  V30 25 C -2.135744 3.234745 0.173009 0
M  V30 26 C 2.001362 -2.161098 -0.111753 0
M  V30 27 H 2.820087 -5.896732 1.044340 0
M  V30 28 H 3.753082 -4.996888 2.278522 0
M  V30 29 H 2.148183 -5.699796 2.687503 0
M  V30 30 H 4.154575 -4.762164 -0.002509 0
M  V30 31 H 4.960020 -3.597774 -1.939832 0
M  V30 32 H 3.937596 -1.574777 -2.720772 0
M  V30 33 H 2.227775 0.029748 -2.629032 0
M  V30 34 H -0.872637 3.257603 -1.998044 0
M  V30 35 H 0.795136 -0.129892 2.077454 0
M  V30 36 H 0.313571 -0.964739 4.405202 0
M  V30 37 H -3.623927 0.794756 4.183388 0
M  V30 38 H -4.405854 1.449825 2.277936 0
M  V30 39 H -1.631636 4.067224 0.724715 0
M  V30 40 H -2.521893 3.721363 -0.770160 0
M  V30 41 H 1.156483 -1.816975 0.459487 0
M  V30 END ATOM
M  V30 BEGIN BOND
M  V30 1 1 1 2
M  V30 2 1 2 3
M  V30 3 2 3 4
M  V30 4 1 4 5
M  V30 5 2 5 6
M  V30 6 1 6 7
M  V30 7 1 7 8
M  V30 8 1 8 9
M  V30 9 2 9 10
M  V30 10 1 10 11
M  V30 11 2 11 12
M  V30 12 1 12 13
M  V30 13 2 13 14
M  V30 14 1 13 15
M  V30 15 2 15 16
M  V30 16 1 16 17
M  V30 17 2 17 18
M  V30 18 1 18 19
M  V30 19 1 18 20
M  V30 20 2 20 21
M  V30 21 1 21 22
M  V30 22 1 22 23
M  V30 23 2 23 24
M  V30 24 1 23 25
M  V30 25 2 7 26
M  V30 26 1 26 3
M  V30 27 1 14 9
M  V30 28 1 21 15
M  V30 29 1 25 12
M  V30 30 1 1 27
M  V30 31 1 1 28
M  V30 32 1 1 29
M  V30 33 1 4 30
M  V30 34 1 5 31
M  V30 35 1 6 32
M  V30 36 1 8 33
M  V30 37 1 11 34
M  V30 38 1 16 35
M  V30 39 1 17 36
M  V30 40 1 20 37
M  V30 41 1 22 38
M  V30 42 1 25 39
M  V30 43 1 25 40
M  V30 44 1 26 41
M  V30 END BOND
M  V30 END CTAB
M  END
>  <Dataset>  (962) 
ChEMBL_Kinases

>  <Ligand_Instance>  (962) 
nan

>  <PDB_ID>  (962) 
nan

>  <Standardized_SMILES>  (962) 
COc1cccc(Nc2ncc3c(n2)-c2ccc(Cl)cc2NC(=O)C3)c1

>  <Name>  (962) 
nan

>  <Pocket>  (962) 
nan

>  <ATP_Site>  (962) 
nan

>  <Peripheral>  (962) 
nan

>  <Num_H_Atoms_ProtBoundConf>  (962) 
nan

>  <Num_Resolved_Atoms>  (962) 
nan

>  <Num_Not_Resolved_Atoms>  (962) 
nan

$$$$
CHEMBL1944683
     RDKit          3D

  0  0  0  0  0  0  0  0  0  0999 V3000
M  V30 BEGIN CTAB
M  V30 COUNTS 51 54 0 0 0
M  V30 BEGIN ATOM
M  V30 1 C 0.703288 -3.398579 -4.066478 0
M  V30 2 C 1.978222 -3.224931 -3.289904 0
M  V30 3 C 1.885576 -2.050193 -2.366045 0
M  V30 4 C 1.427860 -2.175727 -1.068967 0
M  V30 5 C 1.329566 -1.101251 -0.190915 0
M  V30 6 C 1.708246 0.145616 -0.642857 0
M  V30 7 C 2.168414 0.294169 -1.934848 0
M  V30 8 C 2.255541 -0.788600 -2.784334 0
M  V30 9 N 2.604251 1.488873 -2.571479 0
M  V30 10 C 3.166154 2.604463 -1.862170 0
M  V30 11 O 3.774873 3.417594 -2.630469 0
M  V30 12 C 3.211733 3.046101 -0.443289 0
M  V30 13 C 2.216216 2.349168 0.412191 0
M  V30 14 C 1.944979 3.182830 1.474814 0
M  V30 15 N 1.062631 2.772479 2.391662 0
M  V30 16 C 0.398491 1.617186 2.393356 0
M  V30 17 N -0.498285 1.336702 3.452098 0
M  V30 18 C -1.360614 0.235045 3.610730 0
M  V30 19 C -2.051118 0.073741 4.792980 0
M  V30 20 C -2.924923 -0.960917 5.025288 0
M  V30 21 C -3.166717 -1.917479 4.069040 0
M  V30 22 O -4.016757 -3.002363 4.173900 0
M  V30 23 C -4.734872 -3.182570 5.382403 0
M  V30 24 C -2.498058 -1.799529 2.865834 0
M  V30 25 O -2.673891 -2.709147 1.842888 0
M  V30 26 C -1.997051 -2.614522 0.628878 0
M  V30 27 C -1.623532 -0.738351 2.673576 0
M  V30 28 N 0.665069 0.795414 1.348596 0
M  V30 29 C 1.542417 1.145691 0.390136 0
M  V30 30 H 0.570180 -4.439032 -4.401184 0
M  V30 31 H 0.783553 -2.798397 -5.022169 0
M  V30 32 H -0.148730 -2.963820 -3.528088 0
M  V30 33 H 2.790239 -3.055805 -4.036041 0
M  V30 34 H 2.263324 -4.147647 -2.761404 0
M  V30 35 H 1.128267 -3.143144 -0.705475 0
M  V30 36 H 0.980275 -1.187819 0.817121 0
M  V30 37 H 2.617303 -0.623849 -3.775740 0
M  V30 38 H 2.500602 1.529664 -3.605997 0
M  V30 39 H 3.009942 4.143520 -0.471066 0
M  V30 40 H 4.229633 2.930991 -0.036802 0
M  V30 41 H 2.382335 4.159777 1.653400 0
M  V30 42 H -0.526569 2.058444 4.235745 0
M  V30 43 H -1.952430 0.765223 5.644327 0
M  V30 44 H -3.457310 -1.069520 5.960742 0
M  V30 45 H -4.074229 -3.558455 6.197849 0
M  V30 46 H -5.544416 -3.902529 5.199461 0
M  V30 47 H -5.129595 -2.211028 5.698130 0
M  V30 48 H -0.910029 -2.659431 0.825193 0
M  V30 49 H -2.304424 -3.432872 -0.089384 0
M  V30 50 H -2.324968 -1.683951 0.114142 0
M  V30 51 H -1.132960 -0.677937 1.735285 0
M  V30 END ATOM
M  V30 BEGIN BOND
M  V30 1 1 1 2
M  V30 2 1 2 3
M  V30 3 2 3 4
M  V30 4 1 4 5
M  V30 5 2 5 6
M  V30 6 1 6 7
M  V30 7 2 7 8
M  V30 8 1 7 9
M  V30 9 1 9 10
M  V30 10 2 10 11
M  V30 11 1 10 12
M  V30 12 1 12 13
M  V30 13 2 13 14
M  V30 14 1 14 15
M  V30 15 2 15 16
M  V30 16 1 16 17
M  V30 17 1 17 18
M  V30 18 2 18 19
M  V30 19 1 19 20
M  V30 20 2 20 21
M  V30 21 1 21 22
M  V30 22 1 22 23
M  V30 23 1 21 24
M  V30 24 1 24 25
M  V30 25 1 25 26
M  V30 26 2 24 27
M  V30 27 1 16 28
M  V30 28 2 28 29
M  V30 29 1 8 3
M  V30 30 1 29 13
M  V30 31 1 29 6
M  V30 32 1 27 18
M  V30 33 1 1 30
M  V30 34 1 1 31
M  V30 35 1 1 32
M  V30 36 1 2 33
M  V30 37 1 2 34
M  V30 38 1 4 35
M  V30 39 1 5 36
M  V30 40 1 8 37
M  V30 41 1 9 38
M  V30 42 1 12 39
M  V30 43 1 12 40
M  V30 44 1 14 41
M  V30 45 1 17 42
M  V30 46 1 19 43
M  V30 47 1 20 44
M  V30 48 1 23 45
M  V30 49 1 23 46
M  V30 50 1 23 47
M  V30 51 1 26 48
M  V30 52 1 26 49
M  V30 53 1 26 50
M  V30 54 1 27 51
M  V30 END BOND
M  V30 END CTAB
M  END
>  <Dataset>  (963) 
ChEMBL_Kinases

>  <Ligand_Instance>  (963) 
nan

>  <PDB_ID>  (963) 
nan

>  <Standardized_SMILES>  (963) 
CCc1ccc2c(c1)NC(=O)Cc1cnc(Nc3ccc(OC)c(OC)c3)nc1-2

>  <Name>  (963) 
nan

>  <Pocket>  (963) 
nan

>  <ATP_Site>  (963) 
nan

>  <Peripheral>  (963) 
nan

>  <Num_H_Atoms_ProtBoundConf>  (963) 
nan

>  <Num_Resolved_Atoms>  (963) 
nan

>  <Num_Not_Resolved_Atoms>  (963) 
nan

$$$$
CHEMBL1940905
     RDKit          3D

  0  0  0  0  0  0  0  0  0  0999 V3000
M  V30 BEGIN CTAB
M  V30 COUNTS 57 61 0 0 0
M  V30 BEGIN ATOM
M  V30 1 N 0.471649 -1.789217 4.466888 0
M  V30 2 C 0.489266 -1.751743 3.054725 0
M  V30 3 C 1.663158 -1.384422 2.445237 0
M  V30 4 F 2.747253 -1.077342 3.197436 0
M  V30 5 C 1.767994 -1.321547 1.078431 0
M  V30 6 N 2.981022 -0.940355 0.443711 0
M  V30 7 C 3.248123 0.445413 0.137125 0
M  V30 8 C 3.273048 1.327457 1.343184 0
M  V30 9 N 3.541669 2.715802 1.008374 0
M  V30 10 C 2.500030 3.154421 0.129959 0
M  V30 11 C 2.407022 3.125758 -1.256941 0
M  V30 12 C 1.277955 3.619795 -1.841559 0
M  V30 13 C 0.251670 4.134346 -1.108897 0
M  V30 14 C 0.360930 4.154351 0.256452 0
M  V30 15 N 1.473298 3.668719 0.853526 0
M  V30 16 C 0.654564 -1.639760 0.333679 0
M  V30 17 C -0.586557 -2.025891 0.868326 0
M  V30 18 C -0.624712 -2.069251 2.269185 0
M  V30 19 C -1.736859 -2.420406 3.027887 0
M  V30 20 O -1.737524 -2.448711 4.265248 0
M  V30 21 C -2.880143 -2.747905 2.333861 0
M  V30 22 C -4.082374 -3.125326 3.066970 0
M  V30 23 O -4.024922 -3.136367 4.314979 0
M  V30 24 O -5.249856 -3.460494 2.394847 0
M  V30 25 C -2.816682 -2.697728 0.956989 0
M  V30 26 N -1.755874 -2.363044 0.238460 0
M  V30 27 C -1.912044 -2.383381 -1.173178 0
M  V30 28 C -1.055209 -3.554747 -1.696551 0
M  V30 29 C -2.326860 -4.377476 -1.621982 0
M  V30 30 C -3.032852 -3.034263 -1.842553 0
M  V30 31 C -1.414023 -1.061971 -1.704309 0
M  V30 32 C 0.040316 -1.103668 -2.092387 0
M  V30 33 O 0.889241 -1.536478 -1.053236 0
M  V30 34 H 0.133610 -0.810261 4.630858 0
M  V30 35 H 0.782939 -2.723002 4.827174 0
M  V30 36 H 3.544541 -1.793560 0.280876 0
M  V30 37 H 2.408095 0.770783 -0.530714 0
M  V30 38 H 4.182967 0.581185 -0.428738 0
M  V30 39 H 4.063315 0.974967 2.052899 0
M  V30 40 H 2.305120 1.231795 1.875325 0
M  V30 41 H 4.260359 3.448469 1.227379 0
M  V30 42 H 3.303995 2.687131 -1.683733 0
M  V30 43 H 1.295202 3.555610 -2.926007 0
M  V30 44 H -0.626680 4.514829 -1.637608 0
M  V30 45 H -0.477602 4.573124 0.823555 0
M  V30 46 H -6.111755 -3.710570 2.888600 0
M  V30 47 H -3.742262 -2.962812 0.466244 0
M  V30 48 H -0.741744 -3.440261 -2.754692 0
M  V30 49 H -0.253665 -3.881902 -1.027621 0
M  V30 50 H -2.461993 -5.097953 -2.450450 0
M  V30 51 H -2.569783 -4.743157 -0.616556 0
M  V30 52 H -2.982449 -2.835594 -2.945136 0
M  V30 53 H -4.059348 -2.960253 -1.526429 0
M  V30 54 H -1.564730 -0.263148 -0.969408 0
M  V30 55 H -1.977708 -0.808844 -2.616855 0
M  V30 56 H 0.212439 -1.662860 -3.033797 0
M  V30 57 H 0.337431 -0.052038 -2.327958 0
M  V30 END ATOM
M  V30 BEGIN BOND
M  V30 1 1 1 2
M  V30 2 2 2 3
M  V30 3 1 3 4
M  V30 4 1 3 5
M  V30 5 1 5 6
M  V30 6 1 6 7
M  V30 7 1 7 8
M  V30 8 1 8 9
M  V30 9 1 9 10
M  V30 10 2 10 11
M  V30 11 1 11 12
M  V30 12 2 12 13
M  V30 13 1 13 14
M  V30 14 2 14 15
M  V30 15 2 5 16
M  V30 16 1 16 17
M  V30 17 2 17 18
M  V30 18 1 18 19
M  V30 19 2 19 20
M  V30 20 1 19 21
M  V30 21 1 21 22
M  V30 22 2 22 23
M  V30 23 1 22 24
M  V30 24 2 21 25
M  V30 25 1 25 26
M  V30 26 1 26 27
M  V30 27 1 27 28
M  V30 28 1 28 29
M  V30 29 1 29 30
M  V30 30 1 27 31
M  V30 31 1 31 32
M  V30 32 1 32 33
M  V30 33 1 18 2
M  V30 34 1 30 27
M  V30 35 1 15 10
M  V30 36 1 33 16
M  V30 37 1 26 17
M  V30 38 1 1 34
M  V30 39 1 1 35
M  V30 40 1 6 36
M  V30 41 1 7 37
M  V30 42 1 7 38
M  V30 43 1 8 39
M  V30 44 1 8 40
M  V30 45 1 9 41
M  V30 46 1 11 42
M  V30 47 1 12 43
M  V30 48 1 13 44
M  V30 49 1 14 45
M  V30 50 1 24 46
M  V30 51 1 25 47
M  V30 52 1 28 48
M  V30 53 1 28 49
M  V30 54 1 29 50
M  V30 55 1 29 51
M  V30 56 1 30 52
M  V30 57 1 30 53
M  V30 58 1 31 54
M  V30 59 1 31 55
M  V30 60 1 32 56
M  V30 61 1 32 57
M  V30 END BOND
M  V30 END CTAB
M  END
>  <Dataset>  (964) 
ChEMBL_Kinases

>  <Ligand_Instance>  (964) 
nan

>  <PDB_ID>  (964) 
nan

>  <Standardized_SMILES>  (964) 
Nc1c(F)c(NCCNc2ccccn2)c2c3c1c(=O)c(C(=O)O)cn3C1(CCC1)CCO2

>  <Name>  (964) 
nan

>  <Pocket>  (964) 
nan

>  <ATP_Site>  (964) 
nan

>  <Peripheral>  (964) 
nan

>  <Num_H_Atoms_ProtBoundConf>  (964) 
nan

>  <Num_Resolved_Atoms>  (964) 
nan

>  <Num_Not_Resolved_Atoms>  (964) 
nan

$$$$
CHEMBL1940906
     RDKit          3D

  0  0  0  0  0  0  0  0  0  0999 V3000
M  V30 BEGIN CTAB
M  V30 COUNTS 54 58 0 0 0
M  V30 BEGIN ATOM
M  V30 1 N -0.602764 -1.300036 4.440768 0
M  V30 2 C -0.315065 -1.510426 3.062432 0
M  V30 3 C 0.867386 -1.089118 2.490699 0
M  V30 4 F 1.726633 -0.493084 3.355071 0
M  V30 5 C 1.224656 -1.250371 1.171015 0
M  V30 6 N 2.427381 -0.780028 0.609571 0
M  V30 7 C 3.491748 -0.006483 1.180448 0
M  V30 8 C 3.091678 1.443387 1.298651 0
M  V30 9 N 2.800554 1.919041 -0.056250 0
M  V30 10 C 2.389287 3.287708 -0.236177 0
M  V30 11 C 2.103412 3.785667 -1.489407 0
M  V30 12 C 1.708681 5.104504 -1.649016 0
M  V30 13 C 1.596441 5.939211 -0.550471 0
M  V30 14 C 1.896596 5.377342 0.668202 0
M  V30 15 N 2.277714 4.101807 0.816875 0
M  V30 16 C 0.303621 -1.893733 0.370922 0
M  V30 17 C -0.926461 -2.362402 0.846169 0
M  V30 18 C -1.211825 -2.156521 2.202330 0
M  V30 19 C -2.392833 -2.562230 2.839424 0
M  V30 20 O -2.610240 -2.360914 4.048494 0
M  V30 21 C -3.335038 -3.208881 2.070076 0
M  V30 22 C -4.593999 -3.668052 2.644318 0
M  V30 23 O -5.516358 -4.267418 2.024393 0
M  V30 24 O -4.833141 -3.442934 3.989442 0
M  V30 25 C -3.021809 -3.393976 0.742546 0
M  V30 26 N -1.897495 -3.010587 0.123555 0
M  V30 27 C -1.808836 -3.319590 -1.278110 0
M  V30 28 C -0.472041 -3.995484 -1.491849 0
M  V30 29 C 0.546438 -2.981355 -1.921174 0
M  V30 30 O 0.765358 -2.002953 -0.932748 0
M  V30 31 C -2.968877 -3.606785 -2.111005 0
M  V30 32 C -2.249439 -2.243932 -2.202127 0
M  V30 33 H -0.672217 -1.896601 5.298772 0
M  V30 34 H -0.827769 -0.404361 4.925487 0
M  V30 35 H 2.606916 -1.021728 -0.410218 0
M  V30 36 H 4.432342 -0.078801 0.576419 0
M  V30 37 H 3.805298 -0.415441 2.181084 0
M  V30 38 H 3.952405 2.062833 1.653078 0
M  V30 39 H 2.261366 1.630393 1.969920 0
M  V30 40 H 2.876648 1.310422 -0.907534 0
M  V30 41 H 2.200433 3.115334 -2.311626 0
M  V30 42 H 1.507645 5.390662 -2.689603 0
M  V30 43 H 1.286621 6.954384 -0.725362 0
M  V30 44 H 1.808199 6.032232 1.527137 0
M  V30 45 H -5.608833 -3.866539 4.499070 0
M  V30 46 H -3.788673 -3.908864 0.181764 0
M  V30 47 H -0.554676 -4.839958 -2.211900 0
M  V30 48 H -0.158318 -4.463162 -0.539016 0
M  V30 49 H 1.508239 -3.527749 -2.133718 0
M  V30 50 H 0.227423 -2.441253 -2.833433 0
M  V30 51 H -4.017338 -3.577303 -1.769676 0
M  V30 52 H -2.859346 -4.228143 -3.039687 0
M  V30 53 H -2.819012 -1.389427 -1.772143 0
M  V30 54 H -1.737762 -2.011755 -3.137183 0
M  V30 END ATOM
M  V30 BEGIN BOND
M  V30 1 1 1 2
M  V30 2 2 2 3
M  V30 3 1 3 4
M  V30 4 1 3 5
M  V30 5 1 5 6
M  V30 6 1 6 7
M  V30 7 1 7 8
M  V30 8 1 8 9
M  V30 9 1 9 10
M  V30 10 2 10 11
M  V30 11 1 11 12
M  V30 12 2 12 13
M  V30 13 1 13 14
M  V30 14 2 14 15
M  V30 15 2 5 16
M  V30 16 1 16 17
M  V30 17 2 17 18
M  V30 18 1 18 19
M  V30 19 2 19 20
M  V30 20 1 19 21
M  V30 21 1 21 22
M  V30 22 2 22 23
M  V30 23 1 22 24
M  V30 24 2 21 25
M  V30 25 1 25 26
M  V30 26 1 26 27
M  V30 27 1 27 28
M  V30 28 1 28 29
M  V30 29 1 29 30
M  V30 30 1 27 31
M  V30 31 1 31 32
M  V30 32 1 18 2
M  V30 33 1 32 27
M  V30 34 1 15 10
M  V30 35 1 30 16
M  V30 36 1 26 17
M  V30 37 1 1 33
M  V30 38 1 1 34
M  V30 39 1 6 35
M  V30 40 1 7 36
M  V30 41 1 7 37
M  V30 42 1 8 38
M  V30 43 1 8 39
M  V30 44 1 9 40
M  V30 45 1 11 41
M  V30 46 1 12 42
M  V30 47 1 13 43
M  V30 48 1 14 44
M  V30 49 1 24 45
M  V30 50 1 25 46
M  V30 51 1 28 47
M  V30 52 1 28 48
M  V30 53 1 29 49
M  V30 54 1 29 50
M  V30 55 1 31 51
M  V30 56 1 31 52
M  V30 57 1 32 53
M  V30 58 1 32 54
M  V30 END BOND
M  V30 END CTAB
M  END
>  <Dataset>  (965) 
ChEMBL_Kinases

>  <Ligand_Instance>  (965) 
nan

>  <PDB_ID>  (965) 
nan

>  <Standardized_SMILES>  (965) 
Nc1c(F)c(NCCNc2ccccn2)c2c3c1c(=O)c(C(=O)O)cn3C1(CCO2)CC1

>  <Name>  (965) 
nan

>  <Pocket>  (965) 
nan

>  <ATP_Site>  (965) 
nan

>  <Peripheral>  (965) 
nan

>  <Num_H_Atoms_ProtBoundConf>  (965) 
nan

>  <Num_Resolved_Atoms>  (965) 
nan

>  <Num_Not_Resolved_Atoms>  (965) 
nan

$$$$
CHEMBL1940907
     RDKit          3D

  0  0  0  0  0  0  0  0  0  0999 V3000
M  V30 BEGIN CTAB
M  V30 COUNTS 60 64 0 0 0
M  V30 BEGIN ATOM
M  V30 1 C 1.250836 -4.384462 2.900124 0
M  V30 2 C 1.754546 -3.974072 1.540423 0
M  V30 3 C 2.484755 -2.685938 1.595040 0
M  V30 4 O 1.723066 -1.541260 1.258640 0
M  V30 5 C 0.379194 -1.216619 1.500308 0
M  V30 6 C 0.083812 0.076373 1.951620 0
M  V30 7 N 1.249173 0.912953 2.099678 0
M  V30 8 C 1.754754 1.670541 0.996315 0
M  V30 9 C 0.772959 2.682477 0.518905 0
M  V30 10 N 1.288410 3.418029 -0.633279 0
M  V30 11 C 0.950178 4.482934 -1.491208 0
M  V30 12 C -0.091048 4.348572 -2.407447 0
M  V30 13 C -0.407317 5.389226 -3.260266 0
M  V30 14 C 0.321918 6.552832 -3.187644 0
M  V30 15 C 1.361361 6.669818 -2.263740 0
M  V30 16 N 1.672966 5.642839 -1.421754 0
M  V30 17 C -1.207147 0.437898 2.211430 0
M  V30 18 F -1.410671 1.712632 2.645978 0
M  V30 19 C -2.229998 -0.463309 2.031347 0
M  V30 20 N -3.560651 -0.031685 2.320910 0
M  V30 21 C -1.943043 -1.755193 1.579165 0
M  V30 22 C -3.074514 -2.523739 1.444624 0
M  V30 23 O -4.235528 -2.142990 1.698384 0
M  V30 24 C -2.922134 -3.830813 0.989193 0
M  V30 25 C -4.063775 -4.695991 0.827095 0
M  V30 26 O -5.221485 -4.281950 1.102255 0
M  V30 27 O -3.857073 -5.972934 0.370667 0
M  V30 28 C -1.643284 -4.231676 0.712730 0
M  V30 29 N -0.552636 -3.474069 0.847914 0
M  V30 30 C -0.636427 -2.173801 1.297859 0
M  V30 31 C 0.711767 -4.040353 0.454718 0
M  V30 32 C 1.247018 -3.128824 -0.696241 0
M  V30 33 C 0.642122 -4.124051 -1.688023 0
M  V30 34 C 0.770157 -5.138555 -0.528515 0
M  V30 35 H 0.733268 -3.583299 3.439717 0
M  V30 36 H 2.150185 -4.661436 3.522609 0
M  V30 37 H 0.666034 -5.340793 2.845888 0
M  V30 38 H 2.518565 -4.753692 1.242818 0
M  V30 39 H 2.843868 -2.547325 2.628606 0
M  V30 40 H 3.406956 -2.655255 0.963211 0
M  V30 41 H 1.470310 0.740374 3.109063 0
M  V30 42 H 2.154005 1.020270 0.185767 0
M  V30 43 H 2.656658 2.253377 1.344537 0
M  V30 44 H 0.637223 3.452326 1.311416 0
M  V30 45 H -0.221293 2.283639 0.258463 0
M  V30 46 H 2.235432 3.107852 -1.005063 0
M  V30 47 H -0.663760 3.432627 -2.465863 0
M  V30 48 H -1.217978 5.342458 -4.003111 0
M  V30 49 H 0.124487 7.405403 -3.829747 0
M  V30 50 H 1.987219 7.539864 -2.133252 0
M  V30 51 H -4.068220 0.022893 3.218663 0
M  V30 52 H -4.461786 0.342853 1.894435 0
M  V30 53 H -4.593485 -6.696195 0.391203 0
M  V30 54 H -1.556643 -5.248690 0.367392 0
M  V30 55 H 0.773345 -2.157160 -0.762895 0
M  V30 56 H 2.329359 -3.142282 -0.777040 0
M  V30 57 H 1.274586 -4.344446 -2.559054 0
M  V30 58 H -0.378153 -3.888639 -1.981950 0
M  V30 59 H 1.800942 -5.575148 -0.626196 0
M  V30 60 H -0.006715 -5.879385 -0.631952 0
M  V30 END ATOM
M  V30 BEGIN BOND
M  V30 1 1 1 2
M  V30 2 1 2 3
M  V30 3 1 3 4
M  V30 4 1 4 5
M  V30 5 2 5 6
M  V30 6 1 6 7
M  V30 7 1 7 8
M  V30 8 1 8 9
M  V30 9 1 9 10
M  V30 10 1 10 11
M  V30 11 2 11 12
M  V30 12 1 12 13
M  V30 13 2 13 14
M  V30 14 1 14 15
M  V30 15 2 15 16
M  V30 16 1 6 17
M  V30 17 1 17 18
M  V30 18 2 17 19
M  V30 19 1 19 20
M  V30 20 1 19 21
M  V30 21 1 21 22
M  V30 22 2 22 23
M  V30 23 1 22 24
M  V30 24 1 24 25
M  V30 25 2 25 26
M  V30 26 1 25 27
M  V30 27 2 24 28
M  V30 28 1 28 29
M  V30 29 1 29 30
M  V30 30 1 29 31
M  V30 31 1 31 32
M  V30 32 1 32 33
M  V30 33 1 33 34
M  V30 34 1 31 2
M  V30 35 1 30 5
M  V30 36 1 34 31
M  V30 37 1 16 11
M  V30 38 2 30 21
M  V30 39 1 1 35
M  V30 40 1 1 36
M  V30 41 1 1 37
M  V30 42 1 2 38
M  V30 43 1 3 39
M  V30 44 1 3 40
M  V30 45 1 7 41
M  V30 46 1 8 42
M  V30 47 1 8 43
M  V30 48 1 9 44
M  V30 49 1 9 45
M  V30 50 1 10 46
M  V30 51 1 12 47
M  V30 52 1 13 48
M  V30 53 1 14 49
M  V30 54 1 15 50
M  V30 55 1 20 51
M  V30 56 1 20 52
M  V30 57 1 27 53
M  V30 58 1 28 54
M  V30 59 1 32 55
M  V30 60 1 32 56
M  V30 61 1 33 57
M  V30 62 1 33 58
M  V30 63 1 34 59
M  V30 64 1 34 60
M  V30 END BOND
M  V30 END CTAB
M  END
>  <Dataset>  (966) 
ChEMBL_Kinases

>  <Ligand_Instance>  (966) 
nan

>  <PDB_ID>  (966) 
nan

>  <Standardized_SMILES>  (966) 
CC1COc2c(NCCNc3ccccn3)c(F)c(N)c3c(=O)c(C(=O)O)cn(c23)C12CCC2

>  <Name>  (966) 
nan

>  <Pocket>  (966) 
nan

>  <ATP_Site>  (966) 
nan

>  <Peripheral>  (966) 
nan

>  <Num_H_Atoms_ProtBoundConf>  (966) 
nan

>  <Num_Resolved_Atoms>  (966) 
nan

>  <Num_Not_Resolved_Atoms>  (966) 
nan

$$$$
CHEMBL1940908
     RDKit          3D

  0  0  0  0  0  0  0  0  0  0999 V3000
M  V30 BEGIN CTAB
M  V30 COUNTS 60 64 0 0 0
M  V30 BEGIN ATOM
M  V30 1 C -0.550681 -1.324429 4.004965 0
M  V30 2 C -0.788288 -0.276429 2.943240 0
M  V30 3 C 0.137776 0.873913 3.030361 0
M  V30 4 C 1.314815 0.868153 2.095349 0
M  V30 5 C 2.599482 1.375268 2.664937 0
M  V30 6 C 2.830055 -0.047135 3.197520 0
M  V30 7 C 1.998042 -0.505830 2.014829 0
M  V30 8 N 0.952314 1.288215 0.766246 0
M  V30 9 C 1.666863 2.264914 0.194146 0
M  V30 10 C 1.523725 2.771854 -1.074359 0
M  V30 11 C 2.365564 3.840493 -1.589641 0
M  V30 12 O 3.279131 4.350993 -0.869380 0
M  V30 13 O 2.156234 4.292156 -2.875576 0
M  V30 14 C 0.531480 2.214638 -1.851010 0
M  V30 15 O 0.359764 2.639765 -3.016620 0
M  V30 16 C -0.230303 1.190980 -1.269085 0
M  V30 17 C -1.203894 0.710100 -2.153687 0
M  V30 18 N -1.378993 1.207282 -3.472031 0
M  V30 19 C -2.026887 -0.292481 -1.717874 0
M  V30 20 F -2.979515 -0.739374 -2.564572 0
M  V30 21 C -1.912668 -0.814921 -0.463218 0
M  V30 22 N -2.723233 -1.873507 0.019254 0
M  V30 23 C -3.728350 -2.641495 -0.626568 0
M  V30 24 C -3.264168 -3.657168 -1.613714 0
M  V30 25 N -2.391156 -4.649261 -0.964325 0
M  V30 26 C -1.166207 -4.661982 -0.254140 0
M  V30 27 C -0.039998 -4.811571 -1.054337 0
M  V30 28 C 1.237149 -4.846235 -0.523922 0
M  V30 29 C 1.343875 -4.722916 0.865439 0
M  V30 30 C 0.216239 -4.574362 1.653541 0
M  V30 31 N -0.994249 -4.549337 1.066801 0
M  V30 32 C -0.943925 -0.324487 0.396801 0
M  V30 33 C -0.053256 0.701412 0.032804 0
M  V30 34 O -0.897598 -0.914538 1.690158 0
M  V30 35 H 0.179720 -1.023757 4.778105 0
M  V30 36 H -0.334121 -2.331727 3.556595 0
M  V30 37 H -1.494220 -1.528901 4.604171 0
M  V30 38 H -1.813146 0.150200 3.173122 0
M  V30 39 H 0.568493 0.882165 4.060540 0
M  V30 40 H -0.367749 1.861845 2.911894 0
M  V30 41 H 3.397243 1.682770 1.967489 0
M  V30 42 H 2.498799 2.143560 3.456313 0
M  V30 43 H 2.318728 -0.232262 4.140288 0
M  V30 44 H 3.872169 -0.366446 3.220719 0
M  V30 45 H 2.607434 -0.579749 1.100875 0
M  V30 46 H 1.333684 -1.342697 2.194422 0
M  V30 47 H 2.447586 2.757189 0.751863 0
M  V30 48 H 2.536533 5.193433 -3.205980 0
M  V30 49 H -0.733358 0.771317 -4.191506 0
M  V30 50 H -2.117662 1.926034 -3.527525 0
M  V30 51 H -2.583789 -2.174497 1.034016 0
M  V30 52 H -4.373347 -3.187017 0.107000 0
M  V30 53 H -4.467424 -1.941575 -1.129660 0
M  V30 54 H -4.178214 -4.257854 -1.893643 0
M  V30 55 H -2.734493 -3.325755 -2.491432 0
M  V30 56 H -2.594777 -5.692249 -0.929743 0
M  V30 57 H -0.031484 -4.913976 -2.138092 0
M  V30 58 H 2.147460 -4.959154 -1.086206 0
M  V30 59 H 2.308996 -4.736970 1.395838 0
M  V30 60 H 0.324475 -4.481573 2.723077 0
M  V30 END ATOM
M  V30 BEGIN BOND
M  V30 1 1 1 2
M  V30 2 1 2 3
M  V30 3 1 3 4
M  V30 4 1 4 5
M  V30 5 1 5 6
M  V30 6 1 6 7
M  V30 7 1 4 8
M  V30 8 1 8 9
M  V30 9 2 9 10
M  V30 10 1 10 11
M  V30 11 2 11 12
M  V30 12 1 11 13
M  V30 13 1 10 14
M  V30 14 2 14 15
M  V30 15 1 14 16
M  V30 16 2 16 17
M  V30 17 1 17 18
M  V30 18 1 17 19
M  V30 19 1 19 20
M  V30 20 2 19 21
M  V30 21 1 21 22
M  V30 22 1 22 23
M  V30 23 1 23 24
M  V30 24 1 24 25
M  V30 25 1 25 26
M  V30 26 2 26 27
M  V30 27 1 27 28
M  V30 28 2 28 29
M  V30 29 1 29 30
M  V30 30 2 30 31
M  V30 31 1 21 32
M  V30 32 2 32 33
M  V30 33 1 32 34
M  V30 34 1 34 2
M  V30 35 1 7 4
M  V30 36 1 33 8
M  V30 37 1 33 16
M  V30 38 1 31 26
M  V30 39 1 1 35
M  V30 40 1 1 36
M  V30 41 1 1 37
M  V30 42 1 2 38
M  V30 43 1 3 39
M  V30 44 1 3 40
M  V30 45 1 5 41
M  V30 46 1 5 42
M  V30 47 1 6 43
M  V30 48 1 6 44
M  V30 49 1 7 45
M  V30 50 1 7 46
M  V30 51 1 9 47
M  V30 52 1 13 48
M  V30 53 1 18 49
M  V30 54 1 18 50
M  V30 55 1 22 51
M  V30 56 1 23 52
M  V30 57 1 23 53
M  V30 58 1 24 54
M  V30 59 1 24 55
M  V30 60 1 25 56
M  V30 61 1 27 57
M  V30 62 1 28 58
M  V30 63 1 29 59
M  V30 64 1 30 60
M  V30 END BOND
M  V30 END CTAB
M  END
>  <Dataset>  (967) 
ChEMBL_Kinases

>  <Ligand_Instance>  (967) 
nan

>  <PDB_ID>  (967) 
nan

>  <Standardized_SMILES>  (967) 
CC1CC2(CCC2)n2cc(C(=O)O)c(=O)c3c(N)c(F)c(NCCNc4ccccn4)c(c32)O1

>  <Name>  (967) 
nan

>  <Pocket>  (967) 
nan

>  <ATP_Site>  (967) 
nan

>  <Peripheral>  (967) 
nan

>  <Num_H_Atoms_ProtBoundConf>  (967) 
nan

>  <Num_Resolved_Atoms>  (967) 
nan

>  <Num_Not_Resolved_Atoms>  (967) 
nan

$$$$
CHEMBL1940909
     RDKit          3D

  0  0  0  0  0  0  0  0  0  0999 V3000
M  V30 BEGIN CTAB
M  V30 COUNTS 58 62 0 0 0
M  V30 BEGIN ATOM
M  V30 1 N -1.615176 0.116465 4.374816 0
M  V30 2 C -1.089813 -0.480452 3.189302 0
M  V30 3 C 0.267885 -0.637681 3.070049 0
M  V30 4 F 1.044563 -0.222992 4.080458 0
M  V30 5 C 0.766541 -1.206923 1.940008 0
M  V30 6 N 2.169562 -1.363971 1.839530 0
M  V30 7 C 3.193295 -0.486614 1.311953 0
M  V30 8 C 3.277496 0.821252 2.051647 0
M  V30 9 N 4.305864 1.690913 1.511972 0
M  V30 10 C 4.254408 2.182982 0.180498 0
M  V30 11 C 5.276344 2.984958 -0.283743 0
M  V30 12 C 5.143819 3.423568 -1.575199 0
M  V30 13 C 4.079297 3.112381 -2.398323 0
M  V30 14 C 3.083954 2.306349 -1.883922 0
M  V30 15 N 3.211289 1.872437 -0.611587 0
M  V30 16 C -0.135335 -1.602467 0.958087 0
M  V30 17 C -1.523057 -1.482363 0.995879 0
M  V30 18 C -1.924139 -0.896464 2.174944 0
M  V30 19 C -3.291935 -0.688746 2.396151 0
M  V30 20 O -3.709326 -0.159350 3.452238 0
M  V30 21 C -4.094229 -1.125079 1.343605 0
M  V30 22 C -5.500824 -0.886889 1.627694 0
M  V30 23 O -6.307264 -1.262939 0.709231 0
M  V30 24 O -6.839394 -0.708033 1.797270 0
M  V30 25 C -3.666803 -1.707305 0.177743 0
M  V30 26 N -2.371520 -1.875484 0.028346 0
M  V30 27 C -2.055815 -2.501084 -1.207567 0
M  V30 28 C -1.512133 -3.907925 -0.867218 0
M  V30 29 C -2.973751 -4.351707 -1.036849 0
M  V30 30 C -3.051315 -3.183238 -2.026158 0
M  V30 31 C -0.968920 -1.696717 -1.875147 0
M  V30 32 C 0.403345 -2.174259 -1.541951 0
M  V30 33 N 0.674030 -2.152054 -0.113506 0
M  V30 34 H -1.859188 -0.145088 5.354030 0
M  V30 35 H -1.976678 1.023568 4.797317 0
M  V30 36 H 2.410693 -2.297238 2.236779 0
M  V30 37 H 2.988772 -0.331159 0.238418 0
M  V30 38 H 4.188189 -0.998635 1.427753 0
M  V30 39 H 3.402269 0.653638 3.130446 0
M  V30 40 H 2.312076 1.351002 1.908498 0
M  V30 41 H 5.095851 1.945683 2.143886 0
M  V30 42 H 6.133551 3.261588 0.314911 0
M  V30 43 H 5.926695 4.054314 -1.974230 0
M  V30 44 H 4.036505 3.495585 -3.420211 0
M  V30 45 H 2.213688 2.021573 -2.479322 0
M  V30 46 H -7.234623 -0.211288 2.621189 0
M  V30 47 H -4.431000 -1.966784 -0.503212 0
M  V30 48 H -1.112699 -4.008997 0.153509 0
M  V30 49 H -0.897493 -4.363559 -1.657366 0
M  V30 50 H -3.555153 -4.148530 -0.124428 0
M  V30 51 H -3.088320 -5.341221 -1.497082 0
M  V30 52 H -2.585426 -3.554529 -2.975492 0
M  V30 53 H -4.027968 -2.795079 -2.255255 0
M  V30 54 H -1.062281 -1.651866 -2.979926 0
M  V30 55 H -1.028847 -0.632744 -1.509782 0
M  V30 56 H 0.671863 -3.124145 -2.009569 0
M  V30 57 H 1.112568 -1.421083 -1.994938 0
M  V30 58 H 1.590616 -2.603427 0.151092 0
M  V30 END ATOM
M  V30 BEGIN BOND
M  V30 1 1 1 2
M  V30 2 2 2 3
M  V30 3 1 3 4
M  V30 4 1 3 5
M  V30 5 1 5 6
M  V30 6 1 6 7
M  V30 7 1 7 8
M  V30 8 1 8 9
M  V30 9 1 9 10
M  V30 10 2 10 11
M  V30 11 1 11 12
M  V30 12 2 12 13
M  V30 13 1 13 14
M  V30 14 2 14 15
M  V30 15 2 5 16
M  V30 16 1 16 17
M  V30 17 2 17 18
M  V30 18 1 18 19
M  V30 19 2 19 20
M  V30 20 1 19 21
M  V30 21 1 21 22
M  V30 22 2 22 23
M  V30 23 1 22 24
M  V30 24 2 21 25
M  V30 25 1 25 26
M  V30 26 1 26 27
M  V30 27 1 27 28
M  V30 28 1 28 29
M  V30 29 1 29 30
M  V30 30 1 27 31
M  V30 31 1 31 32
M  V30 32 1 32 33
M  V30 33 1 18 2
M  V30 34 1 30 27
M  V30 35 1 15 10
M  V30 36 1 33 16
M  V30 37 1 26 17
M  V30 38 1 1 34
M  V30 39 1 1 35
M  V30 40 1 6 36
M  V30 41 1 7 37
M  V30 42 1 7 38
M  V30 43 1 8 39
M  V30 44 1 8 40
M  V30 45 1 9 41
M  V30 46 1 11 42
M  V30 47 1 12 43
M  V30 48 1 13 44
M  V30 49 1 14 45
M  V30 50 1 24 46
M  V30 51 1 25 47
M  V30 52 1 28 48
M  V30 53 1 28 49
M  V30 54 1 29 50
M  V30 55 1 29 51
M  V30 56 1 30 52
M  V30 57 1 30 53
M  V30 58 1 31 54
M  V30 59 1 31 55
M  V30 60 1 32 56
M  V30 61 1 32 57
M  V30 62 1 33 58
M  V30 END BOND
M  V30 END CTAB
M  END
>  <Dataset>  (968) 
ChEMBL_Kinases

>  <Ligand_Instance>  (968) 
nan

>  <PDB_ID>  (968) 
nan

>  <Standardized_SMILES>  (968) 
Nc1c(F)c(NCCNc2ccccn2)c2c3c1c(=O)c(C(=O)O)cn3C1(CCC1)CCN2

>  <Name>  (968) 
nan

>  <Pocket>  (968) 
nan

>  <ATP_Site>  (968) 
nan

>  <Peripheral>  (968) 
nan

>  <Num_H_Atoms_ProtBoundConf>  (968) 
nan

>  <Num_Resolved_Atoms>  (968) 
nan

>  <Num_Not_Resolved_Atoms>  (968) 
nan

$$$$
CHEMBL194110
     RDKit          3D

  0  0  0  0  0  0  0  0  0  0999 V3000
M  V30 BEGIN CTAB
M  V30 COUNTS 28 29 0 0 0
M  V30 BEGIN ATOM
M  V30 1 N 1.500282 -6.059928 1.745439 0
M  V30 2 C 1.134306 -4.680402 1.788986 0
M  V30 3 O 0.396709 -3.988025 2.545739 0
M  V30 4 N 1.708136 -3.853209 0.762635 0
M  V30 5 C 1.367472 -2.454163 0.766350 0
M  V30 6 S -0.073780 -1.771181 -0.138666 0
M  V30 7 C 0.224804 -0.092165 0.368959 0
M  V30 8 C -0.591611 1.000064 -0.019667 0
M  V30 9 C -1.274335 1.940189 -0.336601 0
M  V30 10 C -2.120942 3.071971 -0.738766 0
M  V30 11 C -3.252299 2.849257 -1.675097 0
M  V30 12 C -3.551232 3.128440 -0.190758 0
M  V30 13 C 1.325421 -0.142556 1.142932 0
M  V30 14 C 1.953911 -1.336193 1.380059 0
M  V30 15 C 3.147667 -1.518442 2.197087 0
M  V30 16 N 3.766116 -0.407880 2.832225 0
M  V30 17 O 3.605343 -2.679618 2.318455 0
M  V30 18 H 2.195616 -6.444416 2.407998 0
M  V30 19 H 0.962142 -6.535841 0.974906 0
M  V30 20 H 2.358635 -4.156848 -0.003112 0
M  V30 21 H -1.567932 4.025569 -0.840708 0
M  V30 22 H -3.526795 3.651244 -2.392021 0
M  V30 23 H -3.480800 1.819755 -2.031793 0
M  V30 24 H -3.884382 2.272070 0.401122 0
M  V30 25 H -3.940650 4.138479 0.053660 0
M  V30 26 H 1.689242 0.785524 1.564912 0
M  V30 27 H 4.757383 -0.092315 2.673809 0
M  V30 28 H 3.377178 0.277634 3.544527 0
M  V30 END ATOM
M  V30 BEGIN BOND
M  V30 1 1 1 2
M  V30 2 2 2 3
M  V30 3 1 2 4
M  V30 4 1 4 5
M  V30 5 1 5 6
M  V30 6 1 6 7
M  V30 7 1 7 8
M  V30 8 3 8 9
M  V30 9 1 9 10
M  V30 10 1 10 11
M  V30 11 1 11 12
M  V30 12 2 7 13
M  V30 13 1 13 14
M  V30 14 1 14 15
M  V30 15 1 15 16
M  V30 16 2 15 17
M  V30 17 2 14 5
M  V30 18 1 12 10
M  V30 19 1 1 18
M  V30 20 1 1 19
M  V30 21 1 4 20
M  V30 22 1 10 21
M  V30 23 1 11 22
M  V30 24 1 11 23
M  V30 25 1 12 24
M  V30 26 1 12 25
M  V30 27 1 13 26
M  V30 28 1 16 27
M  V30 29 1 16 28
M  V30 END BOND
M  V30 END CTAB
M  END
>  <Dataset>  (969) 
ChEMBL_Kinases

>  <Ligand_Instance>  (969) 
nan

>  <PDB_ID>  (969) 
nan

>  <Standardized_SMILES>  (969) 
NC(=O)Nc1sc(C#CC2CC2)cc1C(N)=O

>  <Name>  (969) 
nan

>  <Pocket>  (969) 
nan

>  <ATP_Site>  (969) 
nan

>  <Peripheral>  (969) 
nan

>  <Num_H_Atoms_ProtBoundConf>  (969) 
nan

>  <Num_Resolved_Atoms>  (969) 
nan

>  <Num_Not_Resolved_Atoms>  (969) 
nan

$$$$
CHEMBL194124
     RDKit          3D

  0  0  0  0  0  0  0  0  0  0999 V3000
M  V30 BEGIN CTAB
M  V30 COUNTS 42 45 0 0 0
M  V30 BEGIN ATOM
M  V30 1 C -0.947584 -2.442586 1.721953 0
M  V30 2 C 0.310258 -2.214676 2.506394 0
M  V30 3 C 0.212430 -1.521779 3.703744 0
M  V30 4 C 1.330243 -1.278266 4.470459 0
M  V30 5 C 2.574829 -1.719920 4.064003 0
M  V30 6 C 2.693125 -2.416436 2.866689 0
M  V30 7 C 1.565170 -2.659163 2.097311 0
M  V30 8 S 1.518006 -3.510831 0.523053 0
M  V30 9 C 1.673029 -2.285903 -0.813753 0
M  V30 10 N 1.811267 -0.987625 -0.429711 0
M  V30 11 C 1.916870 0.044290 -1.301554 0
M  V30 12 N 2.044409 1.282135 -0.605676 0
M  V30 13 C 0.789739 1.695981 -0.006935 0
M  V30 14 C 0.704579 2.872803 0.736881 0
M  V30 15 C -0.444199 3.329815 1.351684 0
M  V30 16 C -1.575782 2.542578 1.201373 0
M  V30 17 N -2.830033 2.740343 1.689725 0
M  V30 18 C -3.549462 1.693784 1.260049 0
M  V30 19 N -2.805516 0.871657 0.539096 0
M  V30 20 C -1.556567 1.361037 0.473431 0
M  V30 21 C -0.382758 0.962210 -0.113232 0
M  V30 22 N 1.880991 -0.257555 -2.623805 0
M  V30 23 C 1.745876 -1.527310 -3.041434 0
M  V30 24 C 1.638596 -2.571449 -2.159206 0
M  V30 25 C 1.487727 -3.996052 -2.532927 0
M  V30 26 F 0.304898 -4.420923 -1.988341 0
M  V30 27 F 1.551662 -4.193544 -3.893809 0
M  V30 28 F 2.561029 -4.654302 -1.935076 0
M  V30 29 H -1.704440 -1.671209 1.941653 0
M  V30 30 H -1.324834 -3.479181 1.812904 0
M  V30 31 H -0.663089 -2.293982 0.641169 0
M  V30 32 H -0.710971 -1.145019 4.091136 0
M  V30 33 H 1.290112 -0.739495 5.414676 0
M  V30 34 H 3.513485 -1.581529 4.590790 0
M  V30 35 H 3.598717 -2.822034 2.422278 0
M  V30 36 H 2.849517 1.917384 -0.459682 0
M  V30 37 H 1.579374 3.500167 0.866020 0
M  V30 38 H -0.433448 4.265640 1.922569 0
M  V30 39 H -3.111627 3.562032 2.275477 0
M  V30 40 H -4.598441 1.637409 1.531281 0
M  V30 41 H -0.363373 0.045773 -0.678732 0
M  V30 42 H 1.721078 -1.726814 -4.100210 0
M  V30 END ATOM
M  V30 BEGIN BOND
M  V30 1 1 1 2
M  V30 2 2 2 3
M  V30 3 1 3 4
M  V30 4 2 4 5
M  V30 5 1 5 6
M  V30 6 2 6 7
M  V30 7 1 7 8
M  V30 8 1 8 9
M  V30 9 2 9 10
M  V30 10 1 10 11
M  V30 11 1 11 12
M  V30 12 1 12 13
M  V30 13 2 13 14
M  V30 14 1 14 15
M  V30 15 2 15 16
M  V30 16 1 16 17
M  V30 17 1 17 18
M  V30 18 2 18 19
M  V30 19 1 19 20
M  V30 20 2 20 21
M  V30 21 2 11 22
M  V30 22 1 22 23
M  V30 23 2 23 24
M  V30 24 1 24 25
M  V30 25 1 25 26
M  V30 26 1 25 27
M  V30 27 1 25 28
M  V30 28 1 7 2
M  V30 29 1 24 9
M  V30 30 1 21 13
M  V30 31 1 20 16
M  V30 32 1 1 29
M  V30 33 1 1 30
M  V30 34 1 1 31
M  V30 35 1 3 32
M  V30 36 1 4 33
M  V30 37 1 5 34
M  V30 38 1 6 35
M  V30 39 1 12 36
M  V30 40 1 14 37
M  V30 41 1 15 38
M  V30 42 1 17 39
M  V30 43 1 18 40
M  V30 44 1 21 41
M  V30 45 1 23 42
M  V30 END BOND
M  V30 END CTAB
M  END
>  <Dataset>  (970) 
ChEMBL_Kinases

>  <Ligand_Instance>  (970) 
nan

>  <PDB_ID>  (970) 
nan

>  <Standardized_SMILES>  (970) 
Cc1ccccc1Sc1nc(Nc2ccc3[nH]cnc3c2)ncc1C(F)(F)F

>  <Name>  (970) 
nan

>  <Pocket>  (970) 
nan

>  <ATP_Site>  (970) 
nan

>  <Peripheral>  (970) 
nan

>  <Num_H_Atoms_ProtBoundConf>  (970) 
nan

>  <Num_Resolved_Atoms>  (970) 
nan

>  <Num_Not_Resolved_Atoms>  (970) 
nan

$$$$
CHEMBL194201
     RDKit          3D

  0  0  0  0  0  0  0  0  0  0999 V3000
M  V30 BEGIN CTAB
M  V30 COUNTS 56 59 0 0 0
M  V30 BEGIN ATOM
M  V30 1 C 4.695416 -4.025871 -0.795470 0
M  V30 2 C 5.109116 -2.623437 -1.126410 0
M  V30 3 C 4.116964 -1.619194 -0.640206 0
M  V30 4 N 3.848548 -0.952989 0.281354 0
M  V30 5 C 2.833743 -0.116238 0.394700 0
M  V30 6 C 2.695511 0.626468 1.670190 0
M  V30 7 C 1.647398 0.506575 2.535654 0
M  V30 8 C 1.590110 1.235793 3.703629 0
M  V30 9 C 2.595125 2.122764 4.049437 0
M  V30 10 C 3.674627 2.277375 3.205417 0
M  V30 11 C 4.812172 3.194445 3.464087 0
M  V30 12 C 3.695866 1.530812 2.047112 0
M  V30 13 C 1.989792 -0.001227 -0.676058 0
M  V30 14 C 0.809255 0.907044 -0.672099 0
M  V30 15 C 1.019962 2.237081 -0.509610 0
M  V30 16 C -0.117229 3.008177 -0.518792 0
M  V30 17 N -1.341806 2.494343 -0.675610 0
M  V30 18 C -1.606180 1.186905 -0.840302 0
M  V30 19 N -2.933810 0.724489 -1.000981 0
M  V30 20 C -3.414502 -0.594341 -1.207828 0
M  V30 21 O -2.561254 -1.505004 -1.260062 0
M  V30 22 C -4.882646 -0.691674 -1.333451 0
M  V30 23 C -5.425195 -2.046480 -1.580417 0
M  V30 24 C -5.166999 -3.069379 -0.577036 0
M  V30 25 C -6.054423 -3.129827 0.493190 0
M  V30 26 C -5.947911 -4.052544 1.506677 0
M  V30 27 C -4.939998 -4.983057 1.518410 0
M  V30 28 C -4.028300 -4.963359 0.471051 0
M  V30 29 C -4.177478 -4.026375 -0.512657 0
M  V30 30 C -0.465730 0.419547 -0.830191 0
M  V30 31 S 2.708236 -1.122519 -1.816645 0
M  V30 32 H 5.177257 -4.399538 0.143379 0
M  V30 33 H 5.032591 -4.697321 -1.612624 0
M  V30 34 H 3.587607 -4.128957 -0.688091 0
M  V30 35 H 6.049776 -2.397500 -0.622173 0
M  V30 36 H 5.235112 -2.545037 -2.237349 0
M  V30 37 H 0.854808 -0.189377 2.268326 0
M  V30 38 H 0.755147 1.136308 4.387037 0
M  V30 39 H 2.603639 2.723632 4.955264 0
M  V30 40 H 5.141906 3.605089 2.477227 0
M  V30 41 H 4.566870 4.019799 4.145754 0
M  V30 42 H 5.703911 2.598497 3.811468 0
M  V30 43 H 4.538576 1.638603 1.368268 0
M  V30 44 H 1.991363 2.686769 -0.380896 0
M  V30 45 H -0.062622 4.088753 -0.396275 0
M  V30 46 H -3.656040 1.507725 -0.953934 0
M  V30 47 H -5.283596 -0.357575 -0.329047 0
M  V30 48 H -5.280560 0.056484 -2.056553 0
M  V30 49 H -6.549062 -1.965816 -1.699118 0
M  V30 50 H -5.086715 -2.468486 -2.577791 0
M  V30 51 H -6.911570 -2.453324 0.624112 0
M  V30 52 H -6.619706 -4.124694 2.347968 0
M  V30 53 H -4.747574 -5.755783 2.249584 0
M  V30 54 H -3.201389 -5.668715 0.409655 0
M  V30 55 H -3.471956 -4.026241 -1.329035 0
M  V30 56 H -0.522645 -0.637461 -0.949393 0
M  V30 END ATOM
M  V30 BEGIN BOND
M  V30 1 1 1 2
M  V30 2 1 2 3
M  V30 3 2 3 4
M  V30 4 1 4 5
M  V30 5 1 5 6
M  V30 6 2 6 7
M  V30 7 1 7 8
M  V30 8 2 8 9
M  V30 9 1 9 10
M  V30 10 1 10 11
M  V30 11 2 10 12
M  V30 12 2 5 13
M  V30 13 1 13 14
M  V30 14 2 14 15
M  V30 15 1 15 16
M  V30 16 2 16 17
M  V30 17 1 17 18
M  V30 18 1 18 19
M  V30 19 1 19 20
M  V30 20 2 20 21
M  V30 21 1 20 22
M  V30 22 1 22 23
M  V30 23 1 23 24
M  V30 24 2 24 25
M  V30 25 1 25 26
M  V30 26 2 26 27
M  V30 27 1 27 28
M  V30 28 2 28 29
M  V30 29 2 18 30
M  V30 30 1 13 31
M  V30 31 1 31 3
M  V30 32 1 12 6
M  V30 33 1 30 14
M  V30 34 1 29 24
M  V30 35 1 1 32
M  V30 36 1 1 33
M  V30 37 1 1 34
M  V30 38 1 2 35
M  V30 39 1 2 36
M  V30 40 1 7 37
M  V30 41 1 8 38
M  V30 42 1 9 39
M  V30 43 1 11 40
M  V30 44 1 11 41
M  V30 45 1 11 42
M  V30 46 1 12 43
M  V30 47 1 15 44
M  V30 48 1 16 45
M  V30 49 1 19 46
M  V30 50 1 22 47
M  V30 51 1 22 48
M  V30 52 1 23 49
M  V30 53 1 23 50
M  V30 54 1 25 51
M  V30 55 1 26 52
M  V30 56 1 27 53
M  V30 57 1 28 54
M  V30 58 1 29 55
M  V30 59 1 30 56
M  V30 END BOND
M  V30 END CTAB
M  END
>  <Dataset>  (971) 
ChEMBL_Kinases

>  <Ligand_Instance>  (971) 
nan

>  <PDB_ID>  (971) 
nan

>  <Standardized_SMILES>  (971) 
CCc1nc(-c2cccc(C)c2)c(-c2ccnc(NC(=O)CCc3ccccc3)c2)s1

>  <Name>  (971) 
nan

>  <Pocket>  (971) 
nan

>  <ATP_Site>  (971) 
nan

>  <Peripheral>  (971) 
nan

>  <Num_H_Atoms_ProtBoundConf>  (971) 
nan

>  <Num_Resolved_Atoms>  (971) 
nan

>  <Num_Not_Resolved_Atoms>  (971) 
nan

$$$$
CHEMBL1944682
     RDKit          3D

  0  0  0  0  0  0  0  0  0  0999 V3000
M  V30 BEGIN CTAB
M  V30 COUNTS 46 49 0 0 0
M  V30 BEGIN ATOM
M  V30 1 C -4.591598 -3.332878 2.571752 0
M  V30 2 O -4.283634 -3.517911 1.217839 0
M  V30 3 C -3.143547 -3.103353 0.567646 0
M  V30 4 C -2.177503 -2.431078 1.297586 0
M  V30 5 C -0.994918 -1.980674 0.702809 0
M  V30 6 C -0.814209 -2.226237 -0.644183 0
M  V30 7 N 0.364002 -1.800290 -1.317735 0
M  V30 8 C 1.342933 -1.221337 -0.465078 0
M  V30 9 N 2.313407 -2.034879 -0.026075 0
M  V30 10 C 3.315053 -1.674391 0.789899 0
M  V30 11 C 3.360754 -0.343656 1.224082 0
M  V30 12 C 2.357717 0.512188 0.775164 0
M  V30 13 N 1.370304 0.060968 -0.058192 0
M  V30 14 C 2.177347 1.923816 1.087710 0
M  V30 15 C 1.385264 2.586301 0.181067 0
M  V30 16 C 1.134306 3.930585 0.369480 0
M  V30 17 C 1.650883 4.653020 1.444356 0
M  V30 18 C 1.353610 6.046208 1.586903 0
M  V30 19 N 1.126059 7.180335 1.718382 0
M  V30 20 C 2.443092 3.965591 2.340130 0
M  V30 21 C 2.712333 2.626457 2.181642 0
M  V30 22 N 3.543075 2.060166 3.188480 0
M  V30 23 C 4.235277 0.818899 3.236799 0
M  V30 24 O 4.686641 0.409355 4.332713 0
M  V30 25 C 4.519261 -0.125616 2.099432 0
M  V30 26 C -1.792034 -2.896708 -1.342241 0
M  V30 27 C -2.967865 -3.356288 -0.798311 0
M  V30 28 O -4.011558 -4.027975 -1.372862 0
M  V30 29 C -4.060948 -4.389121 -2.727570 0
M  V30 30 H -3.695234 -3.279355 3.213407 0
M  V30 31 H -5.164346 -2.379071 2.680143 0
M  V30 32 H -5.266191 -4.155040 2.935303 0
M  V30 33 H -2.230316 -2.193059 2.345805 0
M  V30 34 H -0.236833 -1.455227 1.264867 0
M  V30 35 H 0.453027 -1.923768 -2.347692 0
M  V30 36 H 4.092436 -2.336500 1.139201 0
M  V30 37 H 1.000447 2.002164 -0.639692 0
M  V30 38 H 0.507322 4.381602 -0.378996 0
M  V30 39 H 2.875746 4.488165 3.203561 0
M  V30 40 H 3.667625 2.668470 4.052033 0
M  V30 41 H 5.316095 0.413458 1.507170 0
M  V30 42 H 4.908240 -1.073806 2.460188 0
M  V30 43 H -1.720351 -3.132380 -2.417540 0
M  V30 44 H -4.036081 -3.455516 -3.342184 0
M  V30 45 H -4.981202 -4.967085 -2.925504 0
M  V30 46 H -3.155590 -4.961018 -3.023795 0
M  V30 END ATOM
M  V30 BEGIN BOND
M  V30 1 1 1 2
M  V30 2 1 2 3
M  V30 3 2 3 4
M  V30 4 1 4 5
M  V30 5 2 5 6
M  V30 6 1 6 7
M  V30 7 1 7 8
M  V30 8 2 8 9
M  V30 9 1 9 10
M  V30 10 2 10 11
M  V30 11 1 11 12
M  V30 12 2 12 13
M  V30 13 1 12 14
M  V30 14 2 14 15
M  V30 15 1 15 16
M  V30 16 2 16 17
M  V30 17 1 17 18
M  V30 18 3 18 19
M  V30 19 1 17 20
M  V30 20 2 20 21
M  V30 21 1 21 22
M  V30 22 1 22 23
M  V30 23 2 23 24
M  V30 24 1 23 25
M  V30 25 1 6 26
M  V30 26 2 26 27
M  V30 27 1 27 28
M  V30 28 1 28 29
M  V30 29 1 27 3
M  V30 30 1 13 8
M  V30 31 1 21 14
M  V30 32 1 25 11
M  V30 33 1 1 30
M  V30 34 1 1 31
M  V30 35 1 1 32
M  V30 36 1 4 33
M  V30 37 1 5 34
M  V30 38 1 7 35
M  V30 39 1 10 36
M  V30 40 1 15 37
M  V30 41 1 16 38
M  V30 42 1 20 39
M  V30 43 1 22 40
M  V30 44 1 25 41
M  V30 45 1 25 42
M  V30 46 1 26 43
M  V30 47 1 29 44
M  V30 48 1 29 45
M  V30 49 1 29 46
M  V30 END BOND
M  V30 END CTAB
M  END
>  <Dataset>  (972) 
ChEMBL_Kinases

>  <Ligand_Instance>  (972) 
nan

>  <PDB_ID>  (972) 
nan

>  <Standardized_SMILES>  (972) 
COc1ccc(Nc2ncc3c(n2)-c2ccc(C#N)cc2NC(=O)C3)cc1OC

>  <Name>  (972) 
nan

>  <Pocket>  (972) 
nan

>  <ATP_Site>  (972) 
nan

>  <Peripheral>  (972) 
nan

>  <Num_H_Atoms_ProtBoundConf>  (972) 
nan

>  <Num_Resolved_Atoms>  (972) 
nan

>  <Num_Not_Resolved_Atoms>  (972) 
nan

$$$$
CHEMBL194400
     RDKit          3D

  0  0  0  0  0  0  0  0  0  0999 V3000
M  V30 BEGIN CTAB
M  V30 COUNTS 22 24 0 0 0
M  V30 BEGIN ATOM
M  V30 1 Cl 0.907870 -0.743455 4.621110 0
M  V30 2 C 1.114976 -0.468757 2.911555 0
M  V30 3 C 1.518611 -1.428226 2.047423 0
M  V30 4 Cl 2.178879 -3.023563 2.426859 0
M  V30 5 C 1.274320 -0.820459 0.681686 0
M  V30 6 Cl 2.007046 -1.641400 -0.622879 0
M  V30 7 C -0.196980 -0.600900 0.622236 0
M  V30 8 C -0.766985 -0.351336 -0.717845 0
M  V30 9 Cl -2.400861 -1.040711 -0.871077 0
M  V30 10 C -0.920562 1.115303 -0.776122 0
M  V30 11 C -0.726805 1.671896 0.431813 0
M  V30 12 C -0.418939 0.659491 1.457096 0
M  V30 13 C 0.893110 0.813032 2.141234 0
M  V30 14 Cl 1.166619 2.255246 3.042710 0
M  V30 15 C 1.889037 0.545675 1.030012 0
M  V30 16 Cl 3.499677 0.164533 1.720655 0
M  V30 17 Cl 1.951229 1.686435 -0.249288 0
M  V30 18 H -0.737282 -1.447120 1.086975 0
M  V30 19 H -0.133717 -0.759513 -1.528003 0
M  V30 20 H -1.162324 1.645666 -1.706090 0
M  V30 21 H -0.798123 2.746029 0.590188 0
M  V30 22 H -1.252271 0.514551 2.176009 0
M  V30 END ATOM
M  V30 BEGIN BOND
M  V30 1 1 1 2
M  V30 2 2 2 3
M  V30 3 1 3 4
M  V30 4 1 3 5
M  V30 5 1 5 6
M  V30 6 1 5 7
M  V30 7 1 7 8
M  V30 8 1 8 9
M  V30 9 1 8 10
M  V30 10 2 10 11
M  V30 11 1 11 12
M  V30 12 1 12 13
M  V30 13 1 13 14
M  V30 14 1 13 15
M  V30 15 1 15 16
M  V30 16 1 15 17
M  V30 17 1 13 2
M  V30 18 1 15 5
M  V30 19 1 12 7
M  V30 20 1 7 18
M  V30 21 1 8 19
M  V30 22 1 10 20
M  V30 23 1 11 21
M  V30 24 1 12 22
M  V30 END BOND
M  V30 END CTAB
M  END
>  <Dataset>  (973) 
ChEMBL_Kinases

>  <Ligand_Instance>  (973) 
nan

>  <PDB_ID>  (973) 
nan

>  <Standardized_SMILES>  (973) 
ClC1=C(Cl)C2(Cl)C3C(Cl)C=CC3C1(Cl)C2(Cl)Cl

>  <Name>  (973) 
HEPTACHLOR

>  <Pocket>  (973) 
nan

>  <ATP_Site>  (973) 
nan

>  <Peripheral>  (973) 
nan

>  <Num_H_Atoms_ProtBoundConf>  (973) 
nan

>  <Num_Resolved_Atoms>  (973) 
nan

>  <Num_Not_Resolved_Atoms>  (973) 
nan

$$$$
CHEMBL1944642
     RDKit          3D

  0  0  0  0  0  0  0  0  0  0999 V3000
M  V30 BEGIN CTAB
M  V30 COUNTS 54 57 0 0 0
M  V30 BEGIN ATOM
M  V30 1 C 2.085488 2.560611 2.706133 0
M  V30 2 N 1.835179 1.180972 2.351897 0
M  V30 3 C 0.684177 0.697015 3.092071 0
M  V30 4 C 2.984370 0.354443 2.547446 0
M  V30 5 C 4.043857 0.726440 1.543986 0
M  V30 6 C 3.638578 0.523569 0.122447 0
M  V30 7 C 2.478044 1.271296 -0.340021 0
M  V30 8 C 2.697506 2.541268 -0.873586 0
M  V30 9 C 1.714661 3.369056 -1.375729 0
M  V30 10 C 0.419143 2.936668 -1.363014 0
M  V30 11 C 0.142931 1.687971 -0.847027 0
M  V30 12 N -1.193768 1.218987 -0.846620 0
M  V30 13 C -1.791960 0.055376 -0.306000 0
M  V30 14 N -2.429393 0.300049 0.860757 0
M  V30 15 C -3.065908 -0.682799 1.548307 0
M  V30 16 C -3.068993 -1.979771 1.049609 0
M  V30 17 C -2.419759 -2.206428 -0.128516 0
M  V30 18 N -1.777394 -1.214418 -0.822427 0
M  V30 19 C -2.245205 -3.440546 -0.884723 0
M  V30 20 C -1.905789 -3.275341 -2.212305 0
M  V30 21 C -1.701353 -4.355350 -3.062558 0
M  V30 22 C -1.861848 -5.621317 -2.486732 0
M  V30 23 Cl -1.610041 -7.016562 -3.541063 0
M  V30 24 C -2.200306 -5.781921 -1.162482 0
M  V30 25 C -2.402990 -4.709590 -0.318639 0
M  V30 26 N -2.741587 -5.111698 1.000410 0
M  V30 27 C -3.197760 -4.240611 2.037313 0
M  V30 28 O -3.019936 -4.733552 3.201378 0
M  V30 29 C -3.820597 -2.903744 1.946604 0
M  V30 30 C 1.149063 0.884199 -0.350276 0
M  V30 31 H 1.075740 3.051382 2.733593 0
M  V30 32 H 2.669782 3.104831 1.952344 0
M  V30 33 H 2.535196 2.656248 3.728183 0
M  V30 34 H 0.801229 -0.421795 3.163040 0
M  V30 35 H 0.578781 1.144919 4.090533 0
M  V30 36 H -0.204936 0.890282 2.487732 0
M  V30 37 H 2.659066 -0.702685 2.384199 0
M  V30 38 H 3.408369 0.414424 3.559286 0
M  V30 39 H 4.947532 0.095928 1.795483 0
M  V30 40 H 4.349497 1.789586 1.695995 0
M  V30 41 H 4.521721 0.801144 -0.524582 0
M  V30 42 H 3.441134 -0.577136 -0.041752 0
M  V30 43 H 3.710287 2.953036 -0.917336 0
M  V30 44 H 1.954050 4.345388 -1.775861 0
M  V30 45 H -0.403421 3.526296 -1.738250 0
M  V30 46 H -1.948786 1.755306 -1.298347 0
M  V30 47 H -3.587056 -0.493216 2.497713 0
M  V30 48 H -1.819247 -2.233088 -2.506453 0
M  V30 49 H -1.441203 -4.155766 -4.073623 0
M  V30 50 H -2.321742 -6.781896 -0.724621 0
M  V30 51 H -2.631131 -6.139142 1.180725 0
M  V30 52 H -4.894685 -2.990829 1.617432 0
M  V30 53 H -3.881141 -2.486168 2.977484 0
M  V30 54 H 0.953512 -0.104775 0.059142 0
M  V30 END ATOM
M  V30 BEGIN BOND
M  V30 1 1 1 2
M  V30 2 1 2 3
M  V30 3 1 2 4
M  V30 4 1 4 5
M  V30 5 1 5 6
M  V30 6 1 6 7
M  V30 7 2 7 8
M  V30 8 1 8 9
M  V30 9 2 9 10
M  V30 10 1 10 11
M  V30 11 1 11 12
M  V30 12 1 12 13
M  V30 13 2 13 14
M  V30 14 1 14 15
M  V30 15 2 15 16
M  V30 16 1 16 17
M  V30 17 2 17 18
M  V30 18 1 17 19
M  V30 19 2 19 20
M  V30 20 1 20 21
M  V30 21 2 21 22
M  V30 22 1 22 23
M  V30 23 1 22 24
M  V30 24 2 24 25
M  V30 25 1 25 26
M  V30 26 1 26 27
M  V30 27 2 27 28
M  V30 28 1 27 29
M  V30 29 2 11 30
M  V30 30 1 30 7
M  V30 31 1 18 13
M  V30 32 1 25 19
M  V30 33 1 29 16
M  V30 34 1 1 31
M  V30 35 1 1 32
M  V30 36 1 1 33
M  V30 37 1 3 34
M  V30 38 1 3 35
M  V30 39 1 3 36
M  V30 40 1 4 37
M  V30 41 1 4 38
M  V30 42 1 5 39
M  V30 43 1 5 40
M  V30 44 1 6 41
M  V30 45 1 6 42
M  V30 46 1 8 43
M  V30 47 1 9 44
M  V30 48 1 10 45
M  V30 49 1 12 46
M  V30 50 1 15 47
M  V30 51 1 20 48
M  V30 52 1 21 49
M  V30 53 1 24 50
M  V30 54 1 26 51
M  V30 55 1 29 52
M  V30 56 1 29 53
M  V30 57 1 30 54
M  V30 END BOND
M  V30 END CTAB
M  END
>  <Dataset>  (974) 
ChEMBL_Kinases

>  <Ligand_Instance>  (974) 
nan

>  <PDB_ID>  (974) 
nan

>  <Standardized_SMILES>  (974) 
CN(C)CCCc1cccc(Nc2ncc3c(n2)-c2ccc(Cl)cc2NC(=O)C3)c1

>  <Name>  (974) 
nan

>  <Pocket>  (974) 
nan

>  <ATP_Site>  (974) 
nan

>  <Peripheral>  (974) 
nan

>  <Num_H_Atoms_ProtBoundConf>  (974) 
nan

>  <Num_Resolved_Atoms>  (974) 
nan

>  <Num_Not_Resolved_Atoms>  (974) 
nan

$$$$
CHEMBL1944649
     RDKit          3D

  0  0  0  0  0  0  0  0  0  0999 V3000
M  V30 BEGIN CTAB
M  V30 COUNTS 54 58 0 0 0
M  V30 BEGIN ATOM
M  V30 1 C 4.400484 0.757292 -2.063700 0
M  V30 2 C 5.268084 -0.396431 -1.663315 0
M  V30 3 C 6.261180 -0.786657 -2.532443 0
M  V30 4 C 7.052258 -1.848716 -2.153117 0
M  V30 5 C 6.826696 -2.459426 -0.958048 0
M  V30 6 C 5.826599 -2.039479 -0.121260 0
M  V30 7 F 5.584933 -2.644648 1.088906 0
M  V30 8 C 4.980576 -0.968308 -0.434693 0
M  V30 9 C 3.906400 -0.477704 0.419651 0
M  V30 10 N 4.233788 0.483450 1.306382 0
M  V30 11 N 3.139225 0.817681 2.005820 0
M  V30 12 C 2.116026 0.064713 1.559293 0
M  V30 13 C 0.782361 -0.009616 1.914110 0
M  V30 14 C 0.017810 -0.926470 1.214555 0
M  V30 15 C -1.389279 -0.997311 1.596673 0
M  V30 16 C -2.380014 -0.216010 1.004544 0
M  V30 17 C -3.698920 -0.314022 1.395930 0
M  V30 18 C -4.692338 0.528797 0.740657 0
M  V30 19 O -4.263608 1.300344 -0.155333 0
M  V30 20 N -6.067675 0.477305 1.098481 0
M  V30 21 C -7.023259 1.320377 0.434558 0
M  V30 22 C -8.063567 1.903213 1.392247 0
M  V30 23 C -8.478755 0.932580 0.353535 0
M  V30 24 C -3.975192 -1.221234 2.396933 0
M  V30 25 C -3.003565 -1.998973 2.989558 0
M  V30 26 F -3.312490 -2.881380 3.972045 0
M  V30 27 C -1.698006 -1.898626 2.598700 0
M  V30 28 C -0.666591 -2.745266 3.249666 0
M  V30 29 C 0.579555 -1.708701 0.224874 0
M  V30 30 O -0.163495 -2.528653 -0.381551 0
M  V30 31 N 1.899116 -1.613384 -0.103684 0
M  V30 32 C 2.477074 -2.443155 -1.147712 0
M  V30 33 N 2.595600 -0.728566 0.584783 0
M  V30 34 H 4.887267 1.666283 -1.650715 0
M  V30 35 H 4.420279 0.860767 -3.163429 0
M  V30 36 H 3.368977 0.653516 -1.671683 0
M  V30 37 H 6.394332 -0.274580 -3.454114 0
M  V30 38 H 7.837577 -2.176884 -2.812383 0
M  V30 39 H 7.432604 -3.296187 -0.634266 0
M  V30 40 H 0.372869 0.617050 2.693848 0
M  V30 41 H -2.059790 0.463748 0.229596 0
M  V30 42 H -6.417160 -0.163168 1.840829 0
M  V30 43 H -6.685451 2.012665 -0.359578 0
M  V30 44 H -8.333522 2.967515 1.287540 0
M  V30 45 H -8.111855 1.535341 2.433547 0
M  V30 46 H -9.077838 1.281589 -0.492643 0
M  V30 47 H -8.676345 -0.124825 0.616859 0
M  V30 48 H -4.992425 -1.322277 2.725142 0
M  V30 49 H -0.626996 -3.766361 2.818903 0
M  V30 50 H -0.911227 -2.863724 4.321557 0
M  V30 51 H 0.329599 -2.271345 3.157016 0
M  V30 52 H 1.644517 -3.091057 -1.555812 0
M  V30 53 H 3.241861 -3.143244 -0.761713 0
M  V30 54 H 2.782675 -1.821292 -1.986847 0
M  V30 END ATOM
M  V30 BEGIN BOND
M  V30 1 1 1 2
M  V30 2 2 2 3
M  V30 3 1 3 4
M  V30 4 2 4 5
M  V30 5 1 5 6
M  V30 6 1 6 7
M  V30 7 2 6 8
M  V30 8 1 8 9
M  V30 9 2 9 10
M  V30 10 1 10 11
M  V30 11 2 11 12
M  V30 12 1 12 13
M  V30 13 2 13 14
M  V30 14 1 14 15
M  V30 15 2 15 16
M  V30 16 1 16 17
M  V30 17 1 17 18
M  V30 18 2 18 19
M  V30 19 1 18 20
M  V30 20 1 20 21
M  V30 21 1 21 22
M  V30 22 1 22 23
M  V30 23 2 17 24
M  V30 24 1 24 25
M  V30 25 1 25 26
M  V30 26 2 25 27
M  V30 27 1 27 28
M  V30 28 1 14 29
M  V30 29 2 29 30
M  V30 30 1 29 31
M  V30 31 1 31 32
M  V30 32 1 31 33
M  V30 33 1 8 2
M  V30 34 1 33 9
M  V30 35 1 33 12
M  V30 36 1 27 15
M  V30 37 1 23 21
M  V30 38 1 1 34
M  V30 39 1 1 35
M  V30 40 1 1 36
M  V30 41 1 3 37
M  V30 42 1 4 38
M  V30 43 1 5 39
M  V30 44 1 13 40
M  V30 45 1 16 41
M  V30 46 1 20 42
M  V30 47 1 21 43
M  V30 48 1 22 44
M  V30 49 1 22 45
M  V30 50 1 23 46
M  V30 51 1 23 47
M  V30 52 1 24 48
M  V30 53 1 28 49
M  V30 54 1 28 50
M  V30 55 1 28 51
M  V30 56 1 32 52
M  V30 57 1 32 53
M  V30 58 1 32 54
M  V30 END BOND
M  V30 END CTAB
M  END
>  <Dataset>  (975) 
ChEMBL_Kinases

>  <Ligand_Instance>  (975) 
nan

>  <PDB_ID>  (975) 
nan

>  <Standardized_SMILES>  (975) 
Cc1cccc(F)c1-c1nnc2cc(-c3cc(C(=O)NC4CC4)cc(F)c3C)c(=O)n(C)n12

>  <Name>  (975) 
nan

>  <Pocket>  (975) 
nan

>  <ATP_Site>  (975) 
nan

>  <Peripheral>  (975) 
nan

>  <Num_H_Atoms_ProtBoundConf>  (975) 
nan

>  <Num_Resolved_Atoms>  (975) 
nan

>  <Num_Not_Resolved_Atoms>  (975) 
nan

$$$$
CHEMBL1944663
     RDKit          3D

  0  0  0  0  0  0  0  0  0  0999 V3000
M  V30 BEGIN CTAB
M  V30 COUNTS 38 41 0 0 0
M  V30 BEGIN ATOM
M  V30 1 C -1.045489 -3.614398 2.033526 0
M  V30 2 C 0.084995 -4.152110 1.173824 0
M  V30 3 C 1.208012 -3.157297 1.125221 0
M  V30 4 O 0.857061 -1.945330 0.611073 0
M  V30 5 C 0.436100 -1.378183 -0.478559 0
M  V30 6 C 0.303837 -2.277082 -1.504603 0
M  V30 7 C -0.131033 -1.912833 -2.781078 0
M  V30 8 C -0.436481 -0.605542 -3.016427 0
M  V30 9 C -0.294463 0.275458 -1.970745 0
M  V30 10 N -0.550054 1.610786 -2.017924 0
M  V30 11 C -0.290410 2.091362 -0.816711 0
M  V30 12 C -0.378535 3.359851 -0.325998 0
M  V30 13 O -0.761242 4.297323 -1.063389 0
M  V30 14 O -0.060379 3.589858 0.920379 0
M  V30 15 C 0.344417 2.638708 1.725733 0
M  V30 16 C 0.634617 3.071996 3.002965 0
M  V30 17 C 1.066515 2.118243 3.900809 0
M  V30 18 C 1.192718 0.787461 3.503050 0
M  V30 19 O 1.630553 -0.084760 4.472668 0
M  V30 20 C 0.867986 0.500009 2.197653 0
M  V30 21 C 0.439682 1.354457 1.249876 0
M  V30 22 C 0.128342 1.063151 -0.011424 0
M  V30 23 C 0.133068 -0.080288 -0.712955 0
M  V30 24 H -0.671959 -3.363207 3.030814 0
M  V30 25 H -1.794603 -4.432571 2.154379 0
M  V30 26 H -1.540197 -2.736534 1.562359 0
M  V30 27 H -0.321848 -4.501477 0.239578 0
M  V30 28 H 0.431521 -5.080174 1.728810 0
M  V30 29 H 1.498313 -2.989449 2.207645 0
M  V30 30 H 2.120012 -3.612691 0.664365 0
M  V30 31 H 0.517449 -3.358041 -1.517399 0
M  V30 32 H -0.250304 -2.585716 -3.616929 0
M  V30 33 H -0.773965 -0.282949 -3.981774 0
M  V30 34 H -0.890934 2.185423 -2.838113 0
M  V30 35 H 0.537369 4.100571 3.311421 0
M  V30 36 H 1.302850 2.422291 4.910293 0
M  V30 37 H 0.929925 -0.625791 4.984145 0
M  V30 38 H 1.001273 -0.511657 2.025623 0
M  V30 END ATOM
M  V30 BEGIN BOND
M  V30 1 1 1 2
M  V30 2 1 2 3
M  V30 3 1 3 4
M  V30 4 1 4 5
M  V30 5 2 5 6
M  V30 6 1 6 7
M  V30 7 2 7 8
M  V30 8 1 8 9
M  V30 9 1 9 10
M  V30 10 1 10 11
M  V30 11 1 11 12
M  V30 12 2 12 13
M  V30 13 1 12 14
M  V30 14 1 14 15
M  V30 15 2 15 16
M  V30 16 1 16 17
M  V30 17 2 17 18
M  V30 18 1 18 19
M  V30 19 1 18 20
M  V30 20 2 20 21
M  V30 21 1 21 22
M  V30 22 1 22 23
M  V30 23 1 23 5
M  V30 24 2 23 9
M  V30 25 2 22 11
M  V30 26 1 21 15
M  V30 27 1 1 24
M  V30 28 1 1 25
M  V30 29 1 1 26
M  V30 30 1 2 27
M  V30 31 1 2 28
M  V30 32 1 3 29
M  V30 33 1 3 30
M  V30 34 1 6 31
M  V30 35 1 7 32
M  V30 36 1 8 33
M  V30 37 1 10 34
M  V30 38 1 16 35
M  V30 39 1 17 36
M  V30 40 1 19 37
M  V30 41 1 20 38
M  V30 END BOND
M  V30 END CTAB
M  END
>  <Dataset>  (976) 
ChEMBL_Kinases

>  <Ligand_Instance>  (976) 
nan

>  <PDB_ID>  (976) 
nan

>  <Standardized_SMILES>  (976) 
CCCOc1cccc2[nH]c3c(=O)oc4ccc(O)cc4c3c12

>  <Name>  (976) 
nan

>  <Pocket>  (976) 
nan

>  <ATP_Site>  (976) 
nan

>  <Peripheral>  (976) 
nan

>  <Num_H_Atoms_ProtBoundConf>  (976) 
nan

>  <Num_Resolved_Atoms>  (976) 
nan

>  <Num_Not_Resolved_Atoms>  (976) 
nan

$$$$
CHEMBL1944678
     RDKit          3D

  0  0  0  0  0  0  0  0  0  0999 V3000
M  V30 BEGIN CTAB
M  V30 COUNTS 48 51 0 0 0
M  V30 BEGIN ATOM
M  V30 1 C 1.126288 -4.162185 6.594781 0
M  V30 2 O 0.451164 -3.540617 5.519645 0
M  V30 3 C 1.097096 -3.031096 4.408583 0
M  V30 4 C 2.463344 -3.078473 4.237575 0
M  V30 5 C 3.057088 -2.556262 3.112746 0
M  V30 6 C 2.346386 -1.959222 2.094089 0
M  V30 7 N 3.005719 -1.443725 0.951062 0
M  V30 8 C 2.447067 -0.677617 -0.104111 0
M  V30 9 N 3.230656 -0.342555 -1.142696 0
M  V30 10 C 2.876207 0.368345 -2.200577 0
M  V30 11 C 1.579828 0.823858 -2.271114 0
M  V30 12 C 0.738364 0.504526 -1.226822 0
M  V30 13 N 1.184658 -0.224296 -0.189295 0
M  V30 14 C -0.662811 0.880266 -1.093003 0
M  V30 15 C -1.026268 0.922007 0.235674 0
M  V30 16 C -2.350555 1.263544 0.527139 0
M  V30 17 C -3.235176 1.543546 -0.516067 0
M  V30 18 C -4.626514 1.899837 -0.175789 0
M  V30 19 F -5.368016 0.737965 -0.124708 0
M  V30 20 F -5.087840 2.780165 -1.117954 0
M  V30 21 F -4.670393 2.500221 1.073967 0
M  V30 22 C -2.829202 1.490929 -1.844803 0
M  V30 23 C -1.518624 1.153529 -2.147882 0
M  V30 24 N -1.279468 1.154769 -3.550635 0
M  V30 25 C 0.009483 1.399607 -4.101276 0
M  V30 26 O -0.004997 1.468772 -5.367063 0
M  V30 27 C 1.361062 1.590487 -3.514764 0
M  V30 28 C 0.987758 -1.939076 2.315636 0
M  V30 29 C 0.339803 -2.444794 3.419207 0
M  V30 30 O -1.037980 -2.385593 3.570046 0
M  V30 31 C -1.872714 -1.788604 2.576643 0
M  V30 32 H 0.524792 -4.103902 7.529828 0
M  V30 33 H 1.401364 -5.216357 6.382024 0
M  V30 34 H 2.093069 -3.650170 6.837687 0
M  V30 35 H 3.064867 -3.539841 5.015116 0
M  V30 36 H 4.142992 -2.638605 3.062996 0
M  V30 37 H 4.026142 -1.664765 0.895095 0
M  V30 38 H 3.632435 0.552232 -2.955848 0
M  V30 39 H -0.285360 0.696621 0.985373 0
M  V30 40 H -2.654062 1.300998 1.574117 0
M  V30 41 H -3.499498 1.704458 -2.669305 0
M  V30 42 H -2.109637 0.965610 -4.151588 0
M  V30 43 H 1.451131 2.676267 -3.239077 0
M  V30 44 H 2.145106 1.306943 -4.249136 0
M  V30 45 H 0.336176 -1.502466 1.578934 0
M  V30 46 H -2.925219 -2.079081 2.755329 0
M  V30 47 H -1.719311 -0.686957 2.620645 0
M  V30 48 H -1.612375 -2.196454 1.574304 0
M  V30 END ATOM
M  V30 BEGIN BOND
M  V30 1 1 1 2
M  V30 2 1 2 3
M  V30 3 2 3 4
M  V30 4 1 4 5
M  V30 5 2 5 6
M  V30 6 1 6 7
M  V30 7 1 7 8
M  V30 8 2 8 9
M  V30 9 1 9 10
M  V30 10 2 10 11
M  V30 11 1 11 12
M  V30 12 2 12 13
M  V30 13 1 12 14
M  V30 14 2 14 15
M  V30 15 1 15 16
M  V30 16 2 16 17
M  V30 17 1 17 18
M  V30 18 1 18 19
M  V30 19 1 18 20
M  V30 20 1 18 21
M  V30 21 1 17 22
M  V30 22 2 22 23
M  V30 23 1 23 24
M  V30 24 1 24 25
M  V30 25 2 25 26
M  V30 26 1 25 27
M  V30 27 1 6 28
M  V30 28 2 28 29
M  V30 29 1 29 30
M  V30 30 1 30 31
M  V30 31 1 29 3
M  V30 32 1 13 8
M  V30 33 1 23 14
M  V30 34 1 27 11
M  V30 35 1 1 32
M  V30 36 1 1 33
M  V30 37 1 1 34
M  V30 38 1 4 35
M  V30 39 1 5 36
M  V30 40 1 7 37
M  V30 41 1 10 38
M  V30 42 1 15 39
M  V30 43 1 16 40
M  V30 44 1 22 41
M  V30 45 1 24 42
M  V30 46 1 27 43
M  V30 47 1 27 44
M  V30 48 1 28 45
M  V30 49 1 31 46
M  V30 50 1 31 47
M  V30 51 1 31 48
M  V30 END BOND
M  V30 END CTAB
M  END
>  <Dataset>  (977) 
ChEMBL_Kinases

>  <Ligand_Instance>  (977) 
nan

>  <PDB_ID>  (977) 
nan

>  <Standardized_SMILES>  (977) 
COc1ccc(Nc2ncc3c(n2)-c2ccc(C(F)(F)F)cc2NC(=O)C3)cc1OC

>  <Name>  (977) 
nan

>  <Pocket>  (977) 
nan

>  <ATP_Site>  (977) 
nan

>  <Peripheral>  (977) 
nan

>  <Num_H_Atoms_ProtBoundConf>  (977) 
nan

>  <Num_Resolved_Atoms>  (977) 
nan

>  <Num_Not_Resolved_Atoms>  (977) 
nan

$$$$
CHEMBL1944679
     RDKit          3D

  0  0  0  0  0  0  0  0  0  0999 V3000
M  V30 BEGIN CTAB
M  V30 COUNTS 45 48 0 0 0
M  V30 BEGIN ATOM
M  V30 1 C -1.103852 -7.171856 0.403623 0
M  V30 2 O -1.055361 -5.892635 0.974959 0
M  V30 3 C -0.670438 -4.755691 0.316746 0
M  V30 4 C -0.294511 -4.818515 -1.008173 0
M  V30 5 C 0.094960 -3.687150 -1.684454 0
M  V30 6 C 0.133579 -2.429431 -1.084356 0
M  V30 7 N 0.538798 -1.298060 -1.843054 0
M  V30 8 C 0.773551 0.020003 -1.369409 0
M  V30 9 N 1.089093 0.964565 -2.269514 0
M  V30 10 C 1.346214 2.245902 -1.996345 0
M  V30 11 C 1.285393 2.643730 -0.680354 0
M  V30 12 C 0.965152 1.704442 0.274839 0
M  V30 13 N 0.719894 0.429221 -0.092018 0
M  V30 14 C 0.849148 1.905207 1.713992 0
M  V30 15 C 1.116802 0.728775 2.382228 0
M  V30 16 C 1.031491 0.808188 3.775635 0
M  V30 17 C 0.702293 1.987062 4.411581 0
M  V30 18 C 0.440868 3.149940 3.687236 0
M  V30 19 C 0.519294 3.094637 2.310608 0
M  V30 20 N 0.223383 4.380970 1.728384 0
M  V30 21 C 0.659848 4.723089 0.419371 0
M  V30 22 O 0.111436 5.809918 0.027814 0
M  V30 23 C 1.594273 4.090566 -0.550719 0
M  V30 24 C -0.254411 -2.443194 0.236238 0
M  V30 25 C -0.647352 -3.539618 0.944964 0
M  V30 26 O -1.018745 -3.465919 2.260991 0
M  V30 27 C -1.035773 -2.271032 3.014641 0
M  V30 28 H -0.190405 -7.409056 -0.206876 0
M  V30 29 H -1.952661 -7.203619 -0.309948 0
M  V30 30 H -1.279366 -7.967661 1.136660 0
M  V30 31 H -0.302103 -5.774170 -1.537225 0
M  V30 32 H 0.380226 -3.803501 -2.728547 0
M  V30 33 H 0.674029 -1.477530 -2.866306 0
M  V30 34 H 1.588242 2.902418 -2.821230 0
M  V30 35 H 1.370254 -0.155580 1.815530 0
M  V30 36 H 1.241911 -0.118171 4.304299 0
M  V30 37 H 0.644162 2.016514 5.495211 0
M  V30 38 H 0.181158 4.090105 4.138598 0
M  V30 39 H -0.320375 5.044873 2.305361 0
M  V30 40 H 1.513711 4.620824 -1.519959 0
M  V30 41 H 2.626871 4.237257 -0.128706 0
M  V30 42 H -0.259493 -1.519639 0.770504 0
M  V30 43 H -1.621884 -2.391485 3.937666 0
M  V30 44 H -1.555343 -1.492025 2.401361 0
M  V30 45 H -0.025131 -1.885671 3.228295 0
M  V30 END ATOM
M  V30 BEGIN BOND
M  V30 1 1 1 2
M  V30 2 1 2 3
M  V30 3 2 3 4
M  V30 4 1 4 5
M  V30 5 2 5 6
M  V30 6 1 6 7
M  V30 7 1 7 8
M  V30 8 2 8 9
M  V30 9 1 9 10
M  V30 10 2 10 11
M  V30 11 1 11 12
M  V30 12 2 12 13
M  V30 13 1 12 14
M  V30 14 2 14 15
M  V30 15 1 15 16
M  V30 16 2 16 17
M  V30 17 1 17 18
M  V30 18 2 18 19
M  V30 19 1 19 20
M  V30 20 1 20 21
M  V30 21 2 21 22
M  V30 22 1 21 23
M  V30 23 1 6 24
M  V30 24 2 24 25
M  V30 25 1 25 26
M  V30 26 1 26 27
M  V30 27 1 25 3
M  V30 28 1 13 8
M  V30 29 1 19 14
M  V30 30 1 23 11
M  V30 31 1 1 28
M  V30 32 1 1 29
M  V30 33 1 1 30
M  V30 34 1 4 31
M  V30 35 1 5 32
M  V30 36 1 7 33
M  V30 37 1 10 34
M  V30 38 1 15 35
M  V30 39 1 16 36
M  V30 40 1 17 37
M  V30 41 1 18 38
M  V30 42 1 20 39
M  V30 43 1 23 40
M  V30 44 1 23 41
M  V30 45 1 24 42
M  V30 46 1 27 43
M  V30 47 1 27 44
M  V30 48 1 27 45
M  V30 END BOND
M  V30 END CTAB
M  END
>  <Dataset>  (978) 
ChEMBL_Kinases

>  <Ligand_Instance>  (978) 
nan

>  <PDB_ID>  (978) 
nan

>  <Standardized_SMILES>  (978) 
COc1ccc(Nc2ncc3c(n2)-c2ccccc2NC(=O)C3)cc1OC

>  <Name>  (978) 
nan

>  <Pocket>  (978) 
nan

>  <ATP_Site>  (978) 
nan

>  <Peripheral>  (978) 
nan

>  <Num_H_Atoms_ProtBoundConf>  (978) 
nan

>  <Num_Resolved_Atoms>  (978) 
nan

>  <Num_Not_Resolved_Atoms>  (978) 
nan

$$$$
CHEMBL1944680
     RDKit          3D

  0  0  0  0  0  0  0  0  0  0999 V3000
M  V30 BEGIN CTAB
M  V30 COUNTS 45 48 0 0 0
M  V30 BEGIN ATOM
M  V30 1 C -0.175478 -6.214106 1.360761 0
M  V30 2 O -1.069454 -5.649258 0.419456 0
M  V30 3 C -0.898590 -4.361544 -0.016592 0
M  V30 4 C 0.160578 -3.620993 0.476278 0
M  V30 5 C 0.272381 -2.323068 -0.009793 0
M  V30 6 C -0.578055 -1.744506 -0.923039 0
M  V30 7 N -0.398534 -0.406487 -1.374083 0
M  V30 8 C 0.685266 0.376471 -0.884651 0
M  V30 9 N 1.919631 0.476718 -1.410708 0
M  V30 10 C 2.851911 1.267025 -0.829604 0
M  V30 11 C 2.560538 1.998428 0.328470 0
M  V30 12 C 1.289271 1.881627 0.851754 0
M  V30 13 N 0.401062 1.085222 0.238593 0
M  V30 14 C 0.761947 2.542588 2.040794 0
M  V30 15 C -0.611190 2.388579 2.129899 0
M  V30 16 C -1.338061 2.932922 3.180914 0
M  V30 17 C -0.680236 3.647021 4.165130 0
M  V30 18 F -1.382054 4.180776 5.192680 0
M  V30 19 C 0.703311 3.785303 4.048223 0
M  V30 20 C 1.431522 3.247878 3.008045 0
M  V30 21 N 2.814714 3.513916 3.096578 0
M  V30 22 C 3.795535 3.214267 2.108760 0
M  V30 23 O 4.980660 3.394864 2.551626 0
M  V30 24 C 3.752502 2.752393 0.719636 0
M  V30 25 C -1.603343 -2.521192 -1.373817 0
M  V30 26 C -1.802179 -3.837169 -0.947168 0
M  V30 27 O -2.771459 -4.558332 -1.379198 0
M  V30 28 C -3.756463 -5.287955 -1.819664 0
M  V30 29 H -0.569214 -7.196721 1.733646 0
M  V30 30 H 0.784369 -6.369182 0.809833 0
M  V30 31 H -0.001138 -5.530216 2.208755 0
M  V30 32 H 0.874716 -3.993465 1.193205 0
M  V30 33 H 1.099088 -1.747974 0.376260 0
M  V30 34 H -1.076393 -0.019529 -2.066386 0
M  V30 35 H 3.829081 1.307688 -1.298944 0
M  V30 36 H -1.139810 1.833329 1.368674 0
M  V30 37 H -2.416410 2.772349 3.187484 0
M  V30 38 H 1.182507 4.343674 4.826111 0
M  V30 39 H 3.110191 3.976895 3.989454 0
M  V30 40 H 4.695452 2.232096 0.451030 0
M  V30 41 H 3.760486 3.689435 0.089145 0
M  V30 42 H -2.285981 -2.082041 -2.095860 0
M  V30 43 H -4.668514 -4.743083 -2.196199 0
M  V30 44 H -4.183013 -6.064866 -1.100199 0
M  V30 45 H -3.482313 -5.942783 -2.705144 0
M  V30 END ATOM
M  V30 BEGIN BOND
M  V30 1 1 1 2
M  V30 2 1 2 3
M  V30 3 2 3 4
M  V30 4 1 4 5
M  V30 5 2 5 6
M  V30 6 1 6 7
M  V30 7 1 7 8
M  V30 8 2 8 9
M  V30 9 1 9 10
M  V30 10 2 10 11
M  V30 11 1 11 12
M  V30 12 2 12 13
M  V30 13 1 12 14
M  V30 14 2 14 15
M  V30 15 1 15 16
M  V30 16 2 16 17
M  V30 17 1 17 18
M  V30 18 1 17 19
M  V30 19 2 19 20
M  V30 20 1 20 21
M  V30 21 1 21 22
M  V30 22 2 22 23
M  V30 23 1 22 24
M  V30 24 1 6 25
M  V30 25 2 25 26
M  V30 26 1 26 27
M  V30 27 1 27 28
M  V30 28 1 26 3
M  V30 29 1 13 8
M  V30 30 1 20 14
M  V30 31 1 24 11
M  V30 32 1 1 29
M  V30 33 1 1 30
M  V30 34 1 1 31
M  V30 35 1 4 32
M  V30 36 1 5 33
M  V30 37 1 7 34
M  V30 38 1 10 35
M  V30 39 1 15 36
M  V30 40 1 16 37
M  V30 41 1 19 38
M  V30 42 1 21 39
M  V30 43 1 24 40
M  V30 44 1 24 41
M  V30 45 1 25 42
M  V30 46 1 28 43
M  V30 47 1 28 44
M  V30 48 1 28 45
M  V30 END BOND
M  V30 END CTAB
M  END
>  <Dataset>  (979) 
ChEMBL_Kinases

>  <Ligand_Instance>  (979) 
nan

>  <PDB_ID>  (979) 
nan

>  <Standardized_SMILES>  (979) 
COc1ccc(Nc2ncc3c(n2)-c2ccc(F)cc2NC(=O)C3)cc1OC

>  <Name>  (979) 
nan

>  <Pocket>  (979) 
nan

>  <ATP_Site>  (979) 
nan

>  <Peripheral>  (979) 
nan

>  <Num_H_Atoms_ProtBoundConf>  (979) 
nan

>  <Num_Resolved_Atoms>  (979) 
nan

>  <Num_Not_Resolved_Atoms>  (979) 
nan

$$$$
CHEMBL1944681
     RDKit          3D

  0  0  0  0  0  0  0  0  0  0999 V3000
M  V30 BEGIN CTAB
M  V30 COUNTS 48 51 0 0 0
M  V30 BEGIN ATOM
M  V30 1 C 0.925817 -5.763894 2.880385 0
M  V30 2 O 0.041458 -5.960993 1.800278 0
M  V30 3 C -0.137079 -4.892948 0.904098 0
M  V30 4 C 0.558905 -3.728337 1.137798 0
M  V30 5 C 0.373342 -2.698736 0.255273 0
M  V30 6 C -0.453629 -2.729945 -0.848955 0
M  V30 7 N -0.648277 -1.630159 -1.722666 0
M  V30 8 C -0.413740 -0.253320 -1.498169 0
M  V30 9 N -0.568398 0.587400 -2.564140 0
M  V30 10 C -0.407771 1.914473 -2.488698 0
M  V30 11 C -0.068080 2.515775 -1.294437 0
M  V30 12 C 0.084939 1.658966 -0.226168 0
M  V30 13 N -0.076972 0.309673 -0.299073 0
M  V30 14 C 0.426846 2.115087 1.109701 0
M  V30 15 C 0.654621 1.097033 1.999872 0
M  V30 16 C 0.993148 1.268632 3.317211 0
M  V30 17 C 1.113939 2.556660 3.784155 0
M  V30 18 C 1.489280 2.727274 5.233699 0
M  V30 19 C 0.897520 3.650456 2.938244 0
M  V30 20 C 0.558477 3.390747 1.620722 0
M  V30 21 N 0.374014 4.649088 0.936269 0
M  V30 22 C -0.155402 4.828682 -0.396672 0
M  V30 23 O -0.856989 5.891623 -0.510213 0
M  V30 24 C 0.026377 3.951773 -1.575285 0
M  V30 25 C -1.138547 -3.915758 -1.056457 0
M  V30 26 C -0.992245 -4.986031 -0.202813 0
M  V30 27 O -1.602869 -6.212245 -0.283466 0
M  V30 28 C -2.507789 -6.631586 -1.266634 0
M  V30 29 H 1.908771 -5.432743 2.446627 0
M  V30 30 H 0.519051 -5.012755 3.585137 0
M  V30 31 H 1.094332 -6.751782 3.398676 0
M  V30 32 H 1.237172 -3.562758 1.959196 0
M  V30 33 H 0.893381 -1.773177 0.367180 0
M  V30 34 H -1.021126 -1.907875 -2.661959 0
M  V30 35 H -0.566280 2.442898 -3.426427 0
M  V30 36 H 0.562199 0.098605 1.665186 0
M  V30 37 H 1.159451 0.415964 3.962034 0
M  V30 38 H 1.403409 3.819761 5.458134 0
M  V30 39 H 2.536029 2.373968 5.376529 0
M  V30 40 H 0.819933 2.106422 5.851380 0
M  V30 41 H 0.997831 4.656271 3.329415 0
M  V30 42 H 0.646790 5.532988 1.442257 0
M  V30 43 H 1.016572 4.232525 -2.041824 0
M  V30 44 H -0.719864 4.257969 -2.358629 0
M  V30 45 H -1.817815 -4.066074 -1.890116 0
M  V30 46 H -2.769362 -7.717063 -1.142736 0
M  V30 47 H -2.152018 -6.498718 -2.304051 0
M  V30 48 H -3.495325 -6.091029 -1.205143 0
M  V30 END ATOM
M  V30 BEGIN BOND
M  V30 1 1 1 2
M  V30 2 1 2 3
M  V30 3 2 3 4
M  V30 4 1 4 5
M  V30 5 2 5 6
M  V30 6 1 6 7
M  V30 7 1 7 8
M  V30 8 2 8 9
M  V30 9 1 9 10
M  V30 10 2 10 11
M  V30 11 1 11 12
M  V30 12 2 12 13
M  V30 13 1 12 14
M  V30 14 2 14 15
M  V30 15 1 15 16
M  V30 16 2 16 17
M  V30 17 1 17 18
M  V30 18 1 17 19
M  V30 19 2 19 20
M  V30 20 1 20 21
M  V30 21 1 21 22
M  V30 22 2 22 23
M  V30 23 1 22 24
M  V30 24 1 6 25
M  V30 25 2 25 26
M  V30 26 1 26 27
M  V30 27 1 27 28
M  V30 28 1 26 3
M  V30 29 1 13 8
M  V30 30 1 20 14
M  V30 31 1 24 11
M  V30 32 1 1 29
M  V30 33 1 1 30
M  V30 34 1 1 31
M  V30 35 1 4 32
M  V30 36 1 5 33
M  V30 37 1 7 34
M  V30 38 1 10 35
M  V30 39 1 15 36
M  V30 40 1 16 37
M  V30 41 1 18 38
M  V30 42 1 18 39
M  V30 43 1 18 40
M  V30 44 1 19 41
M  V30 45 1 21 42
M  V30 46 1 24 43
M  V30 47 1 24 44
M  V30 48 1 25 45
M  V30 49 1 28 46
M  V30 50 1 28 47
M  V30 51 1 28 48
M  V30 END BOND
M  V30 END CTAB
M  END
>  <Dataset>  (980) 
ChEMBL_Kinases

>  <Ligand_Instance>  (980) 
nan

>  <PDB_ID>  (980) 
nan

>  <Standardized_SMILES>  (980) 
COc1ccc(Nc2ncc3c(n2)-c2ccc(C)cc2NC(=O)C3)cc1OC

>  <Name>  (980) 
nan

>  <Pocket>  (980) 
nan

>  <ATP_Site>  (980) 
nan

>  <Peripheral>  (980) 
nan

>  <Num_H_Atoms_ProtBoundConf>  (980) 
nan

>  <Num_Resolved_Atoms>  (980) 
nan

>  <Num_Not_Resolved_Atoms>  (980) 
nan

$$$$
CHEMBL194322
     RDKit          3D

  0  0  0  0  0  0  0  0  0  0999 V3000
M  V30 BEGIN CTAB
M  V30 COUNTS 39 42 0 0 0
M  V30 BEGIN ATOM
M  V30 1 C 2.026934 -4.621350 1.158863 0
M  V30 2 C 0.876621 -3.639971 1.109645 0
M  V30 3 C -0.381879 -4.406658 1.469798 0
M  V30 4 C 0.806057 -3.054307 -0.261657 0
M  V30 5 N 0.571189 -3.693740 -1.444673 0
M  V30 6 N 0.590848 -2.813889 -2.422645 0
M  V30 7 C 0.833311 -1.588858 -1.937926 0
M  V30 8 C 0.959557 -0.329717 -2.493589 0
M  V30 9 C 1.222253 0.759910 -1.658120 0
M  V30 10 C 1.350877 0.547832 -0.279052 0
M  V30 11 C 1.624487 1.805312 0.406851 0
M  V30 12 O 2.660066 2.609752 0.331945 0
M  V30 13 C 2.488253 3.633880 1.126063 0
M  V30 14 N 1.286381 3.478957 1.738773 0
M  V30 15 C 0.719804 2.318999 1.293700 0
M  V30 16 C -0.584283 1.942689 1.819793 0
M  V30 17 C -0.959568 0.870044 2.602562 0
M  V30 18 C -2.272959 0.708193 2.986307 0
M  V30 19 C -3.266371 1.589096 2.618638 0
M  V30 20 F -4.508659 1.300200 3.070723 0
M  V30 21 C -2.897477 2.663159 1.836454 0
M  V30 22 C -1.587634 2.840058 1.443539 0
M  V30 23 C 1.212820 -0.732069 0.202465 0
M  V30 24 N 0.963362 -1.749424 -0.612375 0
M  V30 25 H 1.936409 -5.253538 2.073612 0
M  V30 26 H 1.928335 -5.285992 0.264462 0
M  V30 27 H 3.016117 -4.111975 1.094128 0
M  V30 28 H 1.079763 -2.838520 1.865481 0
M  V30 29 H -0.831468 -3.973851 2.410918 0
M  V30 30 H -0.173867 -5.468179 1.717360 0
M  V30 31 H -1.115576 -4.423892 0.626485 0
M  V30 32 H 0.852570 -0.207269 -3.571816 0
M  V30 33 H 1.304100 1.703699 -2.184517 0
M  V30 34 H 3.211002 4.449129 1.245223 0
M  V30 35 H -0.125254 0.229133 2.849086 0
M  V30 36 H -2.380602 -0.188001 3.596448 0
M  V30 37 H -3.713281 3.329593 1.571799 0
M  V30 38 H -1.465403 3.743977 0.825297 0
M  V30 39 H 1.330130 -0.783216 1.256067 0
M  V30 END ATOM
M  V30 BEGIN BOND
M  V30 1 1 1 2
M  V30 2 1 2 3
M  V30 3 1 2 4
M  V30 4 2 4 5
M  V30 5 1 5 6
M  V30 6 2 6 7
M  V30 7 1 7 8
M  V30 8 2 8 9
M  V30 9 1 9 10
M  V30 10 1 10 11
M  V30 11 1 11 12
M  V30 12 1 12 13
M  V30 13 2 13 14
M  V30 14 1 14 15
M  V30 15 1 15 16
M  V30 16 2 16 17
M  V30 17 1 17 18
M  V30 18 2 18 19
M  V30 19 1 19 20
M  V30 20 1 19 21
M  V30 21 2 21 22
M  V30 22 2 10 23
M  V30 23 1 23 24
M  V30 24 1 24 4
M  V30 25 1 24 7
M  V30 26 2 15 11
M  V30 27 1 22 16
M  V30 28 1 1 25
M  V30 29 1 1 26
M  V30 30 1 1 27
M  V30 31 1 2 28
M  V30 32 1 3 29
M  V30 33 1 3 30
M  V30 34 1 3 31
M  V30 35 1 8 32
M  V30 36 1 9 33
M  V30 37 1 13 34
M  V30 38 1 17 35
M  V30 39 1 18 36
M  V30 40 1 21 37
M  V30 41 1 22 38
M  V30 42 1 23 39
M  V30 END BOND
M  V30 END CTAB
M  END
>  <Dataset>  (981) 
ChEMBL_Kinases

>  <Ligand_Instance>  (981) 
nan

>  <PDB_ID>  (981) 
nan

>  <Standardized_SMILES>  (981) 
CC(C)c1nnc2ccc(-c3ocnc3-c3ccc(F)cc3)cn12

>  <Name>  (981) 
nan

>  <Pocket>  (981) 
nan

>  <ATP_Site>  (981) 
nan

>  <Peripheral>  (981) 
nan

>  <Num_H_Atoms_ProtBoundConf>  (981) 
nan

>  <Num_Resolved_Atoms>  (981) 
nan

>  <Num_Not_Resolved_Atoms>  (981) 
nan

$$$$
CHEMBL1938687
     RDKit          3D

  0  0  0  0  0  0  0  0  0  0999 V3000
M  V30 BEGIN CTAB
M  V30 COUNTS 51 56 0 0 0
M  V30 BEGIN ATOM
M  V30 1 N 7.593475 -6.611241 -2.998248 0
M  V30 2 C 6.881766 -5.778067 -2.624557 0
M  V30 3 C 5.985332 -4.737064 -2.174127 0
M  V30 4 C 6.433358 -3.644490 -1.421124 0
M  V30 5 C 5.524869 -2.681230 -1.019916 0
M  V30 6 C 4.209222 -2.867206 -1.397805 0
M  V30 7 C 3.264462 -1.842145 -0.966165 0
M  V30 8 C 1.887137 -1.793191 -1.211761 0
M  V30 9 C 1.344675 -0.643092 -0.623811 0
M  V30 10 C 2.478315 -0.060932 -0.044807 0
M  V30 11 O 3.556523 -0.756125 -0.250219 0
M  V30 12 C 2.451101 1.188772 0.706376 0
M  V30 13 N 3.484250 2.032465 0.856208 0
M  V30 14 N 3.097568 3.078093 1.603079 0
M  V30 15 C 1.795857 2.888141 1.929185 0
M  V30 16 N 1.418627 1.732311 1.374785 0
M  V30 17 C 0.098590 1.222997 1.520918 0
M  V30 18 C -0.475742 1.691505 2.685506 0
M  V30 19 C -1.784234 1.264665 2.948168 0
M  V30 20 C -2.477631 0.425286 2.107129 0
M  V30 21 N -3.801131 0.012165 2.412711 0
M  V30 22 C -4.458003 0.315575 3.665473 0
M  V30 23 C -5.527532 1.341890 3.363680 0
M  V30 24 N -5.835715 1.346705 1.954446 0
M  V30 25 C -5.969355 0.026770 1.406234 0
M  V30 26 C -4.670819 -0.745140 1.538949 0
M  V30 27 C -1.839828 -0.001178 0.964547 0
M  V30 28 C -0.540635 0.373793 0.625196 0
M  V30 29 C -0.074120 -0.217610 -0.650824 0
M  V30 30 C 3.719448 -3.924119 -2.137618 0
M  V30 31 C 4.650362 -4.881478 -2.530701 0
M  V30 32 H 7.481737 -3.584151 -1.173043 0
M  V30 33 H 5.840048 -1.827205 -0.438300 0
M  V30 34 H 1.313235 -2.524511 -1.769213 0
M  V30 35 H 1.269499 3.598842 2.521135 0
M  V30 36 H 0.028874 2.346340 3.379642 0
M  V30 37 H -2.191015 1.654157 3.860254 0
M  V30 38 H -5.025535 -0.598730 4.011484 0
M  V30 39 H -3.786237 0.612548 4.468858 0
M  V30 40 H -6.431223 1.208772 3.989974 0
M  V30 41 H -5.084305 2.337329 3.609067 0
M  V30 42 H -5.229580 1.946645 1.393026 0
M  V30 43 H -6.153604 0.135318 0.311881 0
M  V30 44 H -6.811607 -0.530196 1.858220 0
M  V30 45 H -4.228962 -1.001048 0.580331 0
M  V30 46 H -4.901492 -1.686496 2.113587 0
M  V30 47 H -2.292160 -0.660996 0.239247 0
M  V30 48 H -0.703730 -1.105889 -0.875197 0
M  V30 49 H -0.236616 0.510161 -1.465538 0
M  V30 50 H 2.672507 -3.991614 -2.389538 0
M  V30 51 H 4.297678 -5.722807 -3.112123 0
M  V30 END ATOM
M  V30 BEGIN BOND
M  V30 1 3 1 2
M  V30 2 1 2 3
M  V30 3 2 3 4
M  V30 4 1 4 5
M  V30 5 2 5 6
M  V30 6 1 6 7
M  V30 7 2 7 8
M  V30 8 1 8 9
M  V30 9 2 9 10
M  V30 10 1 10 11
M  V30 11 1 10 12
M  V30 12 2 12 13
M  V30 13 1 13 14
M  V30 14 2 14 15
M  V30 15 1 15 16
M  V30 16 1 16 17
M  V30 17 2 17 18
M  V30 18 1 18 19
M  V30 19 2 19 20
M  V30 20 1 20 21
M  V30 21 1 21 22
M  V30 22 1 22 23
M  V30 23 1 23 24
M  V30 24 1 24 25
M  V30 25 1 25 26
M  V30 26 1 20 27
M  V30 27 2 27 28
M  V30 28 1 28 29
M  V30 29 1 6 30
M  V30 30 2 30 31
M  V30 31 1 31 3
M  V30 32 1 11 7
M  V30 33 1 16 12
M  V30 34 1 28 17
M  V30 35 1 29 9
M  V30 36 1 26 21
M  V30 37 1 4 32
M  V30 38 1 5 33
M  V30 39 1 8 34
M  V30 40 1 15 35
M  V30 41 1 18 36
M  V30 42 1 19 37
M  V30 43 1 22 38
M  V30 44 1 22 39
M  V30 45 1 23 40
M  V30 46 1 23 41
M  V30 47 1 24 42
M  V30 48 1 25 43
M  V30 49 1 25 44
M  V30 50 1 26 45
M  V30 51 1 26 46
M  V30 52 1 27 47
M  V30 53 1 29 48
M  V30 54 1 29 49
M  V30 55 1 30 50
M  V30 56 1 31 51
M  V30 END BOND
M  V30 END CTAB
M  END
>  <Dataset>  (982) 
ChEMBL_Kinases

>  <Ligand_Instance>  (982) 
nan

>  <PDB_ID>  (982) 
nan

>  <Standardized_SMILES>  (982) 
N#Cc1ccc(-c2cc3c(o2)-c2nncn2-c2ccc(N4CCNCC4)cc2C3)cc1

>  <Name>  (982) 
nan

>  <Pocket>  (982) 
nan

>  <ATP_Site>  (982) 
nan

>  <Peripheral>  (982) 
nan

>  <Num_H_Atoms_ProtBoundConf>  (982) 
nan

>  <Num_Resolved_Atoms>  (982) 
nan

>  <Num_Not_Resolved_Atoms>  (982) 
nan

$$$$
CHEMBL1938686
     RDKit          3D

  0  0  0  0  0  0  0  0  0  0999 V3000
M  V30 BEGIN CTAB
M  V30 COUNTS 50 55 0 0 0
M  V30 BEGIN ATOM
M  V30 1 Cl 7.513489 -5.526638 -2.472633 0
M  V30 2 C 6.184437 -4.442242 -2.229856 0
M  V30 3 C 4.922990 -4.936779 -1.946393 0
M  V30 4 C 3.891590 -4.038330 -1.760524 0
M  V30 5 C 4.128068 -2.684152 -1.858030 0
M  V30 6 C 3.018504 -1.758691 -1.657023 0
M  V30 7 C 1.695703 -2.099382 -1.366562 0
M  V30 8 C 0.928810 -0.934703 -1.246192 0
M  V30 9 C 1.882266 0.063379 -1.482091 0
M  V30 10 O 3.065060 -0.428926 -1.713750 0
M  V30 11 C 1.580561 1.490330 -1.469127 0
M  V30 12 N 2.244532 2.421646 -2.138022 0
M  V30 13 N 1.662086 3.599098 -1.870742 0
M  V30 14 C 0.619469 3.424537 -1.027056 0
M  V30 15 N 0.592080 2.107988 -0.794230 0
M  V30 16 C -0.393179 1.539251 0.071511 0
M  V30 17 C -0.817028 2.457296 1.008452 0
M  V30 18 C -1.788393 2.014223 1.916414 0
M  V30 19 C -2.299204 0.744057 1.889889 0
M  V30 20 N -3.277942 0.333445 2.834255 0
M  V30 21 C -3.675925 1.143653 3.964599 0
M  V30 22 C -4.130913 0.336929 5.159117 0
M  V30 23 N -3.621763 -0.986295 5.231694 0
M  V30 24 C -3.664674 -1.742515 4.028650 0
M  V30 25 C -4.012661 -0.909588 2.815902 0
M  V30 26 C -1.837622 -0.128436 0.932114 0
M  V30 27 C -0.875487 0.229357 -0.006883 0
M  V30 28 C -0.523825 -0.874073 -0.943492 0
M  V30 29 C 5.373862 -2.162874 -2.139144 0
M  V30 30 C 6.414868 -3.072176 -2.326688 0
M  V30 31 H 4.810023 -6.001877 -1.885046 0
M  V30 32 H 2.888505 -4.406079 -1.536718 0
M  V30 33 H 1.313550 -3.104441 -1.249888 0
M  V30 34 H 0.002641 4.240219 -0.679713 0
M  V30 35 H -0.437739 3.465597 1.069269 0
M  V30 36 H -2.091799 2.765634 2.629223 0
M  V30 37 H -4.587110 1.713205 3.619667 0
M  V30 38 H -2.879045 1.863461 4.241370 0
M  V30 39 H -5.234364 0.285561 5.261391 0
M  V30 40 H -3.762420 0.876239 6.065691 0
M  V30 41 H -2.778522 -1.117211 5.810296 0
M  V30 42 H -2.662705 -2.181732 3.846449 0
M  V30 43 H -4.377634 -2.588110 4.109775 0
M  V30 44 H -5.111436 -0.676204 2.909139 0
M  V30 45 H -3.860343 -1.414285 1.867076 0
M  V30 46 H -2.169014 -1.142449 0.825629 0
M  V30 47 H -0.807604 -1.833951 -0.477979 0
M  V30 48 H -1.106884 -0.788852 -1.898191 0
M  V30 49 H 5.562256 -1.096703 -2.215967 0
M  V30 50 H 7.391404 -2.678847 -2.546363 0
M  V30 END ATOM
M  V30 BEGIN BOND
M  V30 1 1 1 2
M  V30 2 2 2 3
M  V30 3 1 3 4
M  V30 4 2 4 5
M  V30 5 1 5 6
M  V30 6 2 6 7
M  V30 7 1 7 8
M  V30 8 2 8 9
M  V30 9 1 9 10
M  V30 10 1 9 11
M  V30 11 2 11 12
M  V30 12 1 12 13
M  V30 13 2 13 14
M  V30 14 1 14 15
M  V30 15 1 15 16
M  V30 16 2 16 17
M  V30 17 1 17 18
M  V30 18 2 18 19
M  V30 19 1 19 20
M  V30 20 1 20 21
M  V30 21 1 21 22
M  V30 22 1 22 23
M  V30 23 1 23 24
M  V30 24 1 24 25
M  V30 25 1 19 26
M  V30 26 2 26 27
M  V30 27 1 27 28
M  V30 28 1 5 29
M  V30 29 2 29 30
M  V30 30 1 30 2
M  V30 31 1 10 6
M  V30 32 1 15 11
M  V30 33 1 27 16
M  V30 34 1 28 8
M  V30 35 1 25 20
M  V30 36 1 3 31
M  V30 37 1 4 32
M  V30 38 1 7 33
M  V30 39 1 14 34
M  V30 40 1 17 35
M  V30 41 1 18 36
M  V30 42 1 21 37
M  V30 43 1 21 38
M  V30 44 1 22 39
M  V30 45 1 22 40
M  V30 46 1 23 41
M  V30 47 1 24 42
M  V30 48 1 24 43
M  V30 49 1 25 44
M  V30 50 1 25 45
M  V30 51 1 26 46
M  V30 52 1 28 47
M  V30 53 1 28 48
M  V30 54 1 29 49
M  V30 55 1 30 50
M  V30 END BOND
M  V30 END CTAB
M  END
>  <Dataset>  (983) 
ChEMBL_Kinases

>  <Ligand_Instance>  (983) 
nan

>  <PDB_ID>  (983) 
nan

>  <Standardized_SMILES>  (983) 
Clc1ccc(-c2cc3c(o2)-c2nncn2-c2ccc(N4CCNCC4)cc2C3)cc1

>  <Name>  (983) 
nan

>  <Pocket>  (983) 
nan

>  <ATP_Site>  (983) 
nan

>  <Peripheral>  (983) 
nan

>  <Num_H_Atoms_ProtBoundConf>  (983) 
nan

>  <Num_Resolved_Atoms>  (983) 
nan

>  <Num_Not_Resolved_Atoms>  (983) 
nan

$$$$
CHEMBL1938685
     RDKit          3D

  0  0  0  0  0  0  0  0  0  0999 V3000
M  V30 BEGIN CTAB
M  V30 COUNTS 52 57 0 0 0
M  V30 BEGIN ATOM
M  V30 1 N 4.593949 -9.353646 -1.384372 0
M  V30 2 C 4.229167 -8.257501 -1.279090 0
M  V30 3 C 3.807162 -6.911552 -1.149128 0
M  V30 4 C 4.615328 -5.880400 -0.692627 0
M  V30 5 C 4.187120 -4.569010 -0.571368 0
M  V30 6 C 2.877944 -4.343301 -0.940234 0
M  V30 7 C 2.390002 -2.972709 -0.826247 0
M  V30 8 C 1.112099 -2.492574 -1.135397 0
M  V30 9 C 1.050255 -1.115167 -0.885755 0
M  V30 10 C 2.345390 -0.857072 -0.426827 0
M  V30 11 O 3.083150 -1.922984 -0.402512 0
M  V30 12 C 2.780452 0.477606 -0.028800 0
M  V30 13 N 4.051456 0.907891 -0.080679 0
M  V30 14 C 4.083881 2.182773 0.354557 0
M  V30 15 C 2.786737 2.585164 0.698216 0
M  V30 16 N 2.040428 1.498994 0.441144 0
M  V30 17 C 0.635826 1.511772 0.670502 0
M  V30 18 C 0.295966 2.403367 1.674538 0
M  V30 19 C -1.070197 2.493007 1.976591 0
M  V30 20 C -2.063508 1.772022 1.356419 0
M  V30 21 N -3.412336 1.912236 1.704585 0
M  V30 22 C -3.974336 2.838129 2.637136 0
M  V30 23 C -4.399534 2.063466 3.845214 0
M  V30 24 N -4.976181 0.800316 3.605410 0
M  V30 25 C -5.178109 0.372461 2.282116 0
M  V30 26 C -4.502774 1.126284 1.180939 0
M  V30 27 C -1.641829 0.919590 0.382416 0
M  V30 28 C -0.317893 0.741948 -0.007334 0
M  V30 29 C -0.139294 -0.254950 -1.095105 0
M  V30 30 C 2.001184 -5.301805 -1.404173 0
M  V30 31 C 2.496008 -6.586537 -1.499205 0
M  V30 32 H 5.625246 -6.158609 -0.428423 0
M  V30 33 H 4.853647 -3.821695 -0.215031 0
M  V30 34 H 0.281074 -3.073688 -1.510995 0
M  V30 35 H 4.990848 2.777550 0.416895 0
M  V30 36 H 2.529657 3.563512 1.072722 0
M  V30 37 H 1.030267 2.992952 2.202309 0
M  V30 38 H -1.261730 3.204010 2.768180 0
M  V30 39 H -4.802465 3.414984 2.173143 0
M  V30 40 H -3.206374 3.584779 2.911970 0
M  V30 41 H -3.495782 1.936202 4.487876 0
M  V30 42 H -5.099796 2.697640 4.428068 0
M  V30 43 H -4.624936 0.044038 4.246319 0
M  V30 44 H -6.263839 0.327313 2.057301 0
M  V30 45 H -4.842520 -0.698445 2.194563 0
M  V30 46 H -5.258298 1.821980 0.705759 0
M  V30 47 H -4.215383 0.449913 0.353703 0
M  V30 48 H -2.310753 0.291929 -0.187257 0
M  V30 49 H -0.113534 0.235539 -2.088058 0
M  V30 50 H -1.028037 -0.914330 -1.072056 0
M  V30 51 H 0.990479 -5.026448 -1.669181 0
M  V30 52 H 1.799058 -7.333488 -1.865050 0
M  V30 END ATOM
M  V30 BEGIN BOND
M  V30 1 3 1 2
M  V30 2 1 2 3
M  V30 3 2 3 4
M  V30 4 1 4 5
M  V30 5 2 5 6
M  V30 6 1 6 7
M  V30 7 2 7 8
M  V30 8 1 8 9
M  V30 9 2 9 10
M  V30 10 1 10 11
M  V30 11 1 10 12
M  V30 12 2 12 13
M  V30 13 1 13 14
M  V30 14 2 14 15
M  V30 15 1 15 16
M  V30 16 1 16 17
M  V30 17 2 17 18
M  V30 18 1 18 19
M  V30 19 2 19 20
M  V30 20 1 20 21
M  V30 21 1 21 22
M  V30 22 1 22 23
M  V30 23 1 23 24
M  V30 24 1 24 25
M  V30 25 1 25 26
M  V30 26 1 20 27
M  V30 27 2 27 28
M  V30 28 1 28 29
M  V30 29 1 6 30
M  V30 30 2 30 31
M  V30 31 1 31 3
M  V30 32 1 11 7
M  V30 33 1 16 12
M  V30 34 1 28 17
M  V30 35 1 29 9
M  V30 36 1 26 21
M  V30 37 1 4 32
M  V30 38 1 5 33
M  V30 39 1 8 34
M  V30 40 1 14 35
M  V30 41 1 15 36
M  V30 42 1 18 37
M  V30 43 1 19 38
M  V30 44 1 22 39
M  V30 45 1 22 40
M  V30 46 1 23 41
M  V30 47 1 23 42
M  V30 48 1 24 43
M  V30 49 1 25 44
M  V30 50 1 25 45
M  V30 51 1 26 46
M  V30 52 1 26 47
M  V30 53 1 27 48
M  V30 54 1 29 49
M  V30 55 1 29 50
M  V30 56 1 30 51
M  V30 57 1 31 52
M  V30 END BOND
M  V30 END CTAB
M  END
>  <Dataset>  (984) 
ChEMBL_Kinases

>  <Ligand_Instance>  (984) 
nan

>  <PDB_ID>  (984) 
nan

>  <Standardized_SMILES>  (984) 
N#Cc1ccc(-c2cc3c(o2)-c2nccn2-c2ccc(N4CCNCC4)cc2C3)cc1

>  <Name>  (984) 
nan

>  <Pocket>  (984) 
nan

>  <ATP_Site>  (984) 
nan

>  <Peripheral>  (984) 
nan

>  <Num_H_Atoms_ProtBoundConf>  (984) 
nan

>  <Num_Resolved_Atoms>  (984) 
nan

>  <Num_Not_Resolved_Atoms>  (984) 
nan

$$$$
CHEMBL1938684
     RDKit          3D

  0  0  0  0  0  0  0  0  0  0999 V3000
M  V30 BEGIN CTAB
M  V30 COUNTS 51 56 0 0 0
M  V30 BEGIN ATOM
M  V30 1 Cl 6.036133 -7.974209 -0.997257 0
M  V30 2 C 5.104883 -6.492154 -0.870525 0
M  V30 3 C 3.741088 -6.472938 -1.167387 0
M  V30 4 C 3.087909 -5.263311 -1.040311 0
M  V30 5 C 3.772715 -4.136311 -0.636298 0
M  V30 6 C 3.049860 -2.872893 -0.512536 0
M  V30 7 C 1.686837 -2.674404 -0.768630 0
M  V30 8 C 1.352231 -1.333296 -0.541880 0
M  V30 9 C 2.585670 -0.799704 -0.150246 0
M  V30 10 O 3.531824 -1.705454 -0.144597 0
M  V30 11 C 2.773161 0.601493 0.205092 0
M  V30 12 N 3.946603 1.261852 0.088154 0
M  V30 13 C 3.757663 2.550949 0.503941 0
M  V30 14 C 2.417921 2.688119 0.891014 0
M  V30 15 N 1.871605 1.476432 0.688577 0
M  V30 16 C 0.501294 1.222566 0.975478 0
M  V30 17 C 0.055582 2.080167 1.975500 0
M  V30 18 C -1.284084 1.926092 2.342855 0
M  V30 19 C -2.137265 1.004034 1.781381 0
M  V30 20 N -3.492576 0.892079 2.185061 0
M  V30 21 C -4.183909 1.789797 3.080492 0
M  V30 22 C -5.398800 2.371876 2.401794 0
M  V30 23 N -5.660783 1.880379 1.102046 0
M  V30 24 C -5.430108 0.507070 0.870293 0
M  V30 25 C -4.405757 -0.146305 1.767331 0
M  V30 26 C -1.626843 0.189829 0.798680 0
M  V30 27 C -0.304241 0.273152 0.369559 0
M  V30 28 C 0.017853 -0.708502 -0.697729 0
M  V30 29 C 5.121068 -4.145681 -0.340639 0
M  V30 30 C 5.778278 -5.355790 -0.466935 0
M  V30 31 H 3.266307 -7.386712 -1.477190 0
M  V30 32 H 2.025881 -5.204397 -1.261637 0
M  V30 33 H 0.954965 -3.419778 -1.097081 0
M  V30 34 H 4.544972 3.279445 0.506643 0
M  V30 35 H 2.009649 3.615892 1.257023 0
M  V30 36 H 0.677104 2.819635 2.458446 0
M  V30 37 H -1.591786 2.608400 3.121584 0
M  V30 38 H -4.512698 1.157353 3.958192 0
M  V30 39 H -3.538513 2.559804 3.533909 0
M  V30 40 H -6.285217 2.295451 3.060501 0
M  V30 41 H -5.195639 3.478538 2.309479 0
M  V30 42 H -5.484929 2.514124 0.308297 0
M  V30 43 H -6.403010 -0.033441 0.986714 0
M  V30 44 H -5.107502 0.299889 -0.171679 0
M  V30 45 H -3.867436 -0.947177 1.266457 0
M  V30 46 H -4.963484 -0.541549 2.660481 0
M  V30 47 H -2.188514 -0.566872 0.280497 0
M  V30 48 H -0.048678 -0.208558 -1.704204 0
M  V30 49 H -0.735982 -1.502726 -0.700610 0
M  V30 50 H 5.590449 -3.227651 -0.031080 0
M  V30 51 H 6.835953 -5.351311 -0.232363 0
M  V30 END ATOM
M  V30 BEGIN BOND
M  V30 1 1 1 2
M  V30 2 2 2 3
M  V30 3 1 3 4
M  V30 4 2 4 5
M  V30 5 1 5 6
M  V30 6 2 6 7
M  V30 7 1 7 8
M  V30 8 2 8 9
M  V30 9 1 9 10
M  V30 10 1 9 11
M  V30 11 2 11 12
M  V30 12 1 12 13
M  V30 13 2 13 14
M  V30 14 1 14 15
M  V30 15 1 15 16
M  V30 16 2 16 17
M  V30 17 1 17 18
M  V30 18 2 18 19
M  V30 19 1 19 20
M  V30 20 1 20 21
M  V30 21 1 21 22
M  V30 22 1 22 23
M  V30 23 1 23 24
M  V30 24 1 24 25
M  V30 25 1 19 26
M  V30 26 2 26 27
M  V30 27 1 27 28
M  V30 28 1 5 29
M  V30 29 2 29 30
M  V30 30 1 30 2
M  V30 31 1 10 6
M  V30 32 1 15 11
M  V30 33 1 27 16
M  V30 34 1 28 8
M  V30 35 1 25 20
M  V30 36 1 3 31
M  V30 37 1 4 32
M  V30 38 1 7 33
M  V30 39 1 13 34
M  V30 40 1 14 35
M  V30 41 1 17 36
M  V30 42 1 18 37
M  V30 43 1 21 38
M  V30 44 1 21 39
M  V30 45 1 22 40
M  V30 46 1 22 41
M  V30 47 1 23 42
M  V30 48 1 24 43
M  V30 49 1 24 44
M  V30 50 1 25 45
M  V30 51 1 25 46
M  V30 52 1 26 47
M  V30 53 1 28 48
M  V30 54 1 28 49
M  V30 55 1 29 50
M  V30 56 1 30 51
M  V30 END BOND
M  V30 END CTAB
M  END
>  <Dataset>  (985) 
ChEMBL_Kinases

>  <Ligand_Instance>  (985) 
nan

>  <PDB_ID>  (985) 
nan

>  <Standardized_SMILES>  (985) 
Clc1ccc(-c2cc3c(o2)-c2nccn2-c2ccc(N4CCNCC4)cc2C3)cc1

>  <Name>  (985) 
nan

>  <Pocket>  (985) 
nan

>  <ATP_Site>  (985) 
nan

>  <Peripheral>  (985) 
nan

>  <Num_H_Atoms_ProtBoundConf>  (985) 
nan

>  <Num_Resolved_Atoms>  (985) 
nan

>  <Num_Not_Resolved_Atoms>  (985) 
nan

$$$$
CHEMBL1938683
     RDKit          3D

  0  0  0  0  0  0  0  0  0  0999 V3000
M  V30 BEGIN CTAB
M  V30 COUNTS 49 53 0 0 0
M  V30 BEGIN ATOM
M  V30 1 N 0.264369 -9.037141 -5.219399 0
M  V30 2 C 0.175295 -7.975108 -4.729834 0
M  V30 3 C 0.085227 -6.676866 -4.120154 0
M  V30 4 C 0.787653 -5.633084 -4.696148 0
M  V30 5 C 0.705402 -4.370129 -4.110408 0
M  V30 6 C -0.069918 -4.205023 -2.981773 0
M  V30 7 C -0.136438 -2.871291 -2.390616 0
M  V30 8 C -0.825288 -2.431290 -1.278558 0
M  V30 9 C -0.587601 -1.064035 -1.093066 0
M  V30 10 C 0.256620 -0.762432 -2.140883 0
M  V30 11 O 0.498861 -1.828673 -2.873497 0
M  V30 12 C 0.800451 0.590838 -2.381438 0
M  V30 13 O 1.157421 0.793559 -3.570333 0
M  V30 14 N 0.952202 1.658289 -1.411017 0
M  V30 15 C 0.592222 1.581946 -0.030799 0
M  V30 16 C 1.338187 2.533054 0.675927 0
M  V30 17 C 1.137556 2.621873 2.040610 0
M  V30 18 C 0.241060 1.816872 2.716694 0
M  V30 19 N 0.042223 1.912901 4.123416 0
M  V30 20 C -0.903083 1.147845 4.883540 0
M  V30 21 C -1.426993 2.066558 5.997019 0
M  V30 22 N -0.352697 2.259407 6.960522 0
M  V30 23 C 0.945994 2.219071 6.314614 0
M  V30 24 C 0.821976 2.834908 4.926491 0
M  V30 25 C -0.466533 0.897242 1.967537 0
M  V30 26 C -0.319859 0.746112 0.580815 0
M  V30 27 C -1.201165 -0.312693 0.031410 0
M  V30 28 C -0.750725 -5.278133 -2.446520 0
M  V30 29 C -0.709398 -6.549420 -2.979041 0
M  V30 30 H 1.369288 -5.826935 -5.568941 0
M  V30 31 H 1.277089 -3.598964 -4.608446 0
M  V30 32 H -1.450896 -3.073298 -0.658917 0
M  V30 33 H 1.357863 2.527318 -1.790744 0
M  V30 34 H 2.041358 3.166476 0.154171 0
M  V30 35 H 1.726352 3.364815 2.557156 0
M  V30 36 H -0.397116 0.306602 5.417139 0
M  V30 37 H -1.738004 0.737139 4.291589 0
M  V30 38 H -1.687336 3.032614 5.528032 0
M  V30 39 H -2.289129 1.562119 6.482586 0
M  V30 40 H -0.457177 3.200737 7.402615 0
M  V30 41 H 1.346385 1.199904 6.233146 0
M  V30 42 H 1.629719 2.840503 6.895180 0
M  V30 43 H 0.360826 3.825027 4.952804 0
M  V30 44 H 1.856885 2.955830 4.538518 0
M  V30 45 H -1.184322 0.229284 2.405901 0
M  V30 46 H -2.072876 0.241354 -0.419865 0
M  V30 47 H -1.565623 -1.006292 0.790979 0
M  V30 48 H -1.349373 -5.087961 -1.551306 0
M  V30 49 H -1.234029 -7.388879 -2.571106 0
M  V30 END ATOM
M  V30 BEGIN BOND
M  V30 1 3 1 2
M  V30 2 1 2 3
M  V30 3 2 3 4
M  V30 4 1 4 5
M  V30 5 2 5 6
M  V30 6 1 6 7
M  V30 7 2 7 8
M  V30 8 1 8 9
M  V30 9 2 9 10
M  V30 10 1 10 11
M  V30 11 1 10 12
M  V30 12 2 12 13
M  V30 13 1 12 14
M  V30 14 1 14 15
M  V30 15 2 15 16
M  V30 16 1 16 17
M  V30 17 2 17 18
M  V30 18 1 18 19
M  V30 19 1 19 20
M  V30 20 1 20 21
M  V30 21 1 21 22
M  V30 22 1 22 23
M  V30 23 1 23 24
M  V30 24 1 18 25
M  V30 25 2 25 26
M  V30 26 1 26 27
M  V30 27 1 6 28
M  V30 28 2 28 29
M  V30 29 1 29 3
M  V30 30 1 11 7
M  V30 31 1 26 15
M  V30 32 1 27 9
M  V30 33 1 24 19
M  V30 34 1 4 30
M  V30 35 1 5 31
M  V30 36 1 8 32
M  V30 37 1 14 33
M  V30 38 1 16 34
M  V30 39 1 17 35
M  V30 40 1 20 36
M  V30 41 1 20 37
M  V30 42 1 21 38
M  V30 43 1 21 39
M  V30 44 1 22 40
M  V30 45 1 23 41
M  V30 46 1 23 42
M  V30 47 1 24 43
M  V30 48 1 24 44
M  V30 49 1 25 45
M  V30 50 1 27 46
M  V30 51 1 27 47
M  V30 52 1 28 48
M  V30 53 1 29 49
M  V30 END BOND
M  V30 END CTAB
M  END
>  <Dataset>  (986) 
ChEMBL_Kinases

>  <Ligand_Instance>  (986) 
nan

>  <PDB_ID>  (986) 
nan

>  <Standardized_SMILES>  (986) 
N#Cc1ccc(-c2cc3c(o2)C(=O)Nc2ccc(N4CCNCC4)cc2C3)cc1

>  <Name>  (986) 
nan

>  <Pocket>  (986) 
nan

>  <ATP_Site>  (986) 
nan

>  <Peripheral>  (986) 
nan

>  <Num_H_Atoms_ProtBoundConf>  (986) 
nan

>  <Num_Resolved_Atoms>  (986) 
nan

>  <Num_Not_Resolved_Atoms>  (986) 
nan

$$$$
CHEMBL1938682
     RDKit          3D

  0  0  0  0  0  0  0  0  0  0999 V3000
M  V30 BEGIN CTAB
M  V30 COUNTS 48 52 0 0 0
M  V30 BEGIN ATOM
M  V30 1 O -0.156528 -3.562770 4.088729 0
M  V30 2 C -0.014163 -2.720993 3.180536 0
M  V30 3 N 0.887481 -1.628841 3.455711 0
M  V30 4 C 1.114914 -0.525298 2.582883 0
M  V30 5 C 1.531106 0.582296 3.293468 0
M  V30 6 C 1.804532 1.759659 2.629124 0
M  V30 7 C 1.684800 1.900763 1.268627 0
M  V30 8 N 1.965207 3.111346 0.587021 0
M  V30 9 C 1.886075 3.319085 -0.844365 0
M  V30 10 C 3.284343 3.690821 -1.284717 0
M  V30 11 N 4.237881 3.691631 -0.222574 0
M  V30 12 C 3.863854 4.468485 0.915973 0
M  V30 13 C 2.378036 4.319483 1.268070 0
M  V30 14 C 1.268090 0.776985 0.593714 0
M  V30 15 C 0.973331 -0.450206 1.203768 0
M  V30 16 C 0.550285 -1.480355 0.220893 0
M  V30 17 C -0.483498 -2.408814 0.741710 0
M  V30 18 C -1.477484 -2.935986 -0.094585 0
M  V30 19 C -2.308617 -3.767831 0.629981 0
M  V30 20 C -3.467194 -4.519053 0.153063 0
M  V30 21 C -4.159453 -5.295299 1.060659 0
M  V30 22 C -5.264066 -6.027827 0.665137 0
M  V30 23 C -5.671627 -5.971443 -0.670822 0
M  V30 24 Cl -7.052840 -6.868931 -1.232804 0
M  V30 25 C -4.926558 -5.172864 -1.513281 0
M  V30 26 C -3.815011 -4.418848 -1.176805 0
M  V30 27 O -1.846835 -3.757623 1.873175 0
M  V30 28 C -0.801094 -2.985541 1.961349 0
M  V30 29 H 1.412504 -1.642980 4.356315 0
M  V30 30 H 1.632409 0.494035 4.366197 0
M  V30 31 H 2.118923 2.558114 3.252740 0
M  V30 32 H 1.202998 4.207426 -0.991603 0
M  V30 33 H 1.435724 2.514874 -1.414779 0
M  V30 34 H 3.594856 2.854255 -1.975130 0
M  V30 35 H 3.267636 4.611732 -1.869118 0
M  V30 36 H 4.597122 2.740033 -0.013464 0
M  V30 37 H 4.395587 4.154750 1.838180 0
M  V30 38 H 4.119229 5.536998 0.750605 0
M  V30 39 H 1.863083 5.216276 0.814862 0
M  V30 40 H 2.207047 4.343185 2.337756 0
M  V30 41 H 1.139334 0.765449 -0.461778 0
M  V30 42 H 1.473665 -2.018450 -0.079718 0
M  V30 43 H 0.109866 -0.932590 -0.647452 0
M  V30 44 H -1.590183 -2.732161 -1.149151 0
M  V30 45 H -3.861798 -5.354422 2.101750 0
M  V30 46 H -5.790799 -6.624362 1.377205 0
M  V30 47 H -5.276380 -5.155619 -2.546468 0
M  V30 48 H -3.291765 -3.825786 -1.885863 0
M  V30 END ATOM
M  V30 BEGIN BOND
M  V30 1 2 1 2
M  V30 2 1 2 3
M  V30 3 1 3 4
M  V30 4 2 4 5
M  V30 5 1 5 6
M  V30 6 2 6 7
M  V30 7 1 7 8
M  V30 8 1 8 9
M  V30 9 1 9 10
M  V30 10 1 10 11
M  V30 11 1 11 12
M  V30 12 1 12 13
M  V30 13 1 7 14
M  V30 14 2 14 15
M  V30 15 1 15 16
M  V30 16 1 16 17
M  V30 17 1 17 18
M  V30 18 2 18 19
M  V30 19 1 19 20
M  V30 20 2 20 21
M  V30 21 1 21 22
M  V30 22 2 22 23
M  V30 23 1 23 24
M  V30 24 1 23 25
M  V30 25 2 25 26
M  V30 26 1 19 27
M  V30 27 1 27 28
M  V30 28 1 28 2
M  V30 29 1 15 4
M  V30 30 2 28 17
M  V30 31 1 13 8
M  V30 32 1 26 20
M  V30 33 1 3 29
M  V30 34 1 5 30
M  V30 35 1 6 31
M  V30 36 1 9 32
M  V30 37 1 9 33
M  V30 38 1 10 34
M  V30 39 1 10 35
M  V30 40 1 11 36
M  V30 41 1 12 37
M  V30 42 1 12 38
M  V30 43 1 13 39
M  V30 44 1 13 40
M  V30 45 1 14 41
M  V30 46 1 16 42
M  V30 47 1 16 43
M  V30 48 1 18 44
M  V30 49 1 21 45
M  V30 50 1 22 46
M  V30 51 1 25 47
M  V30 52 1 26 48
M  V30 END BOND
M  V30 END CTAB
M  END
>  <Dataset>  (987) 
ChEMBL_Kinases

>  <Ligand_Instance>  (987) 
nan

>  <PDB_ID>  (987) 
nan

>  <Standardized_SMILES>  (987) 
O=C1Nc2ccc(N3CCNCC3)cc2Cc2cc(-c3ccc(Cl)cc3)oc21

>  <Name>  (987) 
nan

>  <Pocket>  (987) 
nan

>  <ATP_Site>  (987) 
nan

>  <Peripheral>  (987) 
nan

>  <Num_H_Atoms_ProtBoundConf>  (987) 
nan

>  <Num_Resolved_Atoms>  (987) 
nan

>  <Num_Not_Resolved_Atoms>  (987) 
nan

$$$$
CHEMBL1938681
     RDKit          3D

  0  0  0  0  0  0  0  0  0  0999 V3000
M  V30 BEGIN CTAB
M  V30 COUNTS 59 63 0 0 0
M  V30 BEGIN ATOM
M  V30 1 O 0.886579 0.506530 4.810630 0
M  V30 2 C 0.995584 -0.109919 3.728182 0
M  V30 3 C 2.150527 -0.193928 2.814424 0
M  V30 4 C 3.200220 -1.038844 2.523626 0
M  V30 5 C 3.888055 -0.418499 1.504331 0
M  V30 6 C 3.258697 0.764017 1.201837 0
M  V30 7 C 3.658345 1.735980 0.179268 0
M  V30 8 C 2.914443 2.890795 0.024502 0
M  V30 9 C 3.322424 3.779294 -0.957596 0
M  V30 10 C 4.434920 3.552465 -1.777672 0
M  V30 11 Cl 4.986635 4.633522 -3.016117 0
M  V30 12 C 5.149580 2.381392 -1.586502 0
M  V30 13 C 4.761126 1.464575 -0.602107 0
M  V30 14 O 2.231948 0.843826 2.014071 0
M  V30 15 N -0.148533 -0.864205 3.261454 0
M  V30 16 C -1.388729 -0.858592 4.005276 0
M  V30 17 C -2.310547 0.222732 3.548338 0
M  V30 18 C -2.397507 1.521594 4.066816 0
M  V30 19 C -3.310208 2.390950 3.512850 0
M  V30 20 C -4.084718 1.923441 2.476098 0
M  V30 21 C -4.001934 0.645794 1.962906 0
M  V30 22 N -3.108609 -0.172520 2.520329 0
M  V30 23 C -0.300589 -1.694247 2.087488 0
M  V30 24 C -0.115642 -3.055883 2.042468 0
M  V30 25 C -0.294285 -3.706297 0.849951 0
M  V30 26 C -0.650377 -3.042096 -0.297187 0
M  V30 27 N -0.872762 -3.677557 -1.548780 0
M  V30 28 C -1.304400 -5.033699 -1.844845 0
M  V30 29 C -2.620520 -4.886703 -2.579170 0
M  V30 30 N -3.016567 -3.507822 -2.787203 0
M  V30 31 C -1.977707 -2.699431 -3.396179 0
M  V30 32 C -0.634002 -2.928954 -2.793000 0
M  V30 33 C -0.839440 -1.655015 -0.258283 0
M  V30 34 C -0.659193 -0.996422 0.948952 0
M  V30 35 H 3.261502 -1.937274 3.105544 0
M  V30 36 H 4.771423 -0.873228 1.079669 0
M  V30 37 H 2.036066 3.119704 0.638149 0
M  V30 38 H 2.774359 4.714282 -1.127774 0
M  V30 39 H 6.038013 2.102043 -2.174710 0
M  V30 40 H 5.338310 0.560349 -0.478552 0
M  V30 41 H -1.895129 -1.837540 4.003568 0
M  V30 42 H -1.094834 -0.608434 5.067587 0
M  V30 43 H -1.693162 1.680275 4.884040 0
M  V30 44 H -3.306095 3.349553 3.968656 0
M  V30 45 H -4.780697 2.651696 2.080633 0
M  V30 46 H -4.636069 0.322228 1.141770 0
M  V30 47 H 0.161711 -3.529814 2.964023 0
M  V30 48 H -0.149165 -4.784740 0.808841 0
M  V30 49 H -1.349107 -5.693670 -0.964029 0
M  V30 50 H -0.569206 -5.470678 -2.563586 0
M  V30 51 H -3.408087 -5.313694 -1.899564 0
M  V30 52 H -2.644196 -5.499706 -3.499935 0
M  V30 53 H -3.788554 -3.539330 -3.523551 0
M  V30 54 H -1.954560 -2.838679 -4.517286 0
M  V30 55 H -2.254329 -1.636737 -3.235437 0
M  V30 56 H -0.051367 -3.573859 -3.515328 0
M  V30 57 H -0.005445 -2.036663 -2.644329 0
M  V30 58 H -1.117893 -1.127237 -1.154848 0
M  V30 59 H -0.817433 0.069941 0.926837 0
M  V30 END ATOM
M  V30 BEGIN BOND
M  V30 1 2 1 2
M  V30 2 1 2 3
M  V30 3 2 3 4
M  V30 4 1 4 5
M  V30 5 2 5 6
M  V30 6 1 6 7
M  V30 7 2 7 8
M  V30 8 1 8 9
M  V30 9 2 9 10
M  V30 10 1 10 11
M  V30 11 1 10 12
M  V30 12 2 12 13
M  V30 13 1 6 14
M  V30 14 1 2 15
M  V30 15 1 15 16
M  V30 16 1 16 17
M  V30 17 2 17 18
M  V30 18 1 18 19
M  V30 19 2 19 20
M  V30 20 1 20 21
M  V30 21 2 21 22
M  V30 22 1 15 23
M  V30 23 2 23 24
M  V30 24 1 24 25
M  V30 25 2 25 26
M  V30 26 1 26 27
M  V30 27 1 27 28
M  V30 28 1 28 29
M  V30 29 1 29 30
M  V30 30 1 30 31
M  V30 31 1 31 32
M  V30 32 1 26 33
M  V30 33 2 33 34
M  V30 34 1 14 3
M  V30 35 1 22 17
M  V30 36 1 34 23
M  V30 37 1 13 7
M  V30 38 1 32 27
M  V30 39 1 4 35
M  V30 40 1 5 36
M  V30 41 1 8 37
M  V30 42 1 9 38
M  V30 43 1 12 39
M  V30 44 1 13 40
M  V30 45 1 16 41
M  V30 46 1 16 42
M  V30 47 1 18 43
M  V30 48 1 19 44
M  V30 49 1 20 45
M  V30 50 1 21 46
M  V30 51 1 24 47
M  V30 52 1 25 48
M  V30 53 1 28 49
M  V30 54 1 28 50
M  V30 55 1 29 51
M  V30 56 1 29 52
M  V30 57 1 30 53
M  V30 58 1 31 54
M  V30 59 1 31 55
M  V30 60 1 32 56
M  V30 61 1 32 57
M  V30 62 1 33 58
M  V30 63 1 34 59
M  V30 END BOND
M  V30 END CTAB
M  END
>  <Dataset>  (988) 
ChEMBL_Kinases

>  <Ligand_Instance>  (988) 
nan

>  <PDB_ID>  (988) 
nan

>  <Standardized_SMILES>  (988) 
O=C(c1ccc(-c2ccc(Cl)cc2)o1)N(Cc1ccccn1)c1ccc(N2CCNCC2)cc1

>  <Name>  (988) 
nan

>  <Pocket>  (988) 
nan

>  <ATP_Site>  (988) 
nan

>  <Peripheral>  (988) 
nan

>  <Num_H_Atoms_ProtBoundConf>  (988) 
nan

>  <Num_Resolved_Atoms>  (988) 
nan

>  <Num_Not_Resolved_Atoms>  (988) 
nan

$$$$
CHEMBL1938680
     RDKit          3D

  0  0  0  0  0  0  0  0  0  0999 V3000
M  V30 BEGIN CTAB
M  V30 COUNTS 47 50 0 0 0
M  V30 BEGIN ATOM
M  V30 1 O 0.541613 -2.372761 3.436155 0
M  V30 2 C -0.088083 -2.382526 2.347355 0
M  V30 3 N -0.050538 -1.291503 1.447420 0
M  V30 4 C 0.616092 -0.042932 1.505727 0
M  V30 5 C 0.071989 1.086314 2.063626 0
M  V30 6 C 0.775431 2.272678 2.087426 0
M  V30 7 C 2.040118 2.413979 1.569591 0
M  V30 8 N 2.749587 3.639111 1.602731 0
M  V30 9 C 2.296456 4.887078 2.180867 0
M  V30 10 C 2.171294 5.924492 1.090755 0
M  V30 11 N 2.678012 5.443529 -0.176662 0
M  V30 12 C 3.949574 4.797389 -0.110693 0
M  V30 13 C 4.065815 3.863842 1.056555 0
M  V30 14 C 2.584186 1.282560 1.010950 0
M  V30 15 C 1.888212 0.090024 0.982217 0
M  V30 16 C -0.879327 -3.566795 2.016426 0
M  V30 17 C -0.971216 -4.664079 2.812535 0
M  V30 18 C -1.814305 -5.538376 2.123317 0
M  V30 19 C -2.185573 -4.920003 0.947439 0
M  V30 20 C -3.057387 -5.424682 -0.112063 0
M  V30 21 C -3.285832 -4.616034 -1.205456 0
M  V30 22 C -4.104045 -5.091683 -2.195253 0
M  V30 23 C -4.673518 -6.346780 -2.082351 0
M  V30 24 Cl -5.731727 -6.993915 -3.332374 0
M  V30 25 C -4.457116 -7.172558 -0.994949 0
M  V30 26 C -3.626318 -6.685033 0.006217 0
M  V30 27 O -1.603477 -3.738904 0.921135 0
M  V30 28 H -0.598218 -1.364701 0.556313 0
M  V30 29 H -0.921932 0.994512 2.476138 0
M  V30 30 H 0.245254 3.090483 2.550814 0
M  V30 31 H 3.059310 5.293344 2.896767 0
M  V30 32 H 1.323988 4.776626 2.693004 0
M  V30 33 H 2.612201 6.897041 1.385227 0
M  V30 34 H 1.093483 6.129979 0.929762 0
M  V30 35 H 1.954351 4.887403 -0.694609 0
M  V30 36 H 4.788381 5.522637 -0.065510 0
M  V30 37 H 4.087547 4.272768 -1.087587 0
M  V30 38 H 4.606291 2.941050 0.767377 0
M  V30 39 H 4.732734 4.346403 1.815960 0
M  V30 40 H 3.556713 1.244565 0.570760 0
M  V30 41 H 2.319602 -0.808199 0.539225 0
M  V30 42 H -0.500472 -4.839132 3.773923 0
M  V30 43 H -2.129569 -6.532929 2.446050 0
M  V30 44 H -2.834502 -3.634969 -1.283036 0
M  V30 45 H -4.342494 -4.532773 -3.089231 0
M  V30 46 H -4.910848 -8.154518 -0.920382 0
M  V30 47 H -3.451650 -7.326292 0.861989 0
M  V30 END ATOM
M  V30 BEGIN BOND
M  V30 1 2 1 2
M  V30 2 1 2 3
M  V30 3 1 3 4
M  V30 4 2 4 5
M  V30 5 1 5 6
M  V30 6 2 6 7
M  V30 7 1 7 8
M  V30 8 1 8 9
M  V30 9 1 9 10
M  V30 10 1 10 11
M  V30 11 1 11 12
M  V30 12 1 12 13
M  V30 13 1 7 14
M  V30 14 2 14 15
M  V30 15 1 2 16
M  V30 16 2 16 17
M  V30 17 1 17 18
M  V30 18 2 18 19
M  V30 19 1 19 20
M  V30 20 2 20 21
M  V30 21 1 21 22
M  V30 22 2 22 23
M  V30 23 1 23 24
M  V30 24 1 23 25
M  V30 25 2 25 26
M  V30 26 1 19 27
M  V30 27 1 15 4
M  V30 28 1 27 16
M  V30 29 1 13 8
M  V30 30 1 26 20
M  V30 31 1 3 28
M  V30 32 1 5 29
M  V30 33 1 6 30
M  V30 34 1 9 31
M  V30 35 1 9 32
M  V30 36 1 10 33
M  V30 37 1 10 34
M  V30 38 1 11 35
M  V30 39 1 12 36
M  V30 40 1 12 37
M  V30 41 1 13 38
M  V30 42 1 13 39
M  V30 43 1 14 40
M  V30 44 1 15 41
M  V30 45 1 17 42
M  V30 46 1 18 43
M  V30 47 1 21 44
M  V30 48 1 22 45
M  V30 49 1 25 46
M  V30 50 1 26 47
M  V30 END BOND
M  V30 END CTAB
M  END
>  <Dataset>  (989) 
ChEMBL_Kinases

>  <Ligand_Instance>  (989) 
nan

>  <PDB_ID>  (989) 
nan

>  <Standardized_SMILES>  (989) 
O=C(Nc1ccc(N2CCNCC2)cc1)c1ccc(-c2ccc(Cl)cc2)o1

>  <Name>  (989) 
nan

>  <Pocket>  (989) 
nan

>  <ATP_Site>  (989) 
nan

>  <Peripheral>  (989) 
nan

>  <Num_H_Atoms_ProtBoundConf>  (989) 
nan

>  <Num_Resolved_Atoms>  (989) 
nan

>  <Num_Not_Resolved_Atoms>  (989) 
nan

$$$$
CHEMBL193860
     RDKit          3D

  0  0  0  0  0  0  0  0  0  0999 V3000
M  V30 BEGIN CTAB
M  V30 COUNTS 45 48 0 0 0
M  V30 BEGIN ATOM
M  V30 1 F 2.611512 -2.292659 4.511656 0
M  V30 2 C 3.087934 -2.875169 3.352293 0
M  V30 3 F 2.416151 -4.058597 3.174934 0
M  V30 4 F 4.407032 -3.197916 3.588670 0
M  V30 5 C 3.021921 -1.965217 2.196740 0
M  V30 6 C 4.168224 -1.614239 1.518875 0
M  V30 7 N 4.088613 -0.789126 0.474668 0
M  V30 8 C 2.963596 -0.264374 0.023322 0
M  V30 9 N 2.981385 0.604812 -1.097152 0
M  V30 10 C 1.918572 1.280297 -1.751717 0
M  V30 11 C 2.159959 2.087661 -2.842863 0
M  V30 12 C 1.163204 2.758661 -3.504628 0
M  V30 13 C -0.149124 2.655857 -3.103365 0
M  V30 14 N -1.294980 3.192949 -3.561815 0
M  V30 15 C -2.313029 2.747008 -2.778018 0
M  V30 16 N -1.775197 1.928629 -1.832162 0
M  V30 17 C -0.444065 1.860067 -2.016202 0
M  V30 18 C 0.600338 1.213754 -1.396041 0
M  V30 19 N 1.854591 -0.613450 0.691305 0
M  V30 20 C 1.820190 -1.430910 1.748255 0
M  V30 21 O 0.717637 -1.828317 2.477014 0
M  V30 22 C -0.556733 -1.348816 2.112791 0
M  V30 23 C -1.358699 -2.611466 1.765084 0
M  V30 24 C -1.690736 -3.245251 3.101387 0
M  V30 25 C -2.985212 -2.542072 3.532916 0
M  V30 26 C -2.744313 -1.062615 3.331356 0
M  V30 27 C -1.272652 -0.731034 3.301424 0
M  V30 28 H 5.144867 -1.965734 1.777012 0
M  V30 29 H 3.941981 0.785030 -1.521527 0
M  V30 30 H 3.178017 2.214635 -3.215111 0
M  V30 31 H 1.418646 3.378293 -4.356381 0
M  V30 32 H -1.361322 3.835448 -4.377184 0
M  V30 33 H -3.350380 3.017560 -2.914825 0
M  V30 34 H 0.302097 0.612245 -0.558733 0
M  V30 35 H -0.560098 -0.669980 1.241193 0
M  V30 36 H -2.270536 -2.334854 1.206695 0
M  V30 37 H -0.716945 -3.262286 1.139819 0
M  V30 38 H -0.943716 -3.006237 3.890507 0
M  V30 39 H -1.831993 -4.343869 3.038431 0
M  V30 40 H -3.313913 -2.822244 4.532418 0
M  V30 41 H -3.740503 -2.844796 2.750900 0
M  V30 42 H -3.287581 -0.651799 2.464994 0
M  V30 43 H -3.151464 -0.546502 4.224189 0
M  V30 44 H -1.218833 0.376573 3.131934 0
M  V30 45 H -0.805609 -1.002956 4.247093 0
M  V30 END ATOM
M  V30 BEGIN BOND
M  V30 1 1 1 2
M  V30 2 1 2 3
M  V30 3 1 2 4
M  V30 4 1 2 5
M  V30 5 2 5 6
M  V30 6 1 6 7
M  V30 7 2 7 8
M  V30 8 1 8 9
M  V30 9 1 9 10
M  V30 10 2 10 11
M  V30 11 1 11 12
M  V30 12 2 12 13
M  V30 13 1 13 14
M  V30 14 1 14 15
M  V30 15 2 15 16
M  V30 16 1 16 17
M  V30 17 2 17 18
M  V30 18 1 8 19
M  V30 19 2 19 20
M  V30 20 1 20 21
M  V30 21 1 21 22
M  V30 22 1 22 23
M  V30 23 1 23 24
M  V30 24 1 24 25
M  V30 25 1 25 26
M  V30 26 1 26 27
M  V30 27 1 20 5
M  V30 28 1 27 22
M  V30 29 1 18 10
M  V30 30 1 17 13
M  V30 31 1 6 28
M  V30 32 1 9 29
M  V30 33 1 11 30
M  V30 34 1 12 31
M  V30 35 1 14 32
M  V30 36 1 15 33
M  V30 37 1 18 34
M  V30 38 1 22 35
M  V30 39 1 23 36
M  V30 40 1 23 37
M  V30 41 1 24 38
M  V30 42 1 24 39
M  V30 43 1 25 40
M  V30 44 1 25 41
M  V30 45 1 26 42
M  V30 46 1 26 43
M  V30 47 1 27 44
M  V30 48 1 27 45
M  V30 END BOND
M  V30 END CTAB
M  END
>  <Dataset>  (990) 
ChEMBL_Kinases

>  <Ligand_Instance>  (990) 
nan

>  <PDB_ID>  (990) 
nan

>  <Standardized_SMILES>  (990) 
FC(F)(F)c1cnc(Nc2ccc3[nH]cnc3c2)nc1OC1CCCCC1

>  <Name>  (990) 
nan

>  <Pocket>  (990) 
nan

>  <ATP_Site>  (990) 
nan

>  <Peripheral>  (990) 
nan

>  <Num_H_Atoms_ProtBoundConf>  (990) 
nan

>  <Num_Resolved_Atoms>  (990) 
nan

>  <Num_Not_Resolved_Atoms>  (990) 
nan

$$$$
CHEMBL1938419
     RDKit          3D

  0  0  0  0  0  0  0  0  0  0999 V3000
M  V30 BEGIN CTAB
M  V30 COUNTS 77 82 0 0 0
M  V30 BEGIN ATOM
M  V30 1 C -2.416813 -2.958213 1.172319 0
M  V30 2 C -0.962912 -2.953494 1.461214 0
M  V30 3 C -0.425038 -3.395824 2.648577 0
M  V30 4 C 0.950552 -3.341245 2.814786 0
M  V30 5 C 1.823503 -2.863361 1.844445 0
M  V30 6 C 1.255335 -2.428825 0.667937 0
M  V30 7 C 2.252514 -1.940308 -0.329112 0
M  V30 8 C -0.133124 -2.475544 0.481541 0
M  V30 9 C -0.476032 -1.958960 -0.843330 0
M  V30 10 C -0.449274 -2.767068 -1.958573 0
M  V30 11 C -0.727067 -2.169475 -3.163359 0
M  V30 12 C -1.021349 -0.837990 -3.306062 0
M  V30 13 C -1.030544 -0.095914 -2.149775 0
M  V30 14 C -0.770051 -0.584752 -0.880976 0
M  V30 15 C -0.791056 0.129345 0.413411 0
M  V30 16 N -0.537592 1.546014 0.308160 0
M  V30 17 C -1.658583 2.427057 0.147629 0
M  V30 18 O -1.644044 3.659809 0.025257 0
M  V30 19 C -3.015847 1.841776 0.121716 0
M  V30 20 C -4.111106 2.330808 0.793595 0
M  V30 21 C -5.201927 1.513174 0.524740 0
M  V30 22 C -4.722143 0.538100 -0.315408 0
M  V30 23 C -5.377454 -0.604188 -0.935290 0
M  V30 24 C -6.719341 -0.816992 -0.781050 0
M  V30 25 C -7.416405 -1.901115 -1.309067 0
M  V30 26 C -6.724097 -2.839814 -2.042119 0
M  V30 27 C -7.421201 -3.978671 -2.585167 0
M  V30 28 N -8.001957 -4.897101 -3.013231 0
M  V30 29 C -5.348312 -2.651305 -2.219699 0
M  V30 30 C -4.717216 -1.551796 -1.669366 0
M  V30 31 O -3.484200 0.806765 -0.485790 0
M  V30 32 C 0.880667 1.572819 0.417362 0
M  V30 33 C 1.259322 1.600500 1.768432 0
M  V30 34 C 2.600941 1.564294 2.179381 0
M  V30 35 C 3.517020 1.499324 1.155401 0
M  V30 36 N 4.904708 1.374109 1.448337 0
M  V30 37 C 5.466900 1.062077 2.775049 0
M  V30 38 C 5.917281 -0.409185 2.608033 0
M  V30 39 N 7.085977 -0.340126 1.767785 0
M  V30 40 C 6.882917 0.258227 0.487347 0
M  V30 41 C 6.032181 1.490761 0.546676 0
M  V30 42 C 3.178244 1.475283 -0.180772 0
M  V30 43 C 1.852463 1.512033 -0.560425 0
M  V30 44 H -2.912007 -2.518925 2.088008 0
M  V30 45 H -2.820722 -3.998225 1.021496 0
M  V30 46 H -2.635797 -2.325725 0.305871 0
M  V30 47 H -1.081684 -3.775735 3.429964 0
M  V30 48 H 1.344763 -3.707712 3.778435 0
M  V30 49 H 2.884363 -2.873594 2.095633 0
M  V30 50 H 3.067215 -1.380036 0.144053 0
M  V30 51 H 1.717980 -1.357918 -1.118749 0
M  V30 52 H 2.710956 -2.871029 -0.754228 0
M  V30 53 H -0.225291 -3.820198 -1.903961 0
M  V30 54 H -0.731445 -2.747304 -4.103123 0
M  V30 55 H -1.248969 -0.281048 -4.188746 0
M  V30 56 H -1.256109 0.982800 -2.157287 0
M  V30 57 H -1.842791 0.014009 0.830161 0
M  V30 58 H -0.082070 -0.381237 1.106135 0
M  V30 59 H -4.206369 3.191832 1.444214 0
M  V30 60 H -6.240128 1.533786 0.848625 0
M  V30 61 H -7.336588 -0.130960 -0.226559 0
M  V30 62 H -8.500341 -2.007124 -1.142946 0
M  V30 63 H -4.887060 -3.421857 -2.794370 0
M  V30 64 H -3.658065 -1.472731 -1.844214 0
M  V30 65 H 0.553009 1.655378 2.602089 0
M  V30 66 H 2.836213 1.589935 3.228637 0
M  V30 67 H 4.694216 1.068579 3.546078 0
M  V30 68 H 6.343351 1.664840 3.002052 0
M  V30 69 H 6.173095 -0.881110 3.548059 0
M  V30 70 H 5.097744 -0.919331 2.026396 0
M  V30 71 H 7.386966 -1.354235 1.635490 0
M  V30 72 H 6.552447 -0.486192 -0.266580 0
M  V30 73 H 7.906346 0.591251 0.139737 0
M  V30 74 H 5.734315 1.831512 -0.459154 0
M  V30 75 H 6.698744 2.304224 0.957335 0
M  V30 76 H 3.839405 1.427832 -1.012270 0
M  V30 77 H 1.430208 1.502254 -1.551166 0
M  V30 END ATOM
M  V30 BEGIN BOND
M  V30 1 1 1 2
M  V30 2 2 2 3
M  V30 3 1 3 4
M  V30 4 2 4 5
M  V30 5 1 5 6
M  V30 6 1 6 7
M  V30 7 2 6 8
M  V30 8 1 8 9
M  V30 9 2 9 10
M  V30 10 1 10 11
M  V30 11 2 11 12
M  V30 12 1 12 13
M  V30 13 2 13 14
M  V30 14 1 14 15
M  V30 15 1 15 16
M  V30 16 1 16 17
M  V30 17 2 17 18
M  V30 18 1 17 19
M  V30 19 2 19 20
M  V30 20 1 20 21
M  V30 21 2 21 22
M  V30 22 1 22 23
M  V30 23 2 23 24
M  V30 24 1 24 25
M  V30 25 2 25 26
M  V30 26 1 26 27
M  V30 27 3 27 28
M  V30 28 1 26 29
M  V30 29 2 29 30
M  V30 30 1 22 31
M  V30 31 1 16 32
M  V30 32 2 32 33
M  V30 33 1 33 34
M  V30 34 2 34 35
M  V30 35 1 35 36
M  V30 36 1 36 37
M  V30 37 1 37 38
M  V30 38 1 38 39
M  V30 39 1 39 40
M  V30 40 1 40 41
M  V30 41 1 35 42
M  V30 42 2 42 43
M  V30 43 1 8 2
M  V30 44 1 14 9
M  V30 45 1 31 19
M  V30 46 1 43 32
M  V30 47 1 30 23
M  V30 48 1 41 36
M  V30 49 1 1 44
M  V30 50 1 1 45
M  V30 51 1 1 46
M  V30 52 1 3 47
M  V30 53 1 4 48
M  V30 54 1 5 49
M  V30 55 1 7 50
M  V30 56 1 7 51
M  V30 57 1 7 52
M  V30 58 1 10 53
M  V30 59 1 11 54
M  V30 60 1 12 55
M  V30 61 1 13 56
M  V30 62 1 15 57
M  V30 63 1 15 58
M  V30 64 1 20 59
M  V30 65 1 21 60
M  V30 66 1 24 61
M  V30 67 1 25 62
M  V30 68 1 29 63
M  V30 69 1 30 64
M  V30 70 1 33 65
M  V30 71 1 34 66
M  V30 72 1 37 67
M  V30 73 1 37 68
M  V30 74 1 38 69
M  V30 75 1 38 70
M  V30 76 1 39 71
M  V30 77 1 40 72
M  V30 78 1 40 73
M  V30 79 1 41 74
M  V30 80 1 41 75
M  V30 81 1 42 76
M  V30 82 1 43 77
M  V30 END BOND
M  V30 END CTAB
M  END
>  <Dataset>  (991) 
ChEMBL_Kinases

>  <Ligand_Instance>  (991) 
nan

>  <PDB_ID>  (991) 
nan

>  <Standardized_SMILES>  (991) 
Cc1cccc(C)c1-c1ccccc1CN(C(=O)c1ccc(-c2ccc(C#N)cc2)o1)c1ccc(N2CCNCC2)cc1

>  <Name>  (991) 
nan

>  <Pocket>  (991) 
nan

>  <ATP_Site>  (991) 
nan

>  <Peripheral>  (991) 
nan

>  <Num_H_Atoms_ProtBoundConf>  (991) 
nan

>  <Num_Resolved_Atoms>  (991) 
nan

>  <Num_Not_Resolved_Atoms>  (991) 
nan

$$$$
CHEMBL1938415
     RDKit          3D

  0  0  0  0  0  0  0  0  0  0999 V3000
M  V30 BEGIN CTAB
M  V30 COUNTS 58 62 0 0 0
M  V30 BEGIN ATOM
M  V30 1 C 5.965479 -1.986433 3.645088 0
M  V30 2 C 4.755126 -1.088839 3.874757 0
M  V30 3 C 3.783031 -1.749106 4.832325 0
M  V30 4 N 4.081241 -0.973351 2.574859 0
M  V30 5 C 3.952255 0.095657 1.800426 0
M  V30 6 C 3.244705 -0.208326 0.651170 0
M  V30 7 C 2.900971 0.762903 -0.369329 0
M  V30 8 O 3.940767 1.388714 -0.756418 0
M  V30 9 C 1.651329 1.146819 -1.007351 0
M  V30 10 C 1.756667 2.034182 -2.054159 0
M  V30 11 N 0.612897 2.447415 -2.677776 0
M  V30 12 C -0.577868 1.983824 -2.260454 0
M  V30 13 C -0.720298 1.095956 -1.216327 0
M  V30 14 N -1.991338 0.610607 -0.756002 0
M  V30 15 C -3.225856 1.088436 -1.344452 0 CFG=2
M  V30 16 C -3.446628 2.515115 -0.774035 0
M  V30 17 O -3.428295 2.188243 0.592007 0
M  V30 18 C -4.044756 0.965497 0.769135 0
M  V30 19 C -4.394119 0.464817 -0.626112 0 CFG=2
M  V30 20 C -4.572397 -0.959175 -0.769807 0
M  V30 21 C -5.886039 -1.353812 -0.490420 0
M  V30 22 C -6.295763 -2.690849 -0.576983 0
M  V30 23 C -5.410549 -3.678310 -0.944769 0
M  V30 24 F -5.702673 -4.994621 -1.058079 0
M  V30 25 C -4.121750 -3.324556 -1.224052 0
M  V30 26 C -3.754968 -2.003136 -1.128919 0
M  V30 27 N 0.433821 0.728610 -0.646804 0
M  V30 28 C 2.975659 -1.544303 0.824036 0
M  V30 29 C 2.304985 -2.415407 0.002814 0
M  V30 30 N 1.767293 -2.009871 -1.245367 0
M  V30 31 N 2.140053 -3.703130 0.328886 0
M  V30 32 C 2.651150 -4.151920 1.500409 0
M  V30 33 N 3.324213 -3.327348 2.346056 0
M  V30 34 C 3.483573 -2.035763 2.007060 0
M  V30 35 H 6.530079 -1.553893 2.797874 0
M  V30 36 H 5.578112 -2.987482 3.353101 0
M  V30 37 H 6.558531 -2.010515 4.579630 0
M  V30 38 H 5.044631 -0.110902 4.286987 0
M  V30 39 H 4.033606 -1.403822 5.862375 0
M  V30 40 H 2.753560 -1.413195 4.552010 0
M  V30 41 H 3.818555 -2.839149 4.727185 0
M  V30 42 H 4.383051 1.050912 2.113398 0
M  V30 43 H 2.665872 2.462526 -2.461634 0
M  V30 44 H -1.437119 2.342441 -2.807168 0
M  V30 45 H -1.901488 -0.093047 0.036865 0
M  V30 46 H -3.267914 1.064716 -2.427010 0
M  V30 47 H -2.657831 3.204941 -1.027557 0
M  V30 48 H -4.473553 2.801899 -1.056712 0
M  V30 49 H -4.977507 1.142923 1.364618 0
M  V30 50 H -3.428039 0.239834 1.314535 0
M  V30 51 H -5.360740 0.988140 -0.856881 0
M  V30 52 H -6.703708 -0.695968 -0.187182 0
M  V30 53 H -7.306180 -3.008795 -0.364003 0
M  V30 54 H -3.360004 -4.032581 -1.520405 0
M  V30 55 H -2.749803 -1.719300 -1.358557 0
M  V30 56 H 0.838865 -1.957849 -1.740350 0
M  V30 57 H 2.470497 -1.638636 -1.922375 0
M  V30 58 H 2.541217 -5.189587 1.807108 0
M  V30 END ATOM
M  V30 BEGIN BOND
M  V30 1 1 1 2
M  V30 2 1 2 3
M  V30 3 1 2 4
M  V30 4 1 4 5
M  V30 5 2 5 6
M  V30 6 1 6 7
M  V30 7 2 7 8
M  V30 8 1 7 9
M  V30 9 2 9 10
M  V30 10 1 10 11
M  V30 11 2 11 12
M  V30 12 1 12 13
M  V30 13 1 13 14
M  V30 14 1 14 15
M  V30 15 1 15 16
M  V30 16 1 16 17
M  V30 17 1 17 18
M  V30 18 1 18 19
M  V30 19 1 19 20
M  V30 20 2 20 21
M  V30 21 1 21 22
M  V30 22 2 22 23
M  V30 23 1 23 24
M  V30 24 1 23 25
M  V30 25 2 25 26
M  V30 26 2 13 27
M  V30 27 1 6 28
M  V30 28 2 28 29
M  V30 29 1 29 30
M  V30 30 1 29 31
M  V30 31 2 31 32
M  V30 32 1 32 33
M  V30 33 2 33 34
M  V30 34 1 34 4
M  V30 35 1 27 9
M  V30 36 1 34 28
M  V30 37 1 19 15
M  V30 38 1 26 20
M  V30 39 1 1 35
M  V30 40 1 1 36
M  V30 41 1 1 37
M  V30 42 1 2 38
M  V30 43 1 3 39
M  V30 44 1 3 40
M  V30 45 1 3 41
M  V30 46 1 5 42
M  V30 47 1 10 43
M  V30 48 1 12 44
M  V30 49 1 14 45
M  V30 50 1 15 46 CFG=3
M  V30 51 1 16 47
M  V30 52 1 16 48
M  V30 53 1 18 49
M  V30 54 1 18 50
M  V30 55 1 19 51 CFG=3
M  V30 56 1 21 52
M  V30 57 1 22 53
M  V30 58 1 25 54
M  V30 59 1 26 55
M  V30 60 1 30 56
M  V30 61 1 30 57
M  V30 62 1 32 58
M  V30 END BOND
M  V30 END CTAB
M  END
>  <Dataset>  (992) 
ChEMBL_Kinases

>  <Ligand_Instance>  (992) 
nan

>  <PDB_ID>  (992) 
nan

>  <Standardized_SMILES>  (992) 
CC(C)n1cc(C(=O)c2cncc(N[C@@H]3COC[C@@H]3c3ccc(F)cc3)n2)c2c(N)ncnc21

>  <Name>  (992) 
nan

>  <Pocket>  (992) 
nan

>  <ATP_Site>  (992) 
nan

>  <Peripheral>  (992) 
nan

>  <Num_H_Atoms_ProtBoundConf>  (992) 
nan

>  <Num_Resolved_Atoms>  (992) 
nan

>  <Num_Not_Resolved_Atoms>  (992) 
nan

$$$$
CHEMBL193643
     RDKit          3D

  0  0  0  0  0  0  0  0  0  0999 V3000
M  V30 BEGIN CTAB
M  V30 COUNTS 42 44 0 0 0
M  V30 BEGIN ATOM
M  V30 1 N -1.753871 -2.789336 3.765823 0
M  V30 2 C -1.098377 -2.062007 2.706430 0
M  V30 3 N -0.177866 -1.211668 3.221674 0
M  V30 4 C 0.561274 -0.425754 2.421538 0
M  V30 5 N 1.584125 0.474975 2.902116 0
M  V30 6 C 2.286057 1.386430 2.066072 0
M  V30 7 C 3.656500 1.235687 2.265623 0
M  V30 8 C 4.575658 2.021759 1.558554 0
M  V30 9 C 4.048411 2.952744 0.655334 0
M  V30 10 S 5.214390 3.917483 -0.241136 0
M  V30 11 N 5.740768 5.287327 0.626538 0
M  V30 12 O 4.547555 4.431935 -1.510968 0
M  V30 13 O 6.392734 3.069572 -0.623790 0
M  V30 14 C 2.699693 3.101599 0.460152 0
M  V30 15 C 1.814245 2.315620 1.168107 0
M  V30 16 C 0.406061 -0.457695 1.040624 0
M  V30 17 C -0.549771 -1.347361 0.599118 0
M  V30 18 C -1.327886 -2.169232 1.348339 0
M  V30 19 C -2.359519 -3.100037 0.968029 0
M  V30 20 O -3.078123 -3.509554 1.950227 0
M  V30 21 C -2.826525 -3.719617 -0.248273 0
M  V30 22 C -4.157747 -4.151933 -0.276206 0
M  V30 23 F -5.049596 -4.015703 0.734865 0
M  V30 24 C -4.622829 -4.779854 -1.440963 0
M  V30 25 C -3.844181 -4.993092 -2.551493 0
M  V30 26 C -2.525876 -4.565162 -2.520423 0
M  V30 27 C -2.077611 -3.950997 -1.375280 0
M  V30 28 F -0.775377 -3.633427 -1.472449 0
M  V30 29 H -1.286649 -3.697030 3.985206 0
M  V30 30 H -2.600263 -2.547480 4.324949 0
M  V30 31 H 1.766995 0.396679 3.934358 0
M  V30 32 H 4.161800 0.548955 2.942442 0
M  V30 33 H 5.647292 1.942802 1.676065 0
M  V30 34 H 4.988682 5.656980 1.216148 0
M  V30 35 H 6.519199 5.009408 1.282567 0
M  V30 36 H 2.283820 3.812034 -0.229682 0
M  V30 37 H 0.731558 2.347813 1.108171 0
M  V30 38 H 0.964852 0.135437 0.337329 0
M  V30 39 H -0.696800 -1.353893 -0.462927 0
M  V30 40 H -5.663212 -5.121434 -1.471906 0
M  V30 41 H -4.290425 -5.482022 -3.398848 0
M  V30 42 H -1.964273 -4.753493 -3.410341 0
M  V30 END ATOM
M  V30 BEGIN BOND
M  V30 1 1 1 2
M  V30 2 2 2 3
M  V30 3 1 3 4
M  V30 4 1 4 5
M  V30 5 1 5 6
M  V30 6 2 6 7
M  V30 7 1 7 8
M  V30 8 2 8 9
M  V30 9 1 9 10
M  V30 10 1 10 11
M  V30 11 2 10 12
M  V30 12 2 10 13
M  V30 13 1 9 14
M  V30 14 2 14 15
M  V30 15 2 4 16
M  V30 16 1 16 17
M  V30 17 2 17 18
M  V30 18 1 18 19
M  V30 19 2 19 20
M  V30 20 1 19 21
M  V30 21 2 21 22
M  V30 22 1 22 23
M  V30 23 1 22 24
M  V30 24 2 24 25
M  V30 25 1 25 26
M  V30 26 2 26 27
M  V30 27 1 27 28
M  V30 28 1 18 2
M  V30 29 1 27 21
M  V30 30 1 15 6
M  V30 31 1 1 29
M  V30 32 1 1 30
M  V30 33 1 5 31
M  V30 34 1 7 32
M  V30 35 1 8 33
M  V30 36 1 11 34
M  V30 37 1 11 35
M  V30 38 1 14 36
M  V30 39 1 15 37
M  V30 40 1 16 38
M  V30 41 1 17 39
M  V30 42 1 24 40
M  V30 43 1 25 41
M  V30 44 1 26 42
M  V30 END BOND
M  V30 END CTAB
M  END
>  <Dataset>  (993) 
ChEMBL_Kinases

>  <Ligand_Instance>  (993) 
nan

>  <PDB_ID>  (993) 
nan

>  <Standardized_SMILES>  (993) 
Nc1nc(Nc2ccc(S(N)(=O)=O)cc2)ccc1C(=O)c1c(F)cccc1F

>  <Name>  (993) 
nan

>  <Pocket>  (993) 
nan

>  <ATP_Site>  (993) 
nan

>  <Peripheral>  (993) 
nan

>  <Num_H_Atoms_ProtBoundConf>  (993) 
nan

>  <Num_Resolved_Atoms>  (993) 
nan

>  <Num_Not_Resolved_Atoms>  (993) 
nan

$$$$
CHEMBL193601
     RDKit          3D

  0  0  0  0  0  0  0  0  0  0999 V3000
M  V30 BEGIN CTAB
M  V30 COUNTS 44 46 0 0 0
M  V30 BEGIN ATOM
M  V30 1 N -1.663724 -5.625927 8.027786 0
M  V30 2 C -1.364240 -4.805638 6.916994 0
M  V30 3 O -0.967889 -3.793740 7.557158 0
M  V30 4 N -1.505816 -5.124180 5.537519 0
M  V30 5 C -1.174791 -4.216823 4.552869 0
M  V30 6 S 0.572970 -4.070374 3.754789 0
M  V30 7 C 0.095233 -2.784962 2.718478 0
M  V30 8 C 0.937568 -2.123411 1.709609 0
M  V30 9 C 1.633297 -1.590992 0.859211 0
M  V30 10 C 2.455807 -0.969619 -0.174203 0
M  V30 11 C 3.442207 -1.793553 -0.671380 0
M  V30 12 C 4.190468 -1.180894 -1.673214 0
M  V30 13 C 3.977562 0.104693 -2.125590 0
M  V30 14 C 2.966776 0.872773 -1.579239 0
M  V30 15 N 2.582115 2.206768 -1.897876 0
M  V30 16 C 1.626215 2.308969 -2.972576 0
M  V30 17 O 1.341473 1.160508 -3.396599 0
M  V30 18 C 1.142067 3.604798 -3.405873 0
M  V30 19 C 1.404750 4.841637 -2.864523 0
M  V30 20 C 0.890035 5.998494 -3.372160 0
M  V30 21 C 0.059127 5.965766 -4.486448 0
M  V30 22 N -0.218352 4.772094 -5.039198 0
M  V30 23 C 0.299722 3.645583 -4.521690 0
M  V30 24 C 2.191744 0.300521 -0.572294 0
M  V30 25 C -1.176535 -2.437908 2.871055 0
M  V30 26 C -1.746819 -3.222328 3.826109 0
M  V30 27 C -3.140728 -3.119983 4.203562 0
M  V30 28 N -3.966524 -2.059914 3.742707 0
M  V30 29 O -4.191145 -3.455831 4.771575 0
M  V30 30 H -1.885692 -6.631842 7.875337 0
M  V30 31 H -1.873769 -6.628493 7.759085 0
M  V30 32 H -1.869558 -6.084192 5.339226 0
M  V30 33 H 3.686704 -2.789530 -0.396728 0
M  V30 34 H 4.999268 -1.677156 -2.175313 0
M  V30 35 H 4.526529 0.619956 -2.893302 0
M  V30 36 H 2.953509 3.044080 -1.396207 0
M  V30 37 H 2.066922 4.798230 -1.987125 0
M  V30 38 H 1.136339 6.932974 -2.891914 0
M  V30 39 H -0.331043 6.912402 -4.864530 0
M  V30 40 H -0.018328 2.752837 -5.083151 0
M  V30 41 H 1.386882 0.810126 -0.090273 0
M  V30 42 H -1.719177 -1.664909 2.347617 0
M  V30 43 H -3.650011 -1.066729 3.655839 0
M  V30 44 H -4.703263 -1.405100 3.382468 0
M  V30 END ATOM
M  V30 BEGIN BOND
M  V30 1 1 1 2
M  V30 2 2 2 3
M  V30 3 1 2 4
M  V30 4 1 4 5
M  V30 5 1 5 6
M  V30 6 1 6 7
M  V30 7 1 7 8
M  V30 8 3 8 9
M  V30 9 1 9 10
M  V30 10 2 10 11
M  V30 11 1 11 12
M  V30 12 2 12 13
M  V30 13 1 13 14
M  V30 14 1 14 15
M  V30 15 1 15 16
M  V30 16 2 16 17
M  V30 17 1 16 18
M  V30 18 2 18 19
M  V30 19 1 19 20
M  V30 20 2 20 21
M  V30 21 1 21 22
M  V30 22 2 22 23
M  V30 23 2 14 24
M  V30 24 2 7 25
M  V30 25 1 25 26
M  V30 26 1 26 27
M  V30 27 1 27 28
M  V30 28 2 27 29
M  V30 29 2 26 5
M  V30 30 1 24 10
M  V30 31 1 23 18
M  V30 32 1 1 30
M  V30 33 1 1 31
M  V30 34 1 4 32
M  V30 35 1 11 33
M  V30 36 1 12 34
M  V30 37 1 13 35
M  V30 38 1 15 36
M  V30 39 1 19 37
M  V30 40 1 20 38
M  V30 41 1 21 39
M  V30 42 1 23 40
M  V30 43 1 24 41
M  V30 44 1 25 42
M  V30 45 1 28 43
M  V30 46 1 28 44
M  V30 END BOND
M  V30 END CTAB
M  END
>  <Dataset>  (994) 
ChEMBL_Kinases

>  <Ligand_Instance>  (994) 
nan

>  <PDB_ID>  (994) 
nan

>  <Standardized_SMILES>  (994) 
NC(=O)Nc1sc(C#Cc2cccc(NC(=O)c3cccnc3)c2)cc1C(N)=O

>  <Name>  (994) 
nan

>  <Pocket>  (994) 
nan

>  <ATP_Site>  (994) 
nan

>  <Peripheral>  (994) 
nan

>  <Num_H_Atoms_ProtBoundConf>  (994) 
nan

>  <Num_Resolved_Atoms>  (994) 
nan

>  <Num_Not_Resolved_Atoms>  (994) 
nan

$$$$
CHEMBL193551
     RDKit          3D

  0  0  0  0  0  0  0  0  0  0999 V3000
M  V30 BEGIN CTAB
M  V30 COUNTS 39 40 0 0 0
M  V30 BEGIN ATOM
M  V30 1 C 2.636178 -5.075991 1.495385 0
M  V30 2 S 3.499552 -5.602653 0.036375 0
M  V30 3 O 4.475036 -6.661271 0.389752 0
M  V30 4 O 2.525877 -6.117563 -1.001030 0
M  V30 5 N 4.292291 -4.244671 -0.659419 0
M  V30 6 C 3.644228 -3.093997 -1.141935 0
M  V30 7 C 4.080747 -2.618601 -2.383406 0
M  V30 8 C 3.566883 -1.506546 -3.016855 0
M  V30 9 C 2.552274 -0.804972 -2.395167 0
M  V30 10 C 2.095415 -1.248212 -1.163892 0
M  V30 11 C 1.044223 -0.576717 -0.450328 0
M  V30 12 C 0.173520 -0.006997 0.159024 0
M  V30 13 C -0.867991 0.698152 0.914324 0
M  V30 14 C -0.749032 1.744160 1.693835 0
M  V30 15 C -1.827381 2.291013 2.335052 0
M  V30 16 C -1.842059 3.446990 3.226451 0
M  V30 17 N -0.641223 4.150680 3.521193 0
M  V30 18 O -2.927008 3.819728 3.735221 0
M  V30 19 C -3.050646 1.610912 2.063015 0
M  V30 20 N -4.411108 1.880669 2.549107 0
M  V30 21 C -5.258152 2.737536 1.836166 0
M  V30 22 N -6.553403 2.929676 2.394326 0
M  V30 23 O -5.021568 3.346983 0.784030 0
M  V30 24 S -2.553972 0.275649 0.935063 0
M  V30 25 C 2.630023 -2.363254 -0.557387 0
M  V30 26 H 1.556352 -4.834224 1.292927 0
M  V30 27 H 2.632099 -5.961587 2.195298 0
M  V30 28 H 3.157561 -4.262636 2.039016 0
M  V30 29 H 5.349798 -4.259007 -0.738355 0
M  V30 30 H 4.875649 -3.128810 -2.919922 0
M  V30 31 H 3.938006 -1.184179 -3.969824 0
M  V30 32 H 2.088488 0.076675 -2.813947 0
M  V30 33 H 0.238591 2.206774 1.847008 0
M  V30 34 H -0.573907 5.171670 3.587367 0
M  V30 35 H 0.243184 3.645263 3.686488 0
M  V30 36 H -4.693118 1.406848 3.430794 0
M  V30 37 H -7.393216 3.095057 2.991703 0
M  V30 38 H -6.646537 3.114307 3.420295 0
M  V30 39 H 2.301312 -2.737659 0.398367 0
M  V30 END ATOM
M  V30 BEGIN BOND
M  V30 1 1 1 2
M  V30 2 2 2 3
M  V30 3 2 2 4
M  V30 4 1 2 5
M  V30 5 1 5 6
M  V30 6 2 6 7
M  V30 7 1 7 8
M  V30 8 2 8 9
M  V30 9 1 9 10
M  V30 10 1 10 11
M  V30 11 3 11 12
M  V30 12 1 12 13
M  V30 13 2 13 14
M  V30 14 1 14 15
M  V30 15 1 15 16
M  V30 16 1 16 17
M  V30 17 2 16 18
M  V30 18 2 15 19
M  V30 19 1 19 20
M  V30 20 1 20 21
M  V30 21 1 21 22
M  V30 22 2 21 23
M  V30 23 1 19 24
M  V30 24 2 10 25
M  V30 25 1 25 6
M  V30 26 1 24 13
M  V30 27 1 1 26
M  V30 28 1 1 27
M  V30 29 1 1 28
M  V30 30 1 5 29
M  V30 31 1 7 30
M  V30 32 1 8 31
M  V30 33 1 9 32
M  V30 34 1 14 33
M  V30 35 1 17 34
M  V30 36 1 17 35
M  V30 37 1 20 36
M  V30 38 1 22 37
M  V30 39 1 22 38
M  V30 40 1 25 39
M  V30 END BOND
M  V30 END CTAB
M  END
>  <Dataset>  (995) 
ChEMBL_Kinases

>  <Ligand_Instance>  (995) 
nan

>  <PDB_ID>  (995) 
nan

>  <Standardized_SMILES>  (995) 
CS(=O)(=O)Nc1cccc(C#Cc2cc(C(N)=O)c(NC(N)=O)s2)c1

>  <Name>  (995) 
nan

>  <Pocket>  (995) 
nan

>  <ATP_Site>  (995) 
nan

>  <Peripheral>  (995) 
nan

>  <Num_H_Atoms_ProtBoundConf>  (995) 
nan

>  <Num_Resolved_Atoms>  (995) 
nan

>  <Num_Not_Resolved_Atoms>  (995) 
nan

$$$$
CHEMBL193519
     RDKit          3D

  0  0  0  0  0  0  0  0  0  0999 V3000
M  V30 BEGIN CTAB
M  V30 COUNTS 43 47 0 0 0
M  V30 BEGIN ATOM
M  V30 1 F 0.253701 -1.641845 5.317738 0
M  V30 2 C 1.126750 -1.887109 4.273238 0
M  V30 3 F 1.094950 -3.191683 3.843108 0
M  V30 4 F 2.421406 -1.685059 4.751261 0
M  V30 5 C 0.877166 -0.968351 3.153072 0
M  V30 6 C 1.857765 -0.117270 2.715198 0
M  V30 7 N 1.597851 0.705331 1.699499 0
M  V30 8 C 0.432993 0.778682 1.048924 0
M  V30 9 N 0.128376 1.641424 -0.033759 0
M  V30 10 C 0.969420 2.598177 -0.652651 0
M  V30 11 C 0.527509 3.359976 -1.710454 0
M  V30 12 C 1.294477 4.304746 -2.352333 0
M  V30 13 C 2.586775 4.535732 -1.946064 0
M  V30 14 N 3.535315 5.377630 -2.382306 0
M  V30 15 C 4.634632 5.181953 -1.607563 0
M  V30 16 N 4.351015 4.219448 -0.700463 0
M  V30 17 C 3.080785 3.800315 -0.890475 0
M  V30 18 C 2.267946 2.867451 -0.285153 0
M  V30 19 N -0.492847 -0.055740 1.495718 0
M  V30 20 C -0.338800 -0.921965 2.506242 0
M  V30 21 N -1.388671 -1.788326 2.917634 0
M  V30 22 C -1.527917 -3.022569 2.226515 0
M  V30 23 C -0.651067 -3.302552 1.175474 0
M  V30 24 C -0.787223 -4.498111 0.500955 0
M  V30 25 C -1.751788 -5.430344 0.818833 0
M  V30 26 N -2.096902 -6.655243 0.328822 0
M  V30 27 C -3.139931 -7.131939 1.030952 0
M  V30 28 N -3.469383 -6.209846 1.979013 0
M  V30 29 C -2.633280 -5.156630 1.870488 0
M  V30 30 C -2.514130 -3.951583 2.568011 0
M  V30 31 H 2.811436 -0.138223 3.205889 0
M  V30 32 H -0.846152 1.574859 -0.443149 0
M  V30 33 H -0.483385 3.230285 -2.083715 0
M  V30 34 H 0.883761 4.869256 -3.179081 0
M  V30 35 H 3.503171 6.079743 -3.166374 0
M  V30 36 H 5.590835 5.699867 -1.685995 0
M  V30 37 H 2.727107 2.347461 0.517859 0
M  V30 38 H -2.043815 -1.551048 3.700171 0
M  V30 39 H 0.126886 -2.601642 0.885215 0
M  V30 40 H -0.101665 -4.678320 -0.295310 0
M  V30 41 H -1.601547 -7.119379 -0.472371 0
M  V30 42 H -3.647607 -8.087421 0.882827 0
M  V30 43 H -3.190955 -3.759519 3.363349 0
M  V30 END ATOM
M  V30 BEGIN BOND
M  V30 1 1 1 2
M  V30 2 1 2 3
M  V30 3 1 2 4
M  V30 4 1 2 5
M  V30 5 2 5 6
M  V30 6 1 6 7
M  V30 7 2 7 8
M  V30 8 1 8 9
M  V30 9 1 9 10
M  V30 10 2 10 11
M  V30 11 1 11 12
M  V30 12 2 12 13
M  V30 13 1 13 14
M  V30 14 1 14 15
M  V30 15 2 15 16
M  V30 16 1 16 17
M  V30 17 2 17 18
M  V30 18 1 8 19
M  V30 19 2 19 20
M  V30 20 1 20 21
M  V30 21 1 21 22
M  V30 22 2 22 23
M  V30 23 1 23 24
M  V30 24 2 24 25
M  V30 25 1 25 26
M  V30 26 1 26 27
M  V30 27 2 27 28
M  V30 28 1 28 29
M  V30 29 2 29 30
M  V30 30 1 20 5
M  V30 31 1 30 22
M  V30 32 1 18 10
M  V30 33 1 29 25
M  V30 34 1 17 13
M  V30 35 1 6 31
M  V30 36 1 9 32
M  V30 37 1 11 33
M  V30 38 1 12 34
M  V30 39 1 14 35
M  V30 40 1 15 36
M  V30 41 1 18 37
M  V30 42 1 21 38
M  V30 43 1 23 39
M  V30 44 1 24 40
M  V30 45 1 26 41
M  V30 46 1 27 42
M  V30 47 1 30 43
M  V30 END BOND
M  V30 END CTAB
M  END
>  <Dataset>  (996) 
ChEMBL_Kinases

>  <Ligand_Instance>  (996) 
nan

>  <PDB_ID>  (996) 
nan

>  <Standardized_SMILES>  (996) 
FC(F)(F)c1cnc(Nc2ccc3[nH]cnc3c2)nc1Nc1ccc2[nH]cnc2c1

>  <Name>  (996) 
nan

>  <Pocket>  (996) 
nan

>  <ATP_Site>  (996) 
nan

>  <Peripheral>  (996) 
nan

>  <Num_H_Atoms_ProtBoundConf>  (996) 
nan

>  <Num_Resolved_Atoms>  (996) 
nan

>  <Num_Not_Resolved_Atoms>  (996) 
nan

$$$$
CHEMBL1940511
     RDKit          3D

  0  0  0  0  0  0  0  0  0  0999 V3000
M  V30 BEGIN CTAB
M  V30 COUNTS 62 65 0 0 0
M  V30 BEGIN ATOM
M  V30 1 C 2.571395 3.530722 4.939965 0
M  V30 2 N 3.118345 2.202929 5.019410 0
M  V30 3 C 3.852972 1.936946 3.803828 0
M  V30 4 C 2.971365 1.480572 2.683460 0
M  V30 5 N 2.116348 0.381464 3.028985 0
M  V30 6 C 2.287771 -0.783314 2.173472 0
M  V30 7 C 1.819187 -0.536069 0.761116 0
M  V30 8 C 0.367238 -0.174175 0.792163 0
M  V30 9 N -0.177492 0.080394 -0.530871 0
M  V30 10 C -0.013171 1.508080 -0.925647 0
M  V30 11 C -1.225704 2.208498 -0.490069 0
M  V30 12 C -2.345017 2.360974 -1.302893 0
M  V30 13 C -3.414188 3.037581 -0.784361 0
M  V30 14 C -3.439913 3.576812 0.505440 0
M  V30 15 C -2.270724 3.373389 1.246077 0
M  V30 16 N -1.219586 2.714815 0.751724 0
M  V30 17 C -0.807862 -0.612466 -1.591217 0
M  V30 18 O -0.385845 -1.028633 -0.505817 0
M  V30 19 C -1.279124 -1.918198 -2.040764 0
M  V30 20 C -1.634750 -1.709253 -3.385437 0
M  V30 21 C -2.092787 -2.952220 -3.842479 0
M  V30 22 C -1.989920 -3.816357 -2.776499 0
M  V30 23 C -2.304188 -5.233909 -2.618171 0
M  V30 24 C -2.094496 -5.906497 -1.436778 0
M  V30 25 C -2.459816 -7.263096 -1.457132 0
M  V30 26 C -2.985705 -7.854652 -2.580375 0
M  V30 27 C -3.319529 -9.250920 -2.470759 0
M  V30 28 N -3.578860 -10.373714 -2.366755 0
M  V30 29 C -3.179334 -7.143676 -3.743342 0
M  V30 30 C -2.829117 -5.803609 -3.758096 0
M  V30 31 O -1.512293 -3.189097 -1.733987 0
M  V30 32 C 2.358221 0.040548 4.421093 0
M  V30 33 C 2.069995 1.248828 5.267229 0
M  V30 34 H 2.370967 3.785352 3.880480 0
M  V30 35 H 1.640042 3.648769 5.540826 0
M  V30 36 H 3.309294 4.281566 5.332653 0
M  V30 37 H 4.299991 2.919466 3.506750 0
M  V30 38 H 4.692371 1.247734 3.940345 0
M  V30 39 H 3.617166 1.235420 1.821243 0
M  V30 40 H 2.367069 2.388532 2.386016 0
M  V30 41 H 1.767975 -1.615860 2.658412 0
M  V30 42 H 3.383310 -1.009323 2.204586 0
M  V30 43 H 2.015861 -1.477279 0.204525 0
M  V30 44 H 2.457602 0.250206 0.312043 0
M  V30 45 H -0.187540 -1.012754 1.246544 0
M  V30 46 H 0.217020 0.750477 1.403422 0
M  V30 47 H 0.131579 1.575829 -2.018066 0
M  V30 48 H 0.921895 1.920267 -0.475896 0
M  V30 49 H -2.348062 1.957327 -2.295692 0
M  V30 50 H -4.331115 3.200468 -1.357068 0
M  V30 51 H -4.299229 4.108634 0.889237 0
M  V30 52 H -2.280656 3.789207 2.247507 0
M  V30 53 H -1.693487 -0.980191 -4.189467 0
M  V30 54 H -2.476817 -3.339419 -4.784118 0
M  V30 55 H -1.684123 -5.422627 -0.579703 0
M  V30 56 H -2.293425 -7.802109 -0.517130 0
M  V30 57 H -3.594345 -7.624474 -4.618139 0
M  V30 58 H -3.007170 -5.300660 -4.702679 0
M  V30 59 H 3.423283 -0.259906 4.466596 0
M  V30 60 H 1.747717 -0.798641 4.780833 0
M  V30 61 H 1.989887 0.987892 6.355294 0
M  V30 62 H 1.068344 1.641161 4.991840 0
M  V30 END ATOM
M  V30 BEGIN BOND
M  V30 1 1 1 2
M  V30 2 1 2 3
M  V30 3 1 3 4
M  V30 4 1 4 5
M  V30 5 1 5 6
M  V30 6 1 6 7
M  V30 7 1 7 8
M  V30 8 1 8 9
M  V30 9 1 9 10
M  V30 10 1 10 11
M  V30 11 2 11 12
M  V30 12 1 12 13
M  V30 13 2 13 14
M  V30 14 1 14 15
M  V30 15 2 15 16
M  V30 16 1 9 17
M  V30 17 2 17 18
M  V30 18 1 17 19
M  V30 19 2 19 20
M  V30 20 1 20 21
M  V30 21 2 21 22
M  V30 22 1 22 23
M  V30 23 2 23 24
M  V30 24 1 24 25
M  V30 25 2 25 26
M  V30 26 1 26 27
M  V30 27 3 27 28
M  V30 28 1 26 29
M  V30 29 2 29 30
M  V30 30 1 22 31
M  V30 31 1 5 32
M  V30 32 1 32 33
M  V30 33 1 33 2
M  V30 34 1 16 11
M  V30 35 1 31 19
M  V30 36 1 30 23
M  V30 37 1 1 34
M  V30 38 1 1 35
M  V30 39 1 1 36
M  V30 40 1 3 37
M  V30 41 1 3 38
M  V30 42 1 4 39
M  V30 43 1 4 40
M  V30 44 1 6 41
M  V30 45 1 6 42
M  V30 46 1 7 43
M  V30 47 1 7 44
M  V30 48 1 8 45
M  V30 49 1 8 46
M  V30 50 1 10 47
M  V30 51 1 10 48
M  V30 52 1 12 49
M  V30 53 1 13 50
M  V30 54 1 14 51
M  V30 55 1 15 52
M  V30 56 1 20 53
M  V30 57 1 21 54
M  V30 58 1 24 55
M  V30 59 1 25 56
M  V30 60 1 29 57
M  V30 61 1 30 58
M  V30 62 1 32 59
M  V30 63 1 32 60
M  V30 64 1 33 61
M  V30 65 1 33 62
M  V30 END BOND
M  V30 END CTAB
M  END
>  <Dataset>  (997) 
ChEMBL_Kinases

>  <Ligand_Instance>  (997) 
nan

>  <PDB_ID>  (997) 
nan

>  <Standardized_SMILES>  (997) 
CN1CCN(CCCN(Cc2ccccn2)C(=O)c2ccc(-c3ccc(C#N)cc3)o2)CC1

>  <Name>  (997) 
nan

>  <Pocket>  (997) 
nan

>  <ATP_Site>  (997) 
nan

>  <Peripheral>  (997) 
nan

>  <Num_H_Atoms_ProtBoundConf>  (997) 
nan

>  <Num_Resolved_Atoms>  (997) 
nan

>  <Num_Not_Resolved_Atoms>  (997) 
nan

$$$$
CHEMBL1933281
     RDKit          3D

  0  0  0  0  0  0  0  0  0  0999 V3000
M  V30 BEGIN CTAB
M  V30 COUNTS 53 57 0 0 0
M  V30 BEGIN ATOM
M  V30 1 C -1.204650 -4.322002 2.126845 0
M  V30 2 C 0.220426 -3.971540 2.399020 0
M  V30 3 C 0.782482 -4.601979 3.652750 0
M  V30 4 N 1.089217 -4.191637 1.245915 0
M  V30 5 C 1.839871 -3.297634 0.538826 0
M  V30 6 N 1.847753 -1.902107 0.901173 0
M  V30 7 C 0.913502 -0.995612 0.340124 0
M  V30 8 O 0.116561 -1.563790 -0.480342 0
M  V30 9 C 0.863348 0.426532 0.660047 0
M  V30 10 C 1.707371 1.064621 1.538232 0
M  V30 11 C 1.568883 2.425566 1.767661 0
M  V30 12 C 0.613008 3.176866 1.148736 0
M  V30 13 C 0.214422 4.495636 1.146905 0
M  V30 14 C -0.849904 4.644948 0.282617 0
M  V30 15 N -1.091313 3.413101 -0.235989 0
M  V30 16 C -0.220275 2.528661 0.277079 0
M  V30 17 C -0.121167 1.161189 0.012599 0
M  V30 18 C -2.161220 3.195203 -1.198569 0
M  V30 19 C -3.463831 3.759254 -0.734395 0
M  V30 20 C -3.712445 5.158937 -1.241097 0
M  V30 21 N -2.688521 6.062546 -0.757687 0
M  V30 22 C -1.506528 5.950094 0.058546 0
M  V30 23 O -1.023292 6.963096 0.587708 0
M  V30 24 N 2.495655 -3.889459 -0.445119 0
M  V30 25 C 2.206470 -5.192346 -0.428402 0
M  V30 26 C 2.623330 -6.236699 -1.232100 0
M  V30 27 C 2.144601 -7.510473 -0.968857 0
M  V30 28 C 1.263236 -7.750226 0.077408 0
M  V30 29 C 0.881972 -6.670660 0.845662 0
M  V30 30 C 1.320928 -5.379430 0.637177 0
M  V30 31 H -1.487458 -5.353002 2.408159 0
M  V30 32 H -1.339090 -4.278135 1.008240 0
M  V30 33 H -1.859233 -3.644431 2.674906 0
M  V30 34 H 0.257341 -2.874044 2.573233 0
M  V30 35 H 0.332255 -4.060362 4.510127 0
M  V30 36 H 1.857894 -4.405539 3.661930 0
M  V30 37 H 0.487796 -5.660632 3.770216 0
M  V30 38 H 2.551301 -1.545082 1.588649 0
M  V30 39 H 2.452809 0.480339 2.021317 0
M  V30 40 H 2.234417 2.928242 2.460009 0
M  V30 41 H 0.671394 5.286396 1.735854 0
M  V30 42 H -0.793245 0.697371 -0.675399 0
M  V30 43 H -2.259737 2.124147 -1.410674 0
M  V30 44 H -1.864524 3.705249 -2.133890 0
M  V30 45 H -3.488371 3.796124 0.369046 0
M  V30 46 H -4.296576 3.122499 -1.100957 0
M  V30 47 H -4.675514 5.501131 -0.763586 0
M  V30 48 H -3.888140 5.232490 -2.318812 0
M  V30 49 H -2.858995 7.041171 -1.090447 0
M  V30 50 H 3.297545 -6.088174 -2.041764 0
M  V30 51 H 2.470292 -8.332965 -1.598521 0
M  V30 52 H 0.911557 -8.759942 0.251055 0
M  V30 53 H 0.202460 -6.877487 1.646440 0
M  V30 END ATOM
M  V30 BEGIN BOND
M  V30 1 1 1 2
M  V30 2 1 2 3
M  V30 3 1 2 4
M  V30 4 1 4 5
M  V30 5 1 5 6
M  V30 6 1 6 7
M  V30 7 2 7 8
M  V30 8 1 7 9
M  V30 9 2 9 10
M  V30 10 1 10 11
M  V30 11 2 11 12
M  V30 12 1 12 13
M  V30 13 2 13 14
M  V30 14 1 14 15
M  V30 15 1 15 16
M  V30 16 2 16 17
M  V30 17 1 15 18
M  V30 18 1 18 19
M  V30 19 1 19 20
M  V30 20 1 20 21
M  V30 21 1 21 22
M  V30 22 2 22 23
M  V30 23 2 5 24
M  V30 24 1 24 25
M  V30 25 2 25 26
M  V30 26 1 26 27
M  V30 27 2 27 28
M  V30 28 1 28 29
M  V30 29 2 29 30
M  V30 30 1 30 4
M  V30 31 1 17 9
M  V30 32 1 30 25
M  V30 33 1 16 12
M  V30 34 1 22 14
M  V30 35 1 1 31
M  V30 36 1 1 32
M  V30 37 1 1 33
M  V30 38 1 2 34
M  V30 39 1 3 35
M  V30 40 1 3 36
M  V30 41 1 3 37
M  V30 42 1 6 38
M  V30 43 1 10 39
M  V30 44 1 11 40
M  V30 45 1 13 41
M  V30 46 1 17 42
M  V30 47 1 18 43
M  V30 48 1 18 44
M  V30 49 1 19 45
M  V30 50 1 19 46
M  V30 51 1 20 47
M  V30 52 1 20 48
M  V30 53 1 21 49
M  V30 54 1 26 50
M  V30 55 1 27 51
M  V30 56 1 28 52
M  V30 57 1 29 53
M  V30 END BOND
M  V30 END CTAB
M  END
>  <Dataset>  (998) 
ChEMBL_Kinases

>  <Ligand_Instance>  (998) 
nan

>  <PDB_ID>  (998) 
nan

>  <Standardized_SMILES>  (998) 
CC(C)n1c(NC(=O)c2ccc3cc4n(c3c2)CCCNC4=O)nc2ccccc21

>  <Name>  (998) 
nan

>  <Pocket>  (998) 
nan

>  <ATP_Site>  (998) 
nan

>  <Peripheral>  (998) 
nan

>  <Num_H_Atoms_ProtBoundConf>  (998) 
nan

>  <Num_Resolved_Atoms>  (998) 
nan

>  <Num_Not_Resolved_Atoms>  (998) 
nan

$$$$
CHEMBL1933282
     RDKit          3D

  0  0  0  0  0  0  0  0  0  0999 V3000
M  V30 BEGIN CTAB
M  V30 COUNTS 54 59 0 0 0
M  V30 BEGIN ATOM
M  V30 1 O 0.379825 -1.379541 3.421901 0
M  V30 2 C 0.176720 -1.458634 2.182718 0
M  V30 3 N 1.213243 -1.292197 1.223024 0
M  V30 4 C 2.578896 -1.021730 1.528588 0
M  V30 5 N 3.526003 -1.927259 1.729406 0
M  V30 6 C 4.719978 -1.336234 2.000158 0
M  V30 7 C 5.991300 -1.775233 2.277617 0
M  V30 8 C 7.034282 -0.874448 2.518044 0
M  V30 9 C 6.804220 0.489372 2.480881 0
M  V30 10 C 5.505517 0.901125 2.197074 0
M  V30 11 C 4.464033 0.022690 1.957199 0
M  V30 12 N 3.164244 0.204149 1.670833 0
M  V30 13 C 2.527497 1.470916 1.542499 0
M  V30 14 C 2.446135 2.216841 2.711167 0
M  V30 15 C 1.852563 3.471489 2.741194 0
M  V30 16 C 1.348938 3.930466 1.537992 0
M  V30 17 C 1.405302 3.220925 0.337169 0
M  V30 18 C 2.009682 1.970541 0.361608 0
M  V30 19 C -1.202633 -1.734905 1.777395 0
M  V30 20 C -2.161004 -1.886124 2.758835 0
M  V30 21 C -3.502816 -2.151849 2.456149 0
M  V30 22 C -3.898474 -2.269685 1.140751 0
M  V30 23 C -5.093471 -2.519201 0.469955 0
M  V30 24 C -4.832773 -2.513624 -0.902107 0
M  V30 25 N -3.516957 -2.268786 -1.092834 0
M  V30 26 C -2.937554 -2.118744 0.135463 0
M  V30 27 C -1.623578 -1.857354 0.468692 0
M  V30 28 C -2.763491 -2.164959 -2.331171 0
M  V30 29 C -3.629597 -1.546995 -3.408009 0
M  V30 30 C -4.488418 -2.582626 -4.100978 0
M  V30 31 N -5.660702 -2.933389 -3.308004 0
M  V30 32 C -5.878215 -2.745364 -1.909106 0
M  V30 33 O -7.057586 -2.782421 -1.517580 0
M  V30 34 H 1.031195 -1.360218 0.201172 0
M  V30 35 H 6.169954 -2.845845 2.306343 0
M  V30 36 H 8.036434 -1.209897 2.736819 0
M  V30 37 H 7.592518 1.199948 2.662924 0
M  V30 38 H 5.366428 1.979323 2.177180 0
M  V30 39 H 2.845546 1.851653 3.663047 0
M  V30 40 H 1.774849 4.075336 3.636884 0
M  V30 41 H 0.882501 4.908618 1.545730 0
M  V30 42 H 0.993480 3.633142 -0.571692 0
M  V30 43 H 2.091993 1.365186 -0.517989 0
M  V30 44 H -1.935942 -1.808883 3.824546 0
M  V30 45 H -4.251019 -2.269572 3.233331 0
M  V30 46 H -6.043183 -2.684785 0.954886 0
M  V30 47 H -0.903522 -1.745071 -0.309129 0
M  V30 48 H -1.899714 -1.454076 -2.207809 0
M  V30 49 H -2.359071 -3.132691 -2.677876 0
M  V30 50 H -3.044095 -1.021574 -4.189103 0
M  V30 51 H -4.298175 -0.788207 -2.935561 0
M  V30 52 H -3.831457 -3.458324 -4.265852 0
M  V30 53 H -4.798128 -2.136531 -5.068216 0
M  V30 54 H -6.430739 -3.378197 -3.847459 0
M  V30 END ATOM
M  V30 BEGIN BOND
M  V30 1 2 1 2
M  V30 2 1 2 3
M  V30 3 1 3 4
M  V30 4 2 4 5
M  V30 5 1 5 6
M  V30 6 2 6 7
M  V30 7 1 7 8
M  V30 8 2 8 9
M  V30 9 1 9 10
M  V30 10 2 10 11
M  V30 11 1 11 12
M  V30 12 1 12 13
M  V30 13 2 13 14
M  V30 14 1 14 15
M  V30 15 2 15 16
M  V30 16 1 16 17
M  V30 17 2 17 18
M  V30 18 1 2 19
M  V30 19 2 19 20
M  V30 20 1 20 21
M  V30 21 2 21 22
M  V30 22 1 22 23
M  V30 23 2 23 24
M  V30 24 1 24 25
M  V30 25 1 25 26
M  V30 26 2 26 27
M  V30 27 1 25 28
M  V30 28 1 28 29
M  V30 29 1 29 30
M  V30 30 1 30 31
M  V30 31 1 31 32
M  V30 32 2 32 33
M  V30 33 1 12 4
M  V30 34 1 18 13
M  V30 35 1 27 19
M  V30 36 1 11 6
M  V30 37 1 26 22
M  V30 38 1 32 24
M  V30 39 1 3 34
M  V30 40 1 7 35
M  V30 41 1 8 36
M  V30 42 1 9 37
M  V30 43 1 10 38
M  V30 44 1 14 39
M  V30 45 1 15 40
M  V30 46 1 16 41
M  V30 47 1 17 42
M  V30 48 1 18 43
M  V30 49 1 20 44
M  V30 50 1 21 45
M  V30 51 1 23 46
M  V30 52 1 27 47
M  V30 53 1 28 48
M  V30 54 1 28 49
M  V30 55 1 29 50
M  V30 56 1 29 51
M  V30 57 1 30 52
M  V30 58 1 30 53
M  V30 59 1 31 54
M  V30 END BOND
M  V30 END CTAB
M  END
>  <Dataset>  (999) 
ChEMBL_Kinases

>  <Ligand_Instance>  (999) 
nan

>  <PDB_ID>  (999) 
nan

>  <Standardized_SMILES>  (999) 
O=C(Nc1nc2ccccc2n1-c1ccccc1)c1ccc2cc3n(c2c1)CCCNC3=O

>  <Name>  (999) 
nan

>  <Pocket>  (999) 
nan

>  <ATP_Site>  (999) 
nan

>  <Peripheral>  (999) 
nan

>  <Num_H_Atoms_ProtBoundConf>  (999) 
nan

>  <Num_Resolved_Atoms>  (999) 
nan

>  <Num_Not_Resolved_Atoms>  (999) 
nan

$$$$
