F001
     RDKit          3D

  0  0  0  0  0  0  0  0  0  0999 V3000
M  V30 BEGIN CTAB
M  V30 COUNTS 31 33 0 0 0
M  V30 BEGIN ATOM
M  V30 1 O -1.767766 -3.689541 2.575064 0
M  V30 2 C -0.912286 -2.667259 2.233943 0 CFG=2
M  V30 3 C 0.402497 -3.280032 1.785420 0
M  V30 4 C 1.397443 -2.328135 2.460270 0 CFG=1
M  V30 5 C 1.311170 -0.997573 1.790359 0
M  V30 6 N 0.931760 -0.770095 0.505617 0
M  V30 7 C 0.980706 0.569408 0.266991 0
M  V30 8 C 0.619224 1.095179 -1.048356 0
M  V30 9 C -0.728844 1.462711 -1.107395 0
M  V30 10 C -1.260492 1.988727 -2.289809 0
M  V30 11 C -0.441715 2.139104 -3.390374 0
M  V30 12 F -0.921377 2.649543 -4.566219 0
M  V30 13 C 0.891235 1.771470 -3.319150 0
M  V30 14 C 1.438115 1.245636 -2.149253 0
M  V30 15 N 1.397060 1.137488 1.435269 0
M  V30 16 O 1.582811 0.188632 2.311649 0
M  V30 17 N 0.798597 -2.278993 3.802727 0 CHG=1 VAL=4
M  V30 18 C -0.554946 -1.844757 3.458376 0
M  V30 19 H -2.651958 -3.534300 2.177224 0
M  V30 20 H -1.362076 -2.042742 1.462252 0
M  V30 21 H 0.545443 -4.304006 2.141345 0
M  V30 22 H 0.526314 -3.143676 0.690192 0
M  V30 23 H 2.402860 -2.743335 2.447895 0
M  V30 24 H -1.437873 1.378428 -0.294039 0
M  V30 25 H -2.312086 2.286455 -2.369418 0
M  V30 26 H 1.584435 1.863497 -4.143591 0
M  V30 27 H 2.444993 0.933247 -1.989954 0
M  V30 28 H 1.265618 -1.595245 4.417029 0
M  V30 29 H 0.756449 -3.245444 4.141222 0
M  V30 30 H -1.284301 -2.006995 4.258611 0
M  V30 31 H -0.486373 -0.761709 3.221567 0
M  V30 END ATOM
M  V30 BEGIN BOND
M  V30 1 1 1 2
M  V30 2 1 2 3
M  V30 3 1 3 4
M  V30 4 1 4 5
M  V30 5 2 5 6
M  V30 6 1 6 7
M  V30 7 1 7 8
M  V30 8 2 8 9
M  V30 9 1 9 10
M  V30 10 2 10 11
M  V30 11 1 11 12
M  V30 12 1 11 13
M  V30 13 2 13 14
M  V30 14 2 7 15
M  V30 15 1 15 16
M  V30 16 1 4 17
M  V30 17 1 17 18
M  V30 18 1 18 2
M  V30 19 1 16 5
M  V30 20 1 14 8
M  V30 21 1 1 19
M  V30 22 1 2 20 CFG=3
M  V30 23 1 3 21
M  V30 24 1 3 22
M  V30 25 1 4 23 CFG=1
M  V30 26 1 9 24
M  V30 27 1 10 25
M  V30 28 1 13 26
M  V30 29 1 14 27
M  V30 30 1 17 28
M  V30 31 1 17 29
M  V30 32 1 18 30
M  V30 33 1 18 31
M  V30 END BOND
M  V30 END CTAB
M  END
>  <Ligand_Instance>  (1) 
001_B_2

>  <Standardized_SMILES>  (1) 
[H]O[C@]1([H])C([H])([H])[C@@]([H])(C2=NC(C3=C([H])C([H])=C(F)C([H])=C3[H])=NO2)[N+]([H])([H])C1([H])[H]

>  <Pocket>  (1) 
X

>  <Fsp3>  (1) 
0.333333

>  <FCStereo>  (1) 
0.166667

>  <nSPS>  (1) 
23.444444

>  <nPBF_protbound>  (1) 
0.032006

>  <nPBF_insilico>  (1) 
0.047319

>  <Nonhydrogen_Atom_RMSD_Numeric>  (1) 
1.2

$$$$
F005
     RDKit          3D

  0  0  0  0  0  0  0  0  0  0999 V3000
M  V30 BEGIN CTAB
M  V30 COUNTS 29 31 0 0 0
M  V30 BEGIN ATOM
M  V30 1 O -1.045371 -1.256996 5.196868 0
M  V30 2 C -0.512317 -0.464471 4.159836 0 CFG=2
M  V30 3 C -1.058989 -0.984992 2.871049 0
M  V30 4 C -0.024540 -2.012450 2.422995 0 CFG=1
M  V30 5 C -0.031722 -2.096116 0.938454 0
M  V30 6 N 0.329391 -1.017968 0.215328 0
M  V30 7 C 0.257490 -1.293269 -1.100383 0
M  V30 8 C 0.596288 -0.295901 -2.120416 0
M  V30 9 N 1.810905 -0.242204 -2.736930 0
M  V30 10 C 2.065811 0.703115 -3.672674 0
M  V30 11 C 1.074351 1.621480 -4.000090 0
M  V30 12 N -0.126118 1.550411 -3.375217 0
M  V30 13 C -0.388964 0.615093 -2.444377 0
M  V30 14 N -0.158415 -2.571575 -1.148084 0
M  V30 15 O -0.322848 -3.026063 0.058509 0
M  V30 16 N 1.210477 -1.363582 2.803892 0 CHG=1 VAL=4
M  V30 17 C 0.959910 -0.686005 4.050423 0
M  V30 18 H -2.037867 -1.246910 5.143777 0
M  V30 19 H -0.750748 0.601632 4.347420 0
M  V30 20 H -2.039770 -1.442328 3.003258 0
M  V30 21 H -1.058549 -0.162464 2.128495 0
M  V30 22 H -0.179751 -2.989388 2.898588 0
M  V30 23 H 3.018790 0.762112 -4.170941 0
M  V30 24 H 1.287440 2.381243 -4.756001 0
M  V30 25 H -1.363609 0.639536 -2.007950 0
M  V30 26 H 1.396513 -0.624233 2.090353 0
M  V30 27 H 1.938516 -2.098970 2.864555 0
M  V30 28 H 1.345243 -1.328472 4.874873 0
M  V30 29 H 1.531347 0.277336 4.113085 0
M  V30 END ATOM
M  V30 BEGIN BOND
M  V30 1 1 1 2
M  V30 2 1 2 3
M  V30 3 1 3 4
M  V30 4 1 4 5
M  V30 5 2 5 6
M  V30 6 1 6 7
M  V30 7 1 7 8
M  V30 8 2 8 9
M  V30 9 1 9 10
M  V30 10 2 10 11
M  V30 11 1 11 12
M  V30 12 2 12 13
M  V30 13 2 7 14
M  V30 14 1 14 15
M  V30 15 1 4 16
M  V30 16 1 16 17
M  V30 17 1 17 2
M  V30 18 1 15 5
M  V30 19 1 13 8
M  V30 20 1 1 18
M  V30 21 1 2 19 CFG=1
M  V30 22 1 3 20
M  V30 23 1 3 21
M  V30 24 1 4 22 CFG=1
M  V30 25 1 10 23
M  V30 26 1 11 24
M  V30 27 1 13 25
M  V30 28 1 16 26
M  V30 29 1 16 27
M  V30 30 1 17 28
M  V30 31 1 17 29
M  V30 END BOND
M  V30 END CTAB
M  END
>  <Ligand_Instance>  (2) 
005_D_3

>  <Standardized_SMILES>  (2) 
[H]O[C@]1([H])C([H])([H])[C@@]([H])(C2=NC(C3=NC([H])=C([H])N=C3[H])=NO2)[N+]([H])([H])C1([H])[H]

>  <Pocket>  (2) 
A

>  <Fsp3>  (2) 
0.4

>  <FCStereo>  (2) 
0.2

>  <nSPS>  (2) 
24.058824

>  <nPBF_protbound>  (2) 
0.036971

>  <nPBF_insilico>  (2) 
0.055896

>  <Nonhydrogen_Atom_RMSD_Numeric>  (2) 
0.7

$$$$
F009
     RDKit          3D

  0  0  0  0  0  0  0  0  0  0999 V3000
M  V30 BEGIN CTAB
M  V30 COUNTS 24 25 0 0 0
M  V30 BEGIN ATOM
M  V30 1 C -0.077541 1.524891 1.958523 0
M  V30 2 C 0.694349 0.400799 1.738514 0
M  V30 3 C 0.565397 -0.303515 0.557883 0
M  V30 4 C 1.389022 -1.489430 0.341617 0
M  V30 5 N 2.561613 -1.254191 -0.274371 0
M  V30 6 O 3.239573 -2.359288 -0.431727 0
M  V30 7 C 2.520373 -3.309579 0.075186 0
M  V30 8 C 2.989522 -4.713781 0.068717 0
M  V30 9 N 1.372538 -2.833905 0.565095 0
M  V30 10 C -0.332207 0.084708 -0.440289 0
M  V30 11 C -1.112837 1.223288 -0.215388 0
M  V30 12 C -0.968403 1.919460 0.980487 0
M  V30 13 O -1.808356 3.032677 1.069795 0
M  V30 14 C -1.721113 3.801917 2.268034 0
M  V30 15 H -0.025171 2.119355 2.858908 0
M  V30 16 H 1.397677 0.075777 2.492231 0
M  V30 17 H 3.964220 -4.737696 0.603506 0
M  V30 18 H 3.181857 -5.032706 -0.988151 0
M  V30 19 H 2.277434 -5.421053 0.548932 0
M  V30 20 H -0.432406 -0.474670 -1.374181 0
M  V30 21 H -1.801957 1.505181 -1.003770 0
M  V30 22 H -1.951179 3.095144 3.100316 0
M  V30 23 H -0.656657 4.092671 2.382449 0
M  V30 24 H -2.413607 4.645691 2.271696 0
M  V30 END ATOM
M  V30 BEGIN BOND
M  V30 1 2 1 2
M  V30 2 1 2 3
M  V30 3 1 3 4
M  V30 4 2 4 5
M  V30 5 1 5 6
M  V30 6 1 6 7
M  V30 7 1 7 8
M  V30 8 2 7 9
M  V30 9 2 3 10
M  V30 10 1 10 11
M  V30 11 2 11 12
M  V30 12 1 12 13
M  V30 13 1 13 14
M  V30 14 1 12 1
M  V30 15 1 9 4
M  V30 16 1 1 15
M  V30 17 1 2 16
M  V30 18 1 8 17
M  V30 19 1 8 18
M  V30 20 1 8 19
M  V30 21 1 10 20
M  V30 22 1 11 21
M  V30 23 1 14 22
M  V30 24 1 14 23
M  V30 25 1 14 24
M  V30 END BOND
M  V30 END CTAB
M  END
>  <Ligand_Instance>  (3) 
009_B_2

>  <Standardized_SMILES>  (3) 
[H]C1=C([H])C(C2=NOC(C([H])([H])[H])=N2)=C([H])C([H])=C1OC([H])([H])[H]

>  <Pocket>  (3) 
A

>  <Fsp3>  (3) 
0.2

>  <FCStereo>  (3) 
0.0

>  <nSPS>  (3) 
10.142857

>  <nPBF_protbound>  (3) 
0.021682

>  <nPBF_insilico>  (3) 
0.024324

>  <Nonhydrogen_Atom_RMSD_Numeric>  (3) 
0.7

$$$$
F012
     RDKit          3D

  0  0  0  0  0  0  0  0  0  0999 V3000
M  V30 BEGIN CTAB
M  V30 COUNTS 34 36 0 0 0
M  V30 BEGIN ATOM
M  V30 1 C 0.123835 -2.849165 5.723776 0
M  V30 2 N -0.164974 -4.159485 5.585345 0
M  V30 3 C -0.009862 -4.776718 4.411938 0
M  V30 4 C 0.452236 -4.077887 3.313197 0
M  V30 5 C 0.756074 -2.719414 3.439911 0
M  V30 6 C 1.248250 -1.920133 2.321575 0
M  V30 7 N 2.437575 -1.642703 1.727019 0
M  V30 8 O 2.230920 -0.832520 0.736404 0
M  V30 9 C 0.955957 -0.530928 0.610408 0
M  V30 10 C 0.318570 0.346621 -0.378774 0 CFG=2
M  V30 11 C 0.200188 -0.294176 -1.748012 0
M  V30 12 C -0.921493 0.432394 -2.409234 0
M  V30 13 N -1.975498 -0.027415 -3.252638 0
M  V30 14 C -0.871013 1.724833 -2.121907 0
M  V30 15 N -1.857879 2.593155 -2.659135 0
M  V30 16 C 0.095328 2.489220 -1.282004 0
M  V30 17 N 1.014954 1.604636 -0.590990 0 CHG=1 VAL=4
M  V30 18 N 0.326410 -1.215453 1.610332 0
M  V30 19 C 0.594813 -2.083416 4.654453 0
M  V30 20 H -0.024689 -2.404515 6.709075 0
M  V30 21 H -0.241839 -5.825051 4.304653 0
M  V30 22 H 0.603225 -4.515346 2.325295 0
M  V30 23 H -0.699294 0.639522 -0.006217 0
M  V30 24 H 1.104018 -0.032830 -2.340574 0
M  V30 25 H 0.033143 -1.384725 -1.681100 0
M  V30 26 H -2.027798 -0.082239 -4.306836 0
M  V30 27 H -2.601696 -0.259228 -2.445343 0
M  V30 28 H -2.473192 3.257227 -3.134995 0
M  V30 29 H -2.733576 2.440840 -2.075902 0
M  V30 30 H -0.473689 3.111389 -0.551888 0
M  V30 31 H 0.653124 3.138265 -1.988440 0
M  V30 32 H 1.300416 1.987729 0.327797 0
M  V30 33 H 1.822564 1.368449 -1.211329 0
M  V30 34 H 0.803285 -1.044417 4.842382 0
M  V30 END ATOM
M  V30 BEGIN BOND
M  V30 1 2 1 2
M  V30 2 1 2 3
M  V30 3 2 3 4
M  V30 4 1 4 5
M  V30 5 1 5 6
M  V30 6 2 6 7
M  V30 7 1 7 8
M  V30 8 1 8 9
M  V30 9 1 9 10
M  V30 10 1 10 11
M  V30 11 1 11 12
M  V30 12 1 12 13
M  V30 13 2 12 14
M  V30 14 1 14 15
M  V30 15 1 14 16
M  V30 16 1 16 17
M  V30 17 2 9 18
M  V30 18 2 5 19
M  V30 19 1 19 1
M  V30 20 1 18 6
M  V30 21 1 17 10
M  V30 22 1 1 20
M  V30 23 1 3 21
M  V30 24 1 4 22
M  V30 25 1 10 23 CFG=1
M  V30 26 1 11 24
M  V30 27 1 11 25
M  V30 28 1 13 26
M  V30 29 1 13 27
M  V30 30 1 15 28
M  V30 31 1 15 29
M  V30 32 1 16 30
M  V30 33 1 16 31
M  V30 34 1 17 32
M  V30 35 1 17 33
M  V30 36 1 19 34
M  V30 END BOND
M  V30 END CTAB
M  END
>  <Ligand_Instance>  (4) 
012_B_1

>  <Standardized_SMILES>  (4) 
[H]C1=NC([H])=C([H])C(C2=NOC([C@]3([H])C([H])([H])C(N([H])[H])=C(N([H])[H])C([H])([H])[N+]3([H])[H])=N2)=C1[H]

>  <Pocket>  (4) 
A

>  <Fsp3>  (4) 
0.25

>  <FCStereo>  (4) 
0.083333

>  <nSPS>  (4) 
19.684211

>  <nPBF_protbound>  (4) 
0.018785

>  <nPBF_insilico>  (4) 
0.046847

>  <Nonhydrogen_Atom_RMSD_Numeric>  (4) 
0.7

$$$$
F024
     RDKit          3D

  0  0  0  0  0  0  0  0  0  0999 V3000
M  V30 BEGIN CTAB
M  V30 COUNTS 27 28 0 0 0
M  V30 BEGIN ATOM
M  V30 1 O -0.195325 1.983651 0.097303 0
M  V30 2 C 0.367016 1.288947 -0.975151 0 CFG=2
M  V30 3 C -0.595566 0.398694 -1.643109 0
M  V30 4 C -0.393408 -0.841880 -1.225386 0
M  V30 5 C 0.696791 -0.939222 -0.254184 0 CFG=2
M  V30 6 C 0.263738 -1.184331 1.138326 0
M  V30 7 C -0.922467 -1.003587 1.829938 0
M  V30 8 C -2.146230 -0.472665 1.210881 0
M  V30 9 N -0.771403 -1.392659 3.129985 0
M  V30 10 N 0.474988 -1.810361 3.265792 0
M  V30 11 C 1.132943 -1.703731 2.097317 0
M  V30 12 C 2.559058 -2.126119 2.041722 0
M  V30 13 C 1.414663 0.376397 -0.411895 0
M  V30 14 H 0.526827 2.158033 0.737168 0
M  V30 15 H 0.807537 2.012848 -1.723506 0
M  V30 16 H -1.333632 0.764359 -2.359016 0
M  V30 17 H -1.008579 -1.655542 -1.604928 0
M  V30 18 H 1.442707 -1.731062 -0.520677 0
M  V30 19 H -3.003832 -0.851384 1.850443 0
M  V30 20 H -2.257692 0.626713 1.263262 0
M  V30 21 H -2.383833 -0.906313 0.211611 0
M  V30 22 H -1.547714 -1.342104 3.840388 0
M  V30 23 H 2.875443 -2.131018 0.988913 0
M  V30 24 H 3.197126 -1.515312 2.709356 0
M  V30 25 H 2.585020 -3.183441 2.391303 0
M  V30 26 H 2.233133 0.288891 -1.156151 0
M  V30 27 H 1.828354 0.747838 0.548530 0
M  V30 END ATOM
M  V30 BEGIN BOND
M  V30 1 1 1 2
M  V30 2 1 2 3
M  V30 3 2 3 4
M  V30 4 1 4 5
M  V30 5 1 5 6
M  V30 6 2 6 7
M  V30 7 1 7 8
M  V30 8 1 7 9
M  V30 9 1 9 10
M  V30 10 2 10 11
M  V30 11 1 11 12
M  V30 12 1 5 13
M  V30 13 1 13 2
M  V30 14 1 11 6
M  V30 15 1 1 14
M  V30 16 1 2 15 CFG=3
M  V30 17 1 3 16
M  V30 18 1 4 17
M  V30 19 1 5 18 CFG=3
M  V30 20 1 8 19
M  V30 21 1 8 20
M  V30 22 1 8 21
M  V30 23 1 9 22
M  V30 24 1 12 23
M  V30 25 1 12 24
M  V30 26 1 12 25
M  V30 27 1 13 26
M  V30 28 1 13 27
M  V30 END BOND
M  V30 END CTAB
M  END
>  <Ligand_Instance>  (5) 
024_B_1

>  <Standardized_SMILES>  (5) 
[H]O[C@]1([H])C([H])=C([H])[C@]([H])(C2=C(C([H])([H])[H])N([H])N=C2C([H])([H])[H])C1([H])[H]

>  <Pocket>  (5) 
A

>  <Fsp3>  (5) 
0.5

>  <FCStereo>  (5) 
0.2

>  <nSPS>  (5) 
27.0

>  <nPBF_protbound>  (5) 
0.051596

>  <nPBF_insilico>  (5) 
0.06022

>  <Nonhydrogen_Atom_RMSD_Numeric>  (5) 
0.6

$$$$
F030
     RDKit          3D

  0  0  0  0  0  0  0  0  0  0999 V3000
M  V30 BEGIN CTAB
M  V30 COUNTS 36 38 0 0 0
M  V30 BEGIN ATOM
M  V30 1 C 0.369496 -5.489543 4.063594 0
M  V30 2 C -0.288972 -4.290832 4.318993 0
M  V30 3 C 0.162994 -3.099473 3.745579 0
M  V30 4 C 1.279918 -3.128319 2.916164 0
M  V30 5 N 1.652825 -1.840833 2.382855 0
M  V30 6 C 1.059784 -1.502813 1.160169 0
M  V30 7 O 0.260468 -2.333523 0.628798 0
M  V30 8 O 1.225162 -0.345718 0.414876 0
M  V30 9 C 0.556687 -0.131878 -0.818231 0 CFG=2
M  V30 10 C 1.440231 0.324430 -1.926026 0
M  V30 11 O 0.808391 1.378872 -2.571467 0
M  V30 12 C -0.459363 1.529006 -2.056935 0 CFG=1
M  V30 13 C -0.293986 1.119767 -0.609382 0 CFG=2
M  V30 14 O 0.511502 2.134692 -0.134884 0
M  V30 15 C -0.011008 3.337119 -0.632127 0
M  V30 16 C -0.744190 2.997593 -1.910485 0 CFG=2
M  V30 17 N -2.170470 3.276640 -1.751534 0 CHG=1 VAL=4
M  V30 18 C 1.939279 -4.312341 2.657195 0
M  V30 19 C 1.488729 -5.489194 3.226683 0
M  V30 20 H 0.067591 -6.443942 4.477964 0
M  V30 21 H -1.146463 -4.372075 4.976189 0
M  V30 22 H -0.422829 -2.230288 4.011792 0
M  V30 23 H 2.308773 -1.102032 2.769356 0
M  V30 24 H -0.079444 -1.010940 -1.051932 0
M  V30 25 H 1.587174 -0.523741 -2.638702 0
M  V30 26 H 2.464962 0.615453 -1.565391 0
M  V30 27 H -1.247931 0.970485 -2.589551 0
M  V30 28 H -1.217820 0.945839 -0.068243 0
M  V30 29 H -0.703878 3.787796 0.113557 0
M  V30 30 H 0.778617 4.053763 -0.884249 0
M  V30 31 H -0.378598 3.526913 -2.795310 0
M  V30 32 H -2.670350 3.066133 -2.627394 0
M  V30 33 H -2.204762 4.315727 -1.535686 0
M  V30 34 H -2.548718 2.807655 -0.900604 0
M  V30 35 H 2.806213 -4.247678 1.996204 0
M  V30 36 H 2.033654 -6.419590 3.003146 0
M  V30 END ATOM
M  V30 BEGIN BOND
M  V30 1 2 1 2
M  V30 2 1 2 3
M  V30 3 2 3 4
M  V30 4 1 4 5
M  V30 5 1 5 6
M  V30 6 2 6 7
M  V30 7 1 6 8
M  V30 8 1 8 9
M  V30 9 1 9 10
M  V30 10 1 10 11
M  V30 11 1 11 12
M  V30 12 1 12 13
M  V30 13 1 13 14
M  V30 14 1 14 15
M  V30 15 1 15 16
M  V30 16 1 16 17
M  V30 17 1 4 18
M  V30 18 2 18 19
M  V30 19 1 19 1
M  V30 20 1 13 9
M  V30 21 1 16 12
M  V30 22 1 1 20
M  V30 23 1 2 21
M  V30 24 1 3 22
M  V30 25 1 5 23
M  V30 26 1 9 24 CFG=3
M  V30 27 1 10 25
M  V30 28 1 10 26
M  V30 29 1 12 27 CFG=3
M  V30 30 1 13 28 CFG=1
M  V30 31 1 15 29
M  V30 32 1 15 30
M  V30 33 1 16 31 CFG=3
M  V30 34 1 17 32
M  V30 35 1 17 33
M  V30 36 1 17 34
M  V30 37 1 18 35
M  V30 38 1 19 36
M  V30 END BOND
M  V30 END CTAB
M  END
>  <Ligand_Instance>  (6) 
030_B_2

>  <Standardized_SMILES>  (6) 
[H]C1=C([H])C([H])=C(N([H])C(=O)O[C@]2([H])C([H])([H])O[C@@]3([H])[C@]2([H])OC([H])([H])[C@]3([H])[N+]([H])([H])[H])C([H])=C1[H]

>  <Pocket>  (6) 
G

>  <Fsp3>  (6) 
0.461538

>  <FCStereo>  (6) 
0.307692

>  <nSPS>  (6) 
32.894737

>  <nPBF_protbound>  (6) 
0.041973

>  <nPBF_insilico>  (6) 
0.039991

>  <Nonhydrogen_Atom_RMSD_Numeric>  (6) 
1.4

$$$$
F030
     RDKit          3D

  0  0  0  0  0  0  0  0  0  0999 V3000
M  V30 BEGIN CTAB
M  V30 COUNTS 36 38 0 0 0
M  V30 BEGIN ATOM
M  V30 1 C 0.369496 -5.489543 4.063594 0
M  V30 2 C -0.288972 -4.290832 4.318993 0
M  V30 3 C 0.162994 -3.099473 3.745579 0
M  V30 4 C 1.279918 -3.128319 2.916164 0
M  V30 5 N 1.652825 -1.840833 2.382855 0
M  V30 6 C 1.059784 -1.502813 1.160169 0
M  V30 7 O 0.260468 -2.333523 0.628798 0
M  V30 8 O 1.225162 -0.345718 0.414876 0
M  V30 9 C 0.556687 -0.131878 -0.818231 0 CFG=2
M  V30 10 C 1.440231 0.324430 -1.926026 0
M  V30 11 O 0.808391 1.378872 -2.571467 0
M  V30 12 C -0.459363 1.529006 -2.056935 0 CFG=1
M  V30 13 C -0.293986 1.119767 -0.609382 0 CFG=2
M  V30 14 O 0.511502 2.134692 -0.134884 0
M  V30 15 C -0.011008 3.337119 -0.632127 0
M  V30 16 C -0.744190 2.997593 -1.910485 0 CFG=2
M  V30 17 N -2.170470 3.276640 -1.751534 0 CHG=1 VAL=4
M  V30 18 C 1.939279 -4.312341 2.657195 0
M  V30 19 C 1.488729 -5.489194 3.226683 0
M  V30 20 H 0.067591 -6.443942 4.477964 0
M  V30 21 H -1.146463 -4.372075 4.976189 0
M  V30 22 H -0.422829 -2.230288 4.011792 0
M  V30 23 H 2.308773 -1.102032 2.769356 0
M  V30 24 H -0.079444 -1.010940 -1.051932 0
M  V30 25 H 1.587174 -0.523741 -2.638702 0
M  V30 26 H 2.464962 0.615453 -1.565391 0
M  V30 27 H -1.247931 0.970485 -2.589551 0
M  V30 28 H -1.217820 0.945839 -0.068243 0
M  V30 29 H -0.703878 3.787796 0.113557 0
M  V30 30 H 0.778617 4.053763 -0.884249 0
M  V30 31 H -0.378598 3.526913 -2.795310 0
M  V30 32 H -2.670350 3.066133 -2.627394 0
M  V30 33 H -2.204762 4.315727 -1.535686 0
M  V30 34 H -2.548718 2.807655 -0.900604 0
M  V30 35 H 2.806213 -4.247678 1.996204 0
M  V30 36 H 2.033654 -6.419590 3.003146 0
M  V30 END ATOM
M  V30 BEGIN BOND
M  V30 1 2 1 2
M  V30 2 1 2 3
M  V30 3 2 3 4
M  V30 4 1 4 5
M  V30 5 1 5 6
M  V30 6 2 6 7
M  V30 7 1 6 8
M  V30 8 1 8 9
M  V30 9 1 9 10
M  V30 10 1 10 11
M  V30 11 1 11 12
M  V30 12 1 12 13
M  V30 13 1 13 14
M  V30 14 1 14 15
M  V30 15 1 15 16
M  V30 16 1 16 17
M  V30 17 1 4 18
M  V30 18 2 18 19
M  V30 19 1 19 1
M  V30 20 1 13 9
M  V30 21 1 16 12
M  V30 22 1 1 20
M  V30 23 1 2 21
M  V30 24 1 3 22
M  V30 25 1 5 23
M  V30 26 1 9 24 CFG=3
M  V30 27 1 10 25
M  V30 28 1 10 26
M  V30 29 1 12 27 CFG=3
M  V30 30 1 13 28 CFG=1
M  V30 31 1 15 29
M  V30 32 1 15 30
M  V30 33 1 16 31 CFG=3
M  V30 34 1 17 32
M  V30 35 1 17 33
M  V30 36 1 17 34
M  V30 37 1 18 35
M  V30 38 1 19 36
M  V30 END BOND
M  V30 END CTAB
M  END
>  <Ligand_Instance>  (7) 
030_B_3

>  <Standardized_SMILES>  (7) 
[H]C1=C([H])C([H])=C(N([H])C(=O)O[C@]2([H])C([H])([H])O[C@@]3([H])[C@]2([H])OC([H])([H])[C@]3([H])[N+]([H])([H])[H])C([H])=C1[H]

>  <Pocket>  (7) 
X

>  <Fsp3>  (7) 
0.461538

>  <FCStereo>  (7) 
0.307692

>  <nSPS>  (7) 
32.894737

>  <nPBF_protbound>  (7) 
0.046389

>  <nPBF_insilico>  (7) 
0.039991

>  <Nonhydrogen_Atom_RMSD_Numeric>  (7) 
1.3

$$$$
F032
     RDKit          3D

  0  0  0  0  0  0  0  0  0  0999 V3000
M  V30 BEGIN CTAB
M  V30 COUNTS 36 38 0 0 0
M  V30 BEGIN ATOM
M  V30 1 C 4.124081 -2.542426 3.556560 0
M  V30 2 C 3.981642 -3.880176 3.935703 0
M  V30 3 C 3.270613 -4.682734 3.070165 0
M  V30 4 F 3.093377 -6.000591 3.379178 0
M  V30 5 C 2.713488 -4.240609 1.889209 0
M  V30 6 C 2.862653 -2.915637 1.527816 0
M  V30 7 N 2.379651 -2.241814 0.367594 0
M  V30 8 C 1.088161 -1.671135 0.516118 0
M  V30 9 O 0.545913 -1.835045 1.644038 0
M  V30 10 O 0.355635 -0.967097 -0.404032 0
M  V30 11 C -0.918461 -0.447859 -0.141941 0 CFG=2
M  V30 12 C -2.002499 -0.920829 -1.049556 0
M  V30 13 O -2.930220 0.097527 -1.213686 0
M  V30 14 C -2.533768 1.171964 -0.429425 0 CFG=1
M  V30 15 C -1.006366 1.038285 -0.339598 0 CFG=2
M  V30 16 O -0.568413 1.344796 -1.618332 0
M  V30 17 C -1.411242 2.327158 -2.119749 0
M  V30 18 C -2.568515 2.494291 -1.187383 0 CFG=2
M  V30 19 N -2.239555 3.536243 -0.235817 0 CHG=1 VAL=4
M  V30 20 C 3.576477 -2.063842 2.375121 0
M  V30 21 H 4.681896 -1.866470 4.213835 0
M  V30 22 H 4.393985 -4.288878 4.847997 0
M  V30 23 H 2.157990 -4.812785 1.187263 0
M  V30 24 H 2.818919 -2.093477 -0.587148 0
M  V30 25 H -1.185985 -0.718441 0.915566 0
M  V30 26 H -1.641771 -1.262767 -2.025792 0
M  V30 27 H -2.457350 -1.837127 -0.573531 0
M  V30 28 H -3.010605 1.223248 0.550915 0
M  V30 29 H -0.592926 1.648321 0.457732 0
M  V30 30 H -0.772021 3.253687 -2.173244 0
M  V30 31 H -1.719614 2.010605 -3.141452 0
M  V30 32 H -3.552129 2.618325 -1.669294 0
M  V30 33 H -1.239517 3.841515 -0.334672 0
M  V30 34 H -2.892281 4.343070 -0.329273 0
M  V30 35 H -2.336740 3.210377 0.758325 0
M  V30 36 H 3.749161 -0.996541 2.175773 0
M  V30 END ATOM
M  V30 BEGIN BOND
M  V30 1 2 1 2
M  V30 2 1 2 3
M  V30 3 1 3 4
M  V30 4 2 3 5
M  V30 5 1 5 6
M  V30 6 1 6 7
M  V30 7 1 7 8
M  V30 8 2 8 9
M  V30 9 1 8 10
M  V30 10 1 10 11
M  V30 11 1 11 12
M  V30 12 1 12 13
M  V30 13 1 13 14
M  V30 14 1 14 15
M  V30 15 1 15 16
M  V30 16 1 16 17
M  V30 17 1 17 18
M  V30 18 1 18 19
M  V30 19 2 6 20
M  V30 20 1 20 1
M  V30 21 1 15 11
M  V30 22 1 18 14
M  V30 23 1 1 21
M  V30 24 1 2 22
M  V30 25 1 5 23
M  V30 26 1 7 24
M  V30 27 1 11 25 CFG=1
M  V30 28 1 12 26
M  V30 29 1 12 27
M  V30 30 1 14 28 CFG=1
M  V30 31 1 15 29 CFG=1
M  V30 32 1 17 30
M  V30 33 1 17 31
M  V30 34 1 18 32 CFG=3
M  V30 35 1 19 33
M  V30 36 1 19 34
M  V30 37 1 19 35
M  V30 38 1 20 36
M  V30 END BOND
M  V30 END CTAB
M  END
>  <Ligand_Instance>  (8) 
032_B_1

>  <Standardized_SMILES>  (8) 
[H]C1=C([H])C(F)=C([H])C(N([H])C(=O)O[C@]2([H])C([H])([H])O[C@@]3([H])[C@]2([H])OC([H])([H])[C@]3([H])[N+]([H])([H])[H])=C1[H]

>  <Pocket>  (8) 
A

>  <Fsp3>  (8) 
0.461538

>  <FCStereo>  (8) 
0.307692

>  <nSPS>  (8) 
31.9

>  <nPBF_protbound>  (8) 
0.045667

>  <nPBF_insilico>  (8) 
0.039161

>  <Nonhydrogen_Atom_RMSD_Numeric>  (8) 
1.1

$$$$
F032
     RDKit          3D

  0  0  0  0  0  0  0  0  0  0999 V3000
M  V30 BEGIN CTAB
M  V30 COUNTS 36 38 0 0 0
M  V30 BEGIN ATOM
M  V30 1 C 4.124081 -2.542426 3.556560 0
M  V30 2 C 3.981642 -3.880176 3.935703 0
M  V30 3 C 3.270613 -4.682734 3.070165 0
M  V30 4 F 3.093377 -6.000591 3.379178 0
M  V30 5 C 2.713488 -4.240609 1.889209 0
M  V30 6 C 2.862653 -2.915637 1.527816 0
M  V30 7 N 2.379651 -2.241814 0.367594 0
M  V30 8 C 1.088161 -1.671135 0.516118 0
M  V30 9 O 0.545913 -1.835045 1.644038 0
M  V30 10 O 0.355635 -0.967097 -0.404032 0
M  V30 11 C -0.918461 -0.447859 -0.141941 0 CFG=2
M  V30 12 C -2.002499 -0.920829 -1.049556 0
M  V30 13 O -2.930220 0.097527 -1.213686 0
M  V30 14 C -2.533768 1.171964 -0.429425 0 CFG=1
M  V30 15 C -1.006366 1.038285 -0.339598 0 CFG=2
M  V30 16 O -0.568413 1.344796 -1.618332 0
M  V30 17 C -1.411242 2.327158 -2.119749 0
M  V30 18 C -2.568515 2.494291 -1.187383 0 CFG=2
M  V30 19 N -2.239555 3.536243 -0.235817 0 CHG=1 VAL=4
M  V30 20 C 3.576477 -2.063842 2.375121 0
M  V30 21 H 4.681896 -1.866470 4.213835 0
M  V30 22 H 4.393985 -4.288878 4.847997 0
M  V30 23 H 2.157990 -4.812785 1.187263 0
M  V30 24 H 2.818919 -2.093477 -0.587148 0
M  V30 25 H -1.185985 -0.718441 0.915566 0
M  V30 26 H -1.641771 -1.262767 -2.025792 0
M  V30 27 H -2.457350 -1.837127 -0.573531 0
M  V30 28 H -3.010605 1.223248 0.550915 0
M  V30 29 H -0.592926 1.648321 0.457732 0
M  V30 30 H -0.772021 3.253687 -2.173244 0
M  V30 31 H -1.719614 2.010605 -3.141452 0
M  V30 32 H -3.552129 2.618325 -1.669294 0
M  V30 33 H -1.239517 3.841515 -0.334672 0
M  V30 34 H -2.892281 4.343070 -0.329273 0
M  V30 35 H -2.336740 3.210377 0.758325 0
M  V30 36 H 3.749161 -0.996541 2.175773 0
M  V30 END ATOM
M  V30 BEGIN BOND
M  V30 1 2 1 2
M  V30 2 1 2 3
M  V30 3 1 3 4
M  V30 4 2 3 5
M  V30 5 1 5 6
M  V30 6 1 6 7
M  V30 7 1 7 8
M  V30 8 2 8 9
M  V30 9 1 8 10
M  V30 10 1 10 11
M  V30 11 1 11 12
M  V30 12 1 12 13
M  V30 13 1 13 14
M  V30 14 1 14 15
M  V30 15 1 15 16
M  V30 16 1 16 17
M  V30 17 1 17 18
M  V30 18 1 18 19
M  V30 19 2 6 20
M  V30 20 1 20 1
M  V30 21 1 15 11
M  V30 22 1 18 14
M  V30 23 1 1 21
M  V30 24 1 2 22
M  V30 25 1 5 23
M  V30 26 1 7 24
M  V30 27 1 11 25 CFG=1
M  V30 28 1 12 26
M  V30 29 1 12 27
M  V30 30 1 14 28 CFG=1
M  V30 31 1 15 29 CFG=1
M  V30 32 1 17 30
M  V30 33 1 17 31
M  V30 34 1 18 32 CFG=3
M  V30 35 1 19 33
M  V30 36 1 19 34
M  V30 37 1 19 35
M  V30 38 1 20 36
M  V30 END BOND
M  V30 END CTAB
M  END
>  <Ligand_Instance>  (9) 
032_B_2

>  <Standardized_SMILES>  (9) 
[H]C1=C([H])C(F)=C([H])C(N([H])C(=O)O[C@]2([H])C([H])([H])O[C@@]3([H])[C@]2([H])OC([H])([H])[C@]3([H])[N+]([H])([H])[H])=C1[H]

>  <Pocket>  (9) 
X

>  <Fsp3>  (9) 
0.461538

>  <FCStereo>  (9) 
0.307692

>  <nSPS>  (9) 
31.9

>  <nPBF_protbound>  (9) 
0.042067

>  <nPBF_insilico>  (9) 
0.039161

>  <Nonhydrogen_Atom_RMSD_Numeric>  (9) 
1.7

$$$$
F055
     RDKit          3D

  0  0  0  0  0  0  0  0  0  0999 V3000
M  V30 BEGIN CTAB
M  V30 COUNTS 42 44 0 0 0
M  V30 BEGIN ATOM
M  V30 1 O 0.035628 -2.554574 -1.821077 0
M  V30 2 C -0.473515 -2.150287 -0.591620 0 CFG=1
M  V30 3 C -0.769400 -3.347542 0.287556 0 CFG=2
M  V30 4 N -1.844882 -4.137593 -0.284157 0 CHG=1 VAL=4
M  V30 5 C -1.193766 -2.857005 1.654929 0 CFG=2
M  V30 6 O -1.101645 -1.458940 1.740324 0
M  V30 7 C 0.279349 -1.279827 1.536900 0 CFG=1
M  V30 8 O 0.913676 -2.313680 2.254824 0
M  V30 9 C -0.066208 -3.215801 2.632514 0
M  V30 10 C 0.621380 -1.333741 0.086911 0 CFG=2
M  V30 11 N 0.775800 -0.065792 -0.571066 0 CHG=1 VAL=4
M  V30 12 C -0.088841 0.978533 -0.083451 0
M  V30 13 C 0.662130 2.210228 0.355134 0
M  V30 14 N 1.870120 1.896291 1.080193 0
M  V30 15 C 2.235954 2.430697 2.366657 0
M  V30 16 O 3.312618 2.110829 2.945020 0
M  V30 17 C 1.315160 3.393438 3.040079 0
M  V30 18 C 2.774059 0.977173 0.463114 0
M  V30 19 C 2.147843 0.357449 -0.730262 0
M  V30 20 H -0.646424 -3.080127 -2.307890 0
M  V30 21 H -1.349877 -1.478872 -0.695482 0
M  V30 22 H 0.148330 -3.965602 0.318397 0
M  V30 23 H -2.601554 -3.508325 -0.673108 0
M  V30 24 H -1.412795 -4.730246 -1.030580 0
M  V30 25 H -2.319577 -4.692185 0.461056 0
M  V30 26 H -2.166990 -3.234642 1.964808 0
M  V30 27 H 0.536064 -0.360789 2.063988 0
M  V30 28 H 0.208699 -4.268150 2.571261 0
M  V30 29 H -0.468296 -2.902256 3.634877 0
M  V30 30 H 1.595491 -1.893866 0.010315 0
M  V30 31 H 0.463685 -0.237143 -1.577367 0
M  V30 32 H -0.697817 0.641036 0.784411 0
M  V30 33 H -0.838892 1.328172 -0.824805 0
M  V30 34 H 0.008213 2.791125 1.038971 0
M  V30 35 H 0.932276 2.889961 -0.479394 0
M  V30 36 H 0.490008 2.846869 3.540258 0
M  V30 37 H 1.864184 3.913610 3.856418 0
M  V30 38 H 0.900187 4.149063 2.359337 0
M  V30 39 H 3.251018 0.268276 1.169758 0
M  V30 40 H 3.637511 1.602908 0.089991 0
M  V30 41 H 2.212716 1.062365 -1.595975 0
M  V30 42 H 2.713271 -0.573579 -1.010056 0
M  V30 END ATOM
M  V30 BEGIN BOND
M  V30 1 1 1 2
M  V30 2 1 2 3
M  V30 3 1 3 4
M  V30 4 1 3 5
M  V30 5 1 5 6
M  V30 6 1 6 7
M  V30 7 1 7 8
M  V30 8 1 8 9
M  V30 9 1 7 10
M  V30 10 1 10 11
M  V30 11 1 11 12
M  V30 12 1 12 13
M  V30 13 1 13 14
M  V30 14 1 14 15
M  V30 15 2 15 16
M  V30 16 1 15 17
M  V30 17 1 14 18
M  V30 18 1 18 19
M  V30 19 1 10 2
M  V30 20 1 19 11
M  V30 21 1 9 5
M  V30 22 1 1 20
M  V30 23 1 2 21 CFG=3
M  V30 24 1 3 22 CFG=1
M  V30 25 1 4 23
M  V30 26 1 4 24
M  V30 27 1 4 25
M  V30 28 1 5 26 CFG=1
M  V30 29 1 7 27 CFG=1
M  V30 30 1 9 28
M  V30 31 1 9 29
M  V30 32 1 10 30 CFG=1
M  V30 33 1 11 31
M  V30 34 1 12 32
M  V30 35 1 12 33
M  V30 36 1 13 34
M  V30 37 1 13 35
M  V30 38 1 17 36
M  V30 39 1 17 37
M  V30 40 1 17 38
M  V30 41 1 18 39
M  V30 42 1 18 40
M  V30 43 1 19 41
M  V30 44 1 19 42
M  V30 END BOND
M  V30 END CTAB
M  END
>  <Ligand_Instance>  (10) 
055_B_1

>  <Standardized_SMILES>  (10) 
[H]O[C@@]1([H])[C@]([H])([N+]([H])([H])[H])[C@]2([H])O[C@@]([H])(OC2([H])[H])[C@]1([H])[N+]1([H])C([H])([H])C([H])([H])N(C(=O)C([H])([H])[H])C([H])([H])C1([H])[H]

>  <Pocket>  (10) 
A

>  <Fsp3>  (10) 
0.916667

>  <FCStereo>  (10) 
0.416667

>  <nSPS>  (10) 
43.526316

>  <nPBF_protbound>  (10) 
0.047327

>  <nPBF_insilico>  (10) 
0.049461

>  <Nonhydrogen_Atom_RMSD_Numeric>  (10) 
1.5

$$$$
F055
     RDKit          3D

  0  0  0  0  0  0  0  0  0  0999 V3000
M  V30 BEGIN CTAB
M  V30 COUNTS 42 44 0 0 0
M  V30 BEGIN ATOM
M  V30 1 O 0.035628 -2.554574 -1.821077 0
M  V30 2 C -0.473515 -2.150287 -0.591620 0 CFG=1
M  V30 3 C -0.769400 -3.347542 0.287556 0 CFG=2
M  V30 4 N -1.844882 -4.137593 -0.284157 0 CHG=1 VAL=4
M  V30 5 C -1.193766 -2.857005 1.654929 0 CFG=2
M  V30 6 O -1.101645 -1.458940 1.740324 0
M  V30 7 C 0.279349 -1.279827 1.536900 0 CFG=1
M  V30 8 O 0.913676 -2.313680 2.254824 0
M  V30 9 C -0.066208 -3.215801 2.632514 0
M  V30 10 C 0.621380 -1.333741 0.086911 0 CFG=2
M  V30 11 N 0.775800 -0.065792 -0.571066 0 CHG=1 VAL=4
M  V30 12 C -0.088841 0.978533 -0.083451 0
M  V30 13 C 0.662130 2.210228 0.355134 0
M  V30 14 N 1.870120 1.896291 1.080193 0
M  V30 15 C 2.235954 2.430697 2.366657 0
M  V30 16 O 3.312618 2.110829 2.945020 0
M  V30 17 C 1.315160 3.393438 3.040079 0
M  V30 18 C 2.774059 0.977173 0.463114 0
M  V30 19 C 2.147843 0.357449 -0.730262 0
M  V30 20 H -0.646424 -3.080127 -2.307890 0
M  V30 21 H -1.349877 -1.478872 -0.695482 0
M  V30 22 H 0.148330 -3.965602 0.318397 0
M  V30 23 H -2.601554 -3.508325 -0.673108 0
M  V30 24 H -1.412795 -4.730246 -1.030580 0
M  V30 25 H -2.319577 -4.692185 0.461056 0
M  V30 26 H -2.166990 -3.234642 1.964808 0
M  V30 27 H 0.536064 -0.360789 2.063988 0
M  V30 28 H 0.208699 -4.268150 2.571261 0
M  V30 29 H -0.468296 -2.902256 3.634877 0
M  V30 30 H 1.595491 -1.893866 0.010315 0
M  V30 31 H 0.463685 -0.237143 -1.577367 0
M  V30 32 H -0.697817 0.641036 0.784411 0
M  V30 33 H -0.838892 1.328172 -0.824805 0
M  V30 34 H 0.008213 2.791125 1.038971 0
M  V30 35 H 0.932276 2.889961 -0.479394 0
M  V30 36 H 0.490008 2.846869 3.540258 0
M  V30 37 H 1.864184 3.913610 3.856418 0
M  V30 38 H 0.900187 4.149063 2.359337 0
M  V30 39 H 3.251018 0.268276 1.169758 0
M  V30 40 H 3.637511 1.602908 0.089991 0
M  V30 41 H 2.212716 1.062365 -1.595975 0
M  V30 42 H 2.713271 -0.573579 -1.010056 0
M  V30 END ATOM
M  V30 BEGIN BOND
M  V30 1 1 1 2
M  V30 2 1 2 3
M  V30 3 1 3 4
M  V30 4 1 3 5
M  V30 5 1 5 6
M  V30 6 1 6 7
M  V30 7 1 7 8
M  V30 8 1 8 9
M  V30 9 1 7 10
M  V30 10 1 10 11
M  V30 11 1 11 12
M  V30 12 1 12 13
M  V30 13 1 13 14
M  V30 14 1 14 15
M  V30 15 2 15 16
M  V30 16 1 15 17
M  V30 17 1 14 18
M  V30 18 1 18 19
M  V30 19 1 10 2
M  V30 20 1 19 11
M  V30 21 1 9 5
M  V30 22 1 1 20
M  V30 23 1 2 21 CFG=3
M  V30 24 1 3 22 CFG=1
M  V30 25 1 4 23
M  V30 26 1 4 24
M  V30 27 1 4 25
M  V30 28 1 5 26 CFG=1
M  V30 29 1 7 27 CFG=1
M  V30 30 1 9 28
M  V30 31 1 9 29
M  V30 32 1 10 30 CFG=1
M  V30 33 1 11 31
M  V30 34 1 12 32
M  V30 35 1 12 33
M  V30 36 1 13 34
M  V30 37 1 13 35
M  V30 38 1 17 36
M  V30 39 1 17 37
M  V30 40 1 17 38
M  V30 41 1 18 39
M  V30 42 1 18 40
M  V30 43 1 19 41
M  V30 44 1 19 42
M  V30 END BOND
M  V30 END CTAB
M  END
>  <Ligand_Instance>  (11) 
055_B_2

>  <Standardized_SMILES>  (11) 
[H]O[C@@]1([H])[C@]([H])([N+]([H])([H])[H])[C@]2([H])O[C@@]([H])(OC2([H])[H])[C@]1([H])[N+]1([H])C([H])([H])C([H])([H])N(C(=O)C([H])([H])[H])C([H])([H])C1([H])[H]

>  <Pocket>  (11) 
X

>  <Fsp3>  (11) 
0.916667

>  <FCStereo>  (11) 
0.416667

>  <nSPS>  (11) 
43.526316

>  <nPBF_protbound>  (11) 
0.048348

>  <nPBF_insilico>  (11) 
0.049461

>  <Nonhydrogen_Atom_RMSD_Numeric>  (11) 
1.8

$$$$
F058
     RDKit          3D

  0  0  0  0  0  0  0  0  0  0999 V3000
M  V30 BEGIN CTAB
M  V30 COUNTS 36 38 0 0 0
M  V30 BEGIN ATOM
M  V30 1 O 0.658104 -2.673428 -0.202375 0
M  V30 2 C 0.484713 -1.374546 -0.584273 0 CFG=1
M  V30 3 C -0.689623 -1.320293 -1.556593 0 CFG=2
M  V30 4 N -0.465658 -2.135090 -2.722593 0 CHG=1 VAL=4
M  V30 5 C -0.834837 0.121817 -1.961994 0 CFG=2
M  V30 6 O 0.256476 0.909737 -1.542172 0
M  V30 7 C 0.004313 0.964735 -0.159267 0 CFG=1
M  V30 8 O -1.328247 1.382492 -0.101151 0
M  V30 9 C -1.959771 0.825306 -1.223742 0
M  V30 10 C 0.145241 -0.401098 0.499107 0 CFG=2
M  V30 11 N 1.108096 -0.275341 1.545358 0 CHG=1 VAL=4
M  V30 12 C 0.504697 0.565252 2.574572 0
M  V30 13 C 1.587231 0.971273 3.553719 0
M  V30 14 O 2.243622 -0.145905 4.039081 0
M  V30 15 C 1.615953 -1.330286 3.707711 0
M  V30 16 C 1.457288 -1.504003 2.198806 0
M  V30 17 H -0.044264 -3.290372 -0.478042 0
M  V30 18 H 1.379036 -1.022272 -1.129056 0
M  V30 19 H -1.579220 -1.655743 -0.970219 0
M  V30 20 H -1.347751 -2.105291 -3.274342 0
M  V30 21 H -0.296926 -3.126484 -2.495919 0
M  V30 22 H 0.262811 -1.685751 -3.301907 0
M  V30 23 H -0.955951 0.238295 -3.048006 0
M  V30 24 H 0.707650 1.704337 0.247047 0
M  V30 25 H -2.790099 0.158068 -0.960694 0
M  V30 26 H -2.289589 1.700269 -1.838878 0
M  V30 27 H -0.828478 -0.668168 0.965660 0
M  V30 28 H 1.985067 0.222853 1.266324 0
M  V30 29 H -0.291523 -0.037343 3.051870 0
M  V30 30 H 0.021205 1.456461 2.152204 0
M  V30 31 H 2.340988 1.550145 2.964636 0
M  V30 32 H 1.140157 1.601153 4.356876 0
M  V30 33 H 0.628670 -1.456160 4.208729 0
M  V30 34 H 2.249881 -2.163207 4.074647 0
M  V30 35 H 2.453323 -1.833308 1.834101 0
M  V30 36 H 0.681080 -2.294976 2.105758 0
M  V30 END ATOM
M  V30 BEGIN BOND
M  V30 1 1 1 2
M  V30 2 1 2 3
M  V30 3 1 3 4
M  V30 4 1 3 5
M  V30 5 1 5 6
M  V30 6 1 6 7
M  V30 7 1 7 8
M  V30 8 1 8 9
M  V30 9 1 7 10
M  V30 10 1 10 11
M  V30 11 1 11 12
M  V30 12 1 12 13
M  V30 13 1 13 14
M  V30 14 1 14 15
M  V30 15 1 15 16
M  V30 16 1 10 2
M  V30 17 1 16 11
M  V30 18 1 9 5
M  V30 19 1 1 17
M  V30 20 1 2 18 CFG=3
M  V30 21 1 3 19 CFG=1
M  V30 22 1 4 20
M  V30 23 1 4 21
M  V30 24 1 4 22
M  V30 25 1 5 23 CFG=3
M  V30 26 1 7 24 CFG=1
M  V30 27 1 9 25
M  V30 28 1 9 26
M  V30 29 1 10 27 CFG=1
M  V30 30 1 11 28
M  V30 31 1 12 29
M  V30 32 1 12 30
M  V30 33 1 13 31
M  V30 34 1 13 32
M  V30 35 1 15 33
M  V30 36 1 15 34
M  V30 37 1 16 35
M  V30 38 1 16 36
M  V30 END BOND
M  V30 END CTAB
M  END
>  <Ligand_Instance>  (12) 
058_A_603

>  <Standardized_SMILES>  (12) 
[H]O[C@@]1([H])[C@]([H])([N+]([H])([H])[H])[C@]2([H])O[C@@]([H])(OC2([H])[H])[C@]1([H])[N+]1([H])C([H])([H])C([H])([H])OC([H])([H])C1([H])[H]

>  <Pocket>  (12) 
X

>  <Fsp3>  (12) 
1.0

>  <FCStereo>  (12) 
0.5

>  <nSPS>  (12) 
49.5

>  <nPBF_protbound>  (12) 
0.060329

>  <nPBF_insilico>  (12) 
0.042676

>  <Nonhydrogen_Atom_RMSD_Numeric>  (12) 
1.2

$$$$
F070
     RDKit          3D

  0  0  0  0  0  0  0  0  0  0999 V3000
M  V30 BEGIN CTAB
M  V30 COUNTS 34 36 0 0 0
M  V30 BEGIN ATOM
M  V30 1 C -2.854003 0.920015 2.489545 0
M  V30 2 C -1.810872 0.365231 1.745652 0
M  V30 3 C -0.520332 0.560320 2.194139 0
M  V30 4 C 0.553521 -0.033770 1.392793 0
M  V30 5 N 1.884725 -0.011658 1.577035 0
M  V30 6 N 2.476354 -0.691714 0.587903 0
M  V30 7 C 1.485762 -1.139793 -0.219275 0
M  V30 8 C 1.585713 -1.937512 -1.446430 0 CFG=1
M  V30 9 C 2.389149 -1.224631 -2.508577 0
M  V30 10 C 2.637980 -2.379421 -3.479662 0
M  V30 11 N 2.593210 -3.589486 -2.689614 0 CHG=1 VAL=4
M  V30 12 C 2.353164 -3.217018 -1.311393 0
M  V30 13 O 0.356729 -0.726267 0.295558 0
M  V30 14 C -0.228603 1.275795 3.338103 0
M  V30 15 C -1.257473 1.840660 4.099258 0
M  V30 16 C -2.553505 1.634485 3.632936 0
M  V30 17 O -3.572053 2.209419 4.410896 0
M  V30 18 C -4.905499 1.994347 3.926550 0
M  V30 19 H -3.876019 0.780401 2.157482 0
M  V30 20 H -2.083507 -0.185916 0.859050 0
M  V30 21 H 0.591055 -2.162481 -1.907977 0
M  V30 22 H 1.751441 -0.449879 -2.945396 0
M  V30 23 H 3.361076 -0.854647 -2.133950 0
M  V30 24 H 3.550724 -2.250293 -4.072416 0
M  V30 25 H 1.736504 -2.381988 -4.159402 0
M  V30 26 H 3.467803 -4.166495 -2.787933 0
M  V30 27 H 1.806600 -4.217521 -2.995497 0
M  V30 28 H 3.304171 -3.034087 -0.772988 0
M  V30 29 H 1.691767 -3.941222 -0.789090 0
M  V30 30 H 0.799905 1.403999 3.653183 0
M  V30 31 H -1.079979 2.405550 4.996492 0
M  V30 32 H -5.664731 2.421789 4.583174 0
M  V30 33 H -5.004250 0.888052 3.873913 0
M  V30 34 H -4.968132 2.352250 2.864178 0
M  V30 END ATOM
M  V30 BEGIN BOND
M  V30 1 2 1 2
M  V30 2 1 2 3
M  V30 3 1 3 4
M  V30 4 2 4 5
M  V30 5 1 5 6
M  V30 6 2 6 7
M  V30 7 1 7 8
M  V30 8 1 8 9
M  V30 9 1 9 10
M  V30 10 1 10 11
M  V30 11 1 11 12
M  V30 12 1 7 13
M  V30 13 2 3 14
M  V30 14 1 14 15
M  V30 15 2 15 16
M  V30 16 1 16 17
M  V30 17 1 17 18
M  V30 18 1 16 1
M  V30 19 1 13 4
M  V30 20 1 12 8
M  V30 21 1 1 19
M  V30 22 1 2 20
M  V30 23 1 8 21 CFG=3
M  V30 24 1 9 22
M  V30 25 1 9 23
M  V30 26 1 10 24
M  V30 27 1 10 25
M  V30 28 1 11 26
M  V30 29 1 11 27
M  V30 30 1 12 28
M  V30 31 1 12 29
M  V30 32 1 14 30
M  V30 33 1 15 31
M  V30 34 1 18 32
M  V30 35 1 18 33
M  V30 36 1 18 34
M  V30 END BOND
M  V30 END CTAB
M  END
>  <Ligand_Instance>  (13) 
070_A_1602

>  <Standardized_SMILES>  (13) 
[H]C1=C([H])C(C2=NN=C([C@@]3([H])C([H])([H])C([H])([H])[N+]([H])([H])C3([H])[H])O2)=C([H])C([H])=C1OC([H])([H])[H]

>  <Pocket>  (13) 
X

>  <Fsp3>  (13) 
0.384615

>  <FCStereo>  (13) 
0.076923

>  <nSPS>  (13) 
19.055556

>  <nPBF_protbound>  (13) 
0.036388

>  <nPBF_insilico>  (13) 
0.027973

>  <Nonhydrogen_Atom_RMSD_Numeric>  (13) 
0.7

$$$$
F070
     RDKit          3D

  0  0  0  0  0  0  0  0  0  0999 V3000
M  V30 BEGIN CTAB
M  V30 COUNTS 34 36 0 0 0
M  V30 BEGIN ATOM
M  V30 1 C -2.854003 0.920015 2.489545 0
M  V30 2 C -1.810872 0.365231 1.745652 0
M  V30 3 C -0.520332 0.560320 2.194139 0
M  V30 4 C 0.553521 -0.033770 1.392793 0
M  V30 5 N 1.884725 -0.011658 1.577035 0
M  V30 6 N 2.476354 -0.691714 0.587903 0
M  V30 7 C 1.485762 -1.139793 -0.219275 0
M  V30 8 C 1.585713 -1.937512 -1.446430 0 CFG=1
M  V30 9 C 2.389149 -1.224631 -2.508577 0
M  V30 10 C 2.637980 -2.379421 -3.479662 0
M  V30 11 N 2.593210 -3.589486 -2.689614 0 CHG=1 VAL=4
M  V30 12 C 2.353164 -3.217018 -1.311393 0
M  V30 13 O 0.356729 -0.726267 0.295558 0
M  V30 14 C -0.228603 1.275795 3.338103 0
M  V30 15 C -1.257473 1.840660 4.099258 0
M  V30 16 C -2.553505 1.634485 3.632936 0
M  V30 17 O -3.572053 2.209419 4.410896 0
M  V30 18 C -4.905499 1.994347 3.926550 0
M  V30 19 H -3.876019 0.780401 2.157482 0
M  V30 20 H -2.083507 -0.185916 0.859050 0
M  V30 21 H 0.591055 -2.162481 -1.907977 0
M  V30 22 H 1.751441 -0.449879 -2.945396 0
M  V30 23 H 3.361076 -0.854647 -2.133950 0
M  V30 24 H 3.550724 -2.250293 -4.072416 0
M  V30 25 H 1.736504 -2.381988 -4.159402 0
M  V30 26 H 3.467803 -4.166495 -2.787933 0
M  V30 27 H 1.806600 -4.217521 -2.995497 0
M  V30 28 H 3.304171 -3.034087 -0.772988 0
M  V30 29 H 1.691767 -3.941222 -0.789090 0
M  V30 30 H 0.799905 1.403999 3.653183 0
M  V30 31 H -1.079979 2.405550 4.996492 0
M  V30 32 H -5.664731 2.421789 4.583174 0
M  V30 33 H -5.004250 0.888052 3.873913 0
M  V30 34 H -4.968132 2.352250 2.864178 0
M  V30 END ATOM
M  V30 BEGIN BOND
M  V30 1 2 1 2
M  V30 2 1 2 3
M  V30 3 1 3 4
M  V30 4 2 4 5
M  V30 5 1 5 6
M  V30 6 2 6 7
M  V30 7 1 7 8
M  V30 8 1 8 9
M  V30 9 1 9 10
M  V30 10 1 10 11
M  V30 11 1 11 12
M  V30 12 1 7 13
M  V30 13 2 3 14
M  V30 14 1 14 15
M  V30 15 2 15 16
M  V30 16 1 16 17
M  V30 17 1 17 18
M  V30 18 1 16 1
M  V30 19 1 13 4
M  V30 20 1 12 8
M  V30 21 1 1 19
M  V30 22 1 2 20
M  V30 23 1 8 21 CFG=3
M  V30 24 1 9 22
M  V30 25 1 9 23
M  V30 26 1 10 24
M  V30 27 1 10 25
M  V30 28 1 11 26
M  V30 29 1 11 27
M  V30 30 1 12 28
M  V30 31 1 12 29
M  V30 32 1 14 30
M  V30 33 1 15 31
M  V30 34 1 18 32
M  V30 35 1 18 33
M  V30 36 1 18 34
M  V30 END BOND
M  V30 END CTAB
M  END
>  <Ligand_Instance>  (14) 
070_A_1605

>  <Standardized_SMILES>  (14) 
[H]C1=C([H])C(C2=NN=C([C@@]3([H])C([H])([H])C([H])([H])[N+]([H])([H])C3([H])[H])O2)=C([H])C([H])=C1OC([H])([H])[H]

>  <Pocket>  (14) 
A

>  <Fsp3>  (14) 
0.384615

>  <FCStereo>  (14) 
0.076923

>  <nSPS>  (14) 
19.055556

>  <nPBF_protbound>  (14) 
0.036424

>  <nPBF_insilico>  (14) 
0.027973

>  <Nonhydrogen_Atom_RMSD_Numeric>  (14) 
0.7

$$$$
F073
     RDKit          3D

  0  0  0  0  0  0  0  0  0  0999 V3000
M  V30 BEGIN CTAB
M  V30 COUNTS 30 32 0 0 0
M  V30 BEGIN ATOM
M  V30 1 C -0.049420 0.419967 5.316422 0
M  V30 2 C 0.158743 0.040486 3.993100 0
M  V30 3 C -0.765232 0.420158 3.037118 0
M  V30 4 C -0.524791 0.010176 1.657083 0
M  V30 5 N -1.293754 0.272835 0.582282 0
M  V30 6 N -0.731614 -0.272969 -0.483890 0
M  V30 7 C 0.387265 -0.880430 -0.099227 0
M  V30 8 C 1.394235 -1.643063 -0.883333 0 CFG=1
M  V30 9 C 0.664740 -2.819605 -1.500923 0
M  V30 10 C 1.304770 -2.861139 -2.872642 0
M  V30 11 N 1.529370 -1.459056 -3.226970 0 CHG=1 VAL=4
M  V30 12 C 1.977803 -0.854655 -2.007734 0
M  V30 13 O 0.480776 -0.686516 1.213697 0
M  V30 14 C -1.881434 1.159159 3.349720 0
M  V30 15 C -2.094588 1.541152 4.670278 0
M  V30 16 C -1.175351 1.169728 5.654346 0
M  V30 17 Cl -1.529704 1.697602 7.288670 0
M  V30 18 H 0.622010 0.168430 6.138632 0
M  V30 19 H 1.051733 -0.545701 3.769355 0
M  V30 20 H 2.223795 -2.022862 -0.228327 0
M  V30 21 H 0.875711 -3.712920 -0.901121 0
M  V30 22 H -0.423573 -2.682672 -1.531060 0
M  V30 23 H 0.611995 -3.370021 -3.564436 0
M  V30 24 H 2.259581 -3.420586 -2.768063 0
M  V30 25 H 0.621614 -1.096398 -3.592221 0
M  V30 26 H 2.241725 -1.472171 -3.990035 0
M  V30 27 H 3.101537 -0.930779 -1.997087 0
M  V30 28 H 1.753235 0.230192 -1.953116 0
M  V30 29 H -2.608562 1.457748 2.596390 0
M  V30 30 H -2.979742 2.126773 4.915997 0
M  V30 END ATOM
M  V30 BEGIN BOND
M  V30 1 2 1 2
M  V30 2 1 2 3
M  V30 3 1 3 4
M  V30 4 2 4 5
M  V30 5 1 5 6
M  V30 6 2 6 7
M  V30 7 1 7 8
M  V30 8 1 8 9
M  V30 9 1 9 10
M  V30 10 1 10 11
M  V30 11 1 11 12
M  V30 12 1 7 13
M  V30 13 2 3 14
M  V30 14 1 14 15
M  V30 15 2 15 16
M  V30 16 1 16 17
M  V30 17 1 16 1
M  V30 18 1 13 4
M  V30 19 1 12 8
M  V30 20 1 1 18
M  V30 21 1 2 19
M  V30 22 1 8 20 CFG=1
M  V30 23 1 9 21
M  V30 24 1 9 22
M  V30 25 1 10 23
M  V30 26 1 10 24
M  V30 27 1 11 25
M  V30 28 1 11 26
M  V30 29 1 12 27
M  V30 30 1 12 28
M  V30 31 1 14 29
M  V30 32 1 15 30
M  V30 END BOND
M  V30 END CTAB
M  END
>  <Ligand_Instance>  (15) 
073_B_6

>  <Standardized_SMILES>  (15) 
[H]C1=C([H])C(C2=NN=C([C@@]3([H])C([H])([H])C([H])([H])[N+]([H])([H])C3([H])[H])O2)=C([H])C([H])=C1Cl

>  <Pocket>  (15) 
A

>  <Fsp3>  (15) 
0.333333

>  <FCStereo>  (15) 
0.083333

>  <nSPS>  (15) 
19.705882

>  <nPBF_protbound>  (15) 
0.040787

>  <nPBF_insilico>  (15) 
0.030755

>  <Nonhydrogen_Atom_RMSD_Numeric>  (15) 
0.8

$$$$
F073
     RDKit          3D

  0  0  0  0  0  0  0  0  0  0999 V3000
M  V30 BEGIN CTAB
M  V30 COUNTS 30 32 0 0 0
M  V30 BEGIN ATOM
M  V30 1 C -0.049420 0.419967 5.316422 0
M  V30 2 C 0.158743 0.040486 3.993100 0
M  V30 3 C -0.765232 0.420158 3.037118 0
M  V30 4 C -0.524791 0.010176 1.657083 0
M  V30 5 N -1.293754 0.272835 0.582282 0
M  V30 6 N -0.731614 -0.272969 -0.483890 0
M  V30 7 C 0.387265 -0.880430 -0.099227 0
M  V30 8 C 1.394235 -1.643063 -0.883333 0 CFG=1
M  V30 9 C 0.664740 -2.819605 -1.500923 0
M  V30 10 C 1.304770 -2.861139 -2.872642 0
M  V30 11 N 1.529370 -1.459056 -3.226970 0 CHG=1 VAL=4
M  V30 12 C 1.977803 -0.854655 -2.007734 0
M  V30 13 O 0.480776 -0.686516 1.213697 0
M  V30 14 C -1.881434 1.159159 3.349720 0
M  V30 15 C -2.094588 1.541152 4.670278 0
M  V30 16 C -1.175351 1.169728 5.654346 0
M  V30 17 Cl -1.529704 1.697602 7.288670 0
M  V30 18 H 0.622010 0.168430 6.138632 0
M  V30 19 H 1.051733 -0.545701 3.769355 0
M  V30 20 H 2.223795 -2.022862 -0.228327 0
M  V30 21 H 0.875711 -3.712920 -0.901121 0
M  V30 22 H -0.423573 -2.682672 -1.531060 0
M  V30 23 H 0.611995 -3.370021 -3.564436 0
M  V30 24 H 2.259581 -3.420586 -2.768063 0
M  V30 25 H 0.621614 -1.096398 -3.592221 0
M  V30 26 H 2.241725 -1.472171 -3.990035 0
M  V30 27 H 3.101537 -0.930779 -1.997087 0
M  V30 28 H 1.753235 0.230192 -1.953116 0
M  V30 29 H -2.608562 1.457748 2.596390 0
M  V30 30 H -2.979742 2.126773 4.915997 0
M  V30 END ATOM
M  V30 BEGIN BOND
M  V30 1 2 1 2
M  V30 2 1 2 3
M  V30 3 1 3 4
M  V30 4 2 4 5
M  V30 5 1 5 6
M  V30 6 2 6 7
M  V30 7 1 7 8
M  V30 8 1 8 9
M  V30 9 1 9 10
M  V30 10 1 10 11
M  V30 11 1 11 12
M  V30 12 1 7 13
M  V30 13 2 3 14
M  V30 14 1 14 15
M  V30 15 2 15 16
M  V30 16 1 16 17
M  V30 17 1 16 1
M  V30 18 1 13 4
M  V30 19 1 12 8
M  V30 20 1 1 18
M  V30 21 1 2 19
M  V30 22 1 8 20 CFG=1
M  V30 23 1 9 21
M  V30 24 1 9 22
M  V30 25 1 10 23
M  V30 26 1 10 24
M  V30 27 1 11 25
M  V30 28 1 11 26
M  V30 29 1 12 27
M  V30 30 1 12 28
M  V30 31 1 14 29
M  V30 32 1 15 30
M  V30 END BOND
M  V30 END CTAB
M  END
>  <Ligand_Instance>  (16) 
073_B_7

>  <Standardized_SMILES>  (16) 
[H]C1=C([H])C(C2=NN=C([C@@]3([H])C([H])([H])C([H])([H])[N+]([H])([H])C3([H])[H])O2)=C([H])C([H])=C1Cl

>  <Pocket>  (16) 
X

>  <Fsp3>  (16) 
0.333333

>  <FCStereo>  (16) 
0.083333

>  <nSPS>  (16) 
19.705882

>  <nPBF_protbound>  (16) 
0.031761

>  <nPBF_insilico>  (16) 
0.030755

>  <Nonhydrogen_Atom_RMSD_Numeric>  (16) 
0.9

$$$$
F073
     RDKit          3D

  0  0  0  0  0  0  0  0  0  0999 V3000
M  V30 BEGIN CTAB
M  V30 COUNTS 30 32 0 0 0
M  V30 BEGIN ATOM
M  V30 1 C -0.049420 0.419967 5.316422 0
M  V30 2 C 0.158743 0.040486 3.993100 0
M  V30 3 C -0.765232 0.420158 3.037118 0
M  V30 4 C -0.524791 0.010176 1.657083 0
M  V30 5 N -1.293754 0.272835 0.582282 0
M  V30 6 N -0.731614 -0.272969 -0.483890 0
M  V30 7 C 0.387265 -0.880430 -0.099227 0
M  V30 8 C 1.394235 -1.643063 -0.883333 0 CFG=1
M  V30 9 C 0.664740 -2.819605 -1.500923 0
M  V30 10 C 1.304770 -2.861139 -2.872642 0
M  V30 11 N 1.529370 -1.459056 -3.226970 0 CHG=1 VAL=4
M  V30 12 C 1.977803 -0.854655 -2.007734 0
M  V30 13 O 0.480776 -0.686516 1.213697 0
M  V30 14 C -1.881434 1.159159 3.349720 0
M  V30 15 C -2.094588 1.541152 4.670278 0
M  V30 16 C -1.175351 1.169728 5.654346 0
M  V30 17 Cl -1.529704 1.697602 7.288670 0
M  V30 18 H 0.622010 0.168430 6.138632 0
M  V30 19 H 1.051733 -0.545701 3.769355 0
M  V30 20 H 2.223795 -2.022862 -0.228327 0
M  V30 21 H 0.875711 -3.712920 -0.901121 0
M  V30 22 H -0.423573 -2.682672 -1.531060 0
M  V30 23 H 0.611995 -3.370021 -3.564436 0
M  V30 24 H 2.259581 -3.420586 -2.768063 0
M  V30 25 H 0.621614 -1.096398 -3.592221 0
M  V30 26 H 2.241725 -1.472171 -3.990035 0
M  V30 27 H 3.101537 -0.930779 -1.997087 0
M  V30 28 H 1.753235 0.230192 -1.953116 0
M  V30 29 H -2.608562 1.457748 2.596390 0
M  V30 30 H -2.979742 2.126773 4.915997 0
M  V30 END ATOM
M  V30 BEGIN BOND
M  V30 1 2 1 2
M  V30 2 1 2 3
M  V30 3 1 3 4
M  V30 4 2 4 5
M  V30 5 1 5 6
M  V30 6 2 6 7
M  V30 7 1 7 8
M  V30 8 1 8 9
M  V30 9 1 9 10
M  V30 10 1 10 11
M  V30 11 1 11 12
M  V30 12 1 7 13
M  V30 13 2 3 14
M  V30 14 1 14 15
M  V30 15 2 15 16
M  V30 16 1 16 17
M  V30 17 1 16 1
M  V30 18 1 13 4
M  V30 19 1 12 8
M  V30 20 1 1 18
M  V30 21 1 2 19
M  V30 22 1 8 20 CFG=1
M  V30 23 1 9 21
M  V30 24 1 9 22
M  V30 25 1 10 23
M  V30 26 1 10 24
M  V30 27 1 11 25
M  V30 28 1 11 26
M  V30 29 1 12 27
M  V30 30 1 12 28
M  V30 31 1 14 29
M  V30 32 1 15 30
M  V30 END BOND
M  V30 END CTAB
M  END
>  <Ligand_Instance>  (17) 
073_B_8

>  <Standardized_SMILES>  (17) 
[H]C1=C([H])C(C2=NN=C([C@@]3([H])C([H])([H])C([H])([H])[N+]([H])([H])C3([H])[H])O2)=C([H])C([H])=C1Cl

>  <Pocket>  (17) 
X

>  <Fsp3>  (17) 
0.333333

>  <FCStereo>  (17) 
0.083333

>  <nSPS>  (17) 
19.705882

>  <nPBF_protbound>  (17) 
0.030717

>  <nPBF_insilico>  (17) 
0.030755

>  <Nonhydrogen_Atom_RMSD_Numeric>  (17) 
1.1

$$$$
F074
     RDKit          3D

  0  0  0  0  0  0  0  0  0  0999 V3000
M  V30 BEGIN CTAB
M  V30 COUNTS 29 31 0 0 0
M  V30 BEGIN ATOM
M  V30 1 C 2.068539 -1.798499 5.182181 0
M  V30 2 N 2.516275 -2.966709 4.666882 0
M  V30 3 C 2.293914 -3.209881 3.361590 0
M  V30 4 C 1.624487 -2.302930 2.539835 0
M  V30 5 C 1.196654 -1.132530 3.134838 0
M  V30 6 C 0.491772 -0.162133 2.298723 0
M  V30 7 N -0.009993 1.037056 2.667652 0
M  V30 8 N -0.578859 1.610415 1.595061 0
M  V30 9 C -0.417278 0.743861 0.565315 0
M  V30 10 C -0.903631 0.987340 -0.819529 0 CFG=1
M  V30 11 C 0.186502 0.823664 -1.851269 0
M  V30 12 C 0.201030 -0.667425 -2.052796 0
M  V30 13 N -1.215556 -0.952225 -2.159929 0 CHG=1 VAL=4
M  V30 14 C -1.886999 -0.106056 -1.217223 0
M  V30 15 O 0.223777 -0.308305 1.004033 0
M  V30 16 C 1.391075 -0.819821 4.465926 0
M  V30 17 H 2.279826 -1.670659 6.226781 0
M  V30 18 H 2.650556 -4.146311 2.939965 0
M  V30 19 H 1.436294 -2.479120 1.491235 0
M  V30 20 H -1.405474 1.962809 -0.875533 0
M  V30 21 H 1.116820 1.237579 -1.424588 0
M  V30 22 H -0.102987 1.353963 -2.774758 0
M  V30 23 H 0.695887 -0.921140 -3.004990 0
M  V30 24 H 0.631301 -1.173223 -1.183891 0
M  V30 25 H -1.512707 -0.730826 -3.132112 0
M  V30 26 H -1.335727 -1.959402 -1.997154 0
M  V30 27 H -2.832407 0.323273 -1.606970 0
M  V30 28 H -2.140156 -0.712783 -0.320133 0
M  V30 29 H 1.059961 0.087619 4.929553 0
M  V30 END ATOM
M  V30 BEGIN BOND
M  V30 1 2 1 2
M  V30 2 1 2 3
M  V30 3 2 3 4
M  V30 4 1 4 5
M  V30 5 1 5 6
M  V30 6 2 6 7
M  V30 7 1 7 8
M  V30 8 2 8 9
M  V30 9 1 9 10
M  V30 10 1 10 11
M  V30 11 1 11 12
M  V30 12 1 12 13
M  V30 13 1 13 14
M  V30 14 1 9 15
M  V30 15 2 5 16
M  V30 16 1 16 1
M  V30 17 1 15 6
M  V30 18 1 14 10
M  V30 19 1 1 17
M  V30 20 1 3 18
M  V30 21 1 4 19
M  V30 22 1 10 20 CFG=1
M  V30 23 1 11 21
M  V30 24 1 11 22
M  V30 25 1 12 23
M  V30 26 1 12 24
M  V30 27 1 13 25
M  V30 28 1 13 26
M  V30 29 1 14 27
M  V30 30 1 14 28
M  V30 31 1 16 29
M  V30 END BOND
M  V30 END CTAB
M  END
>  <Ligand_Instance>  (18) 
074_B_7

>  <Standardized_SMILES>  (18) 
[H]C1=NC([H])=C([H])C(C2=NN=C([C@@]3([H])C([H])([H])C([H])([H])[N+]([H])([H])C3([H])[H])O2)=C1[H]

>  <Pocket>  (18) 
A

>  <Fsp3>  (18) 
0.363636

>  <FCStereo>  (18) 
0.090909

>  <nSPS>  (18) 
20.125

>  <nPBF_protbound>  (18) 
0.04156

>  <nPBF_insilico>  (18) 
0.032391

>  <Nonhydrogen_Atom_RMSD_Numeric>  (18) 
0.5

$$$$
F074
     RDKit          3D

  0  0  0  0  0  0  0  0  0  0999 V3000
M  V30 BEGIN CTAB
M  V30 COUNTS 29 31 0 0 0
M  V30 BEGIN ATOM
M  V30 1 C 2.068539 -1.798499 5.182181 0
M  V30 2 N 2.516275 -2.966709 4.666882 0
M  V30 3 C 2.293914 -3.209881 3.361590 0
M  V30 4 C 1.624487 -2.302930 2.539835 0
M  V30 5 C 1.196654 -1.132530 3.134838 0
M  V30 6 C 0.491772 -0.162133 2.298723 0
M  V30 7 N -0.009993 1.037056 2.667652 0
M  V30 8 N -0.578859 1.610415 1.595061 0
M  V30 9 C -0.417278 0.743861 0.565315 0
M  V30 10 C -0.903631 0.987340 -0.819529 0 CFG=1
M  V30 11 C 0.186502 0.823664 -1.851269 0
M  V30 12 C 0.201030 -0.667425 -2.052796 0
M  V30 13 N -1.215556 -0.952225 -2.159929 0 CHG=1 VAL=4
M  V30 14 C -1.886999 -0.106056 -1.217223 0
M  V30 15 O 0.223777 -0.308305 1.004033 0
M  V30 16 C 1.391075 -0.819821 4.465926 0
M  V30 17 H 2.279826 -1.670659 6.226781 0
M  V30 18 H 2.650556 -4.146311 2.939965 0
M  V30 19 H 1.436294 -2.479120 1.491235 0
M  V30 20 H -1.405474 1.962809 -0.875533 0
M  V30 21 H 1.116820 1.237579 -1.424588 0
M  V30 22 H -0.102987 1.353963 -2.774758 0
M  V30 23 H 0.695887 -0.921140 -3.004990 0
M  V30 24 H 0.631301 -1.173223 -1.183891 0
M  V30 25 H -1.512707 -0.730826 -3.132112 0
M  V30 26 H -1.335727 -1.959402 -1.997154 0
M  V30 27 H -2.832407 0.323273 -1.606970 0
M  V30 28 H -2.140156 -0.712783 -0.320133 0
M  V30 29 H 1.059961 0.087619 4.929553 0
M  V30 END ATOM
M  V30 BEGIN BOND
M  V30 1 2 1 2
M  V30 2 1 2 3
M  V30 3 2 3 4
M  V30 4 1 4 5
M  V30 5 1 5 6
M  V30 6 2 6 7
M  V30 7 1 7 8
M  V30 8 2 8 9
M  V30 9 1 9 10
M  V30 10 1 10 11
M  V30 11 1 11 12
M  V30 12 1 12 13
M  V30 13 1 13 14
M  V30 14 1 9 15
M  V30 15 2 5 16
M  V30 16 1 16 1
M  V30 17 1 15 6
M  V30 18 1 14 10
M  V30 19 1 1 17
M  V30 20 1 3 18
M  V30 21 1 4 19
M  V30 22 1 10 20 CFG=1
M  V30 23 1 11 21
M  V30 24 1 11 22
M  V30 25 1 12 23
M  V30 26 1 12 24
M  V30 27 1 13 25
M  V30 28 1 13 26
M  V30 29 1 14 27
M  V30 30 1 14 28
M  V30 31 1 16 29
M  V30 END BOND
M  V30 END CTAB
M  END
>  <Ligand_Instance>  (19) 
074_B_8

>  <Standardized_SMILES>  (19) 
[H]C1=NC([H])=C([H])C(C2=NN=C([C@@]3([H])C([H])([H])C([H])([H])[N+]([H])([H])C3([H])[H])O2)=C1[H]

>  <Pocket>  (19) 
X

>  <Fsp3>  (19) 
0.363636

>  <FCStereo>  (19) 
0.090909

>  <nSPS>  (19) 
20.125

>  <nPBF_protbound>  (19) 
0.024672

>  <nPBF_insilico>  (19) 
0.032391

>  <Nonhydrogen_Atom_RMSD_Numeric>  (19) 
0.9

$$$$
F102
     RDKit          3D

  0  0  0  0  0  0  0  0  0  0999 V3000
M  V30 BEGIN CTAB
M  V30 COUNTS 36 39 0 0 0
M  V30 BEGIN ATOM
M  V30 1 C 1.554391 -5.666655 4.402658 0
M  V30 2 N 2.484519 -5.629072 3.434555 0
M  V30 3 C 2.732703 -4.547830 2.673815 0
M  V30 4 C 1.987354 -3.412049 2.902262 0
M  V30 5 C 1.966216 -2.086330 2.306607 0
M  V30 6 O 2.334601 -1.148881 3.096899 0
M  V30 7 N 1.582294 -1.775178 0.972955 0
M  V30 8 C 1.127245 -2.511155 -0.208919 0
M  V30 9 C 0.049009 -1.633056 -0.862219 0
M  V30 10 C 0.039889 -0.442302 0.068923 0 CFG=2
M  V30 11 C -0.410653 0.806899 -0.531482 0
M  V30 12 N 0.056291 1.595987 -1.521954 0
M  V30 13 C -0.768455 2.654426 -1.669506 0
M  V30 14 C -0.802908 3.757182 -2.494096 0
M  V30 15 C -1.817511 4.709669 -2.405515 0
M  V30 16 C -2.782990 4.494627 -1.454248 0
M  V30 17 C -2.823135 3.403305 -0.577636 0
M  V30 18 C -1.767327 2.495571 -0.734100 0
M  V30 19 O -1.503799 1.382348 -0.087306 0
M  V30 20 C 1.544265 -0.434183 0.397081 0
M  V30 21 C 1.003756 -3.420755 3.909609 0
M  V30 22 N 0.805942 -4.563291 4.648865 0
M  V30 23 H 1.433668 -6.594525 4.963358 0
M  V30 24 H 3.424384 -4.372410 1.881892 0
M  V30 25 H 1.966686 -2.697760 -0.912094 0
M  V30 26 H 0.637106 -3.457750 0.070801 0
M  V30 27 H 0.463793 -1.288357 -1.829155 0
M  V30 28 H -0.920688 -2.137646 -0.932757 0
M  V30 29 H -0.529585 -0.779369 0.965059 0
M  V30 30 H -0.003127 3.879629 -3.237607 0
M  V30 31 H -1.855717 5.585078 -3.052329 0
M  V30 32 H -3.616159 5.179208 -1.306661 0
M  V30 33 H -3.606586 3.279277 0.156214 0
M  V30 34 H 1.829268 0.358882 1.082424 0
M  V30 35 H 2.083479 -0.446071 -0.577949 0
M  V30 36 H 0.315446 -2.664333 4.256536 0
M  V30 END ATOM
M  V30 BEGIN BOND
M  V30 1 2 1 2
M  V30 2 1 2 3
M  V30 3 2 3 4
M  V30 4 1 4 5
M  V30 5 2 5 6
M  V30 6 1 5 7
M  V30 7 1 7 8
M  V30 8 1 8 9
M  V30 9 1 9 10
M  V30 10 1 10 11
M  V30 11 2 11 12
M  V30 12 1 12 13
M  V30 13 2 13 14
M  V30 14 1 14 15
M  V30 15 2 15 16
M  V30 16 1 16 17
M  V30 17 2 17 18
M  V30 18 1 18 19
M  V30 19 1 10 20
M  V30 20 1 4 21
M  V30 21 2 21 22
M  V30 22 1 22 1
M  V30 23 1 20 7
M  V30 24 1 19 11
M  V30 25 1 18 13
M  V30 26 1 1 23
M  V30 27 1 3 24
M  V30 28 1 8 25
M  V30 29 1 8 26
M  V30 30 1 9 27
M  V30 31 1 9 28
M  V30 32 1 10 29 CFG=1
M  V30 33 1 14 30
M  V30 34 1 15 31
M  V30 35 1 16 32
M  V30 36 1 17 33
M  V30 37 1 20 34
M  V30 38 1 20 35
M  V30 39 1 21 36
M  V30 END BOND
M  V30 END CTAB
M  END
>  <Ligand_Instance>  (20) 
102_B_1

>  <Standardized_SMILES>  (20) 
[H]C1=NC([H])=C(C(=O)N2C([H])([H])C([H])([H])[C@]([H])(C3=NC4=C([H])C([H])=C([H])C([H])=C4O3)C2([H])[H])C([H])=N1

>  <Pocket>  (20) 
A

>  <Fsp3>  (20) 
0.25

>  <FCStereo>  (20) 
0.0625

>  <nSPS>  (20) 
18.0

>  <nPBF_protbound>  (20) 
0.037267

>  <nPBF_insilico>  (20) 
0.030922

>  <Nonhydrogen_Atom_RMSD_Numeric>  (20) 
1.3

$$$$
F134
     RDKit          3D

  0  0  0  0  0  0  0  0  0  0999 V3000
M  V30 BEGIN CTAB
M  V30 COUNTS 28 30 0 0 0
M  V30 BEGIN ATOM
M  V30 1 C 1.224121 -0.378454 5.074425 0
M  V30 2 C -0.108312 -0.729663 5.277522 0
M  V30 3 C -0.901382 -0.942021 4.143650 0
M  V30 4 C -0.387273 -0.809720 2.848583 0
M  V30 5 C 0.945027 -0.458286 2.741856 0
M  V30 6 C 1.780635 -0.234845 3.821561 0
M  V30 7 N 1.181291 -0.399407 1.418434 0
M  V30 8 C 0.043763 -0.701487 0.742842 0
M  V30 9 C -0.137796 -0.753302 -0.725399 0 CFG=1
M  V30 10 C 0.147606 0.573626 -1.400072 0
M  V30 11 C 0.264898 0.109414 -2.847330 0
M  V30 12 N 0.685393 -1.263811 -2.812214 0 CHG=1 VAL=4
M  V30 13 C 0.815727 -1.664725 -1.423708 0
M  V30 14 N -0.935152 -0.957578 1.626715 0
M  V30 15 H 1.872235 -0.205091 5.938276 0
M  V30 16 H -0.538387 -0.840563 6.273871 0
M  V30 17 H -1.952656 -1.219329 4.225740 0
M  V30 18 H 2.826364 0.040844 3.680981 0
M  V30 19 H -1.178928 -1.028920 -1.018099 0
M  V30 20 H 1.118381 0.957243 -1.060354 0
M  V30 21 H -0.686213 1.287012 -1.251532 0
M  V30 22 H -0.753249 0.240074 -3.275058 0
M  V30 23 H 0.939595 0.776703 -3.428849 0
M  V30 24 H 1.556350 -1.444511 -3.356622 0
M  V30 25 H -0.111503 -1.838791 -3.190957 0
M  V30 26 H 0.596346 -2.742453 -1.278222 0
M  V30 27 H 1.834558 -1.402740 -1.095974 0
M  V30 28 H -1.935834 -1.222206 1.452544 0
M  V30 END ATOM
M  V30 BEGIN BOND
M  V30 1 2 1 2
M  V30 2 1 2 3
M  V30 3 2 3 4
M  V30 4 1 4 5
M  V30 5 2 5 6
M  V30 6 1 5 7
M  V30 7 2 7 8
M  V30 8 1 8 9
M  V30 9 1 9 10
M  V30 10 1 10 11
M  V30 11 1 11 12
M  V30 12 1 12 13
M  V30 13 1 8 14
M  V30 14 1 6 1
M  V30 15 1 13 9
M  V30 16 1 14 4
M  V30 17 1 1 15
M  V30 18 1 2 16
M  V30 19 1 3 17
M  V30 20 1 6 18
M  V30 21 1 9 19 CFG=1
M  V30 22 1 10 20
M  V30 23 1 10 21
M  V30 24 1 11 22
M  V30 25 1 11 23
M  V30 26 1 12 24
M  V30 27 1 12 25
M  V30 28 1 13 26
M  V30 29 1 13 27
M  V30 30 1 14 28
M  V30 END BOND
M  V30 END CTAB
M  END
>  <Ligand_Instance>  (21) 
134_B_6

>  <Standardized_SMILES>  (21) 
[H]C1=C([H])C([H])=C2C(=C1[H])N=C([C@@]1([H])C([H])([H])C([H])([H])[N+]([H])([H])C1([H])[H])N2[H]

>  <Pocket>  (21) 
A

>  <Fsp3>  (21) 
0.363636

>  <FCStereo>  (21) 
0.090909

>  <nSPS>  (21) 
21.857143

>  <nPBF_protbound>  (21) 
0.045501

>  <nPBF_insilico>  (21) 
0.039607

>  <Nonhydrogen_Atom_RMSD_Numeric>  (21) 
0.2

$$$$
F134
     RDKit          3D

  0  0  0  0  0  0  0  0  0  0999 V3000
M  V30 BEGIN CTAB
M  V30 COUNTS 28 30 0 0 0
M  V30 BEGIN ATOM
M  V30 1 C 1.224121 -0.378454 5.074425 0
M  V30 2 C -0.108312 -0.729663 5.277522 0
M  V30 3 C -0.901382 -0.942021 4.143650 0
M  V30 4 C -0.387273 -0.809720 2.848583 0
M  V30 5 C 0.945027 -0.458286 2.741856 0
M  V30 6 C 1.780635 -0.234845 3.821561 0
M  V30 7 N 1.181291 -0.399407 1.418434 0
M  V30 8 C 0.043763 -0.701487 0.742842 0
M  V30 9 C -0.137796 -0.753302 -0.725399 0 CFG=1
M  V30 10 C 0.147606 0.573626 -1.400072 0
M  V30 11 C 0.264898 0.109414 -2.847330 0
M  V30 12 N 0.685393 -1.263811 -2.812214 0 CHG=1 VAL=4
M  V30 13 C 0.815727 -1.664725 -1.423708 0
M  V30 14 N -0.935152 -0.957578 1.626715 0
M  V30 15 H 1.872235 -0.205091 5.938276 0
M  V30 16 H -0.538387 -0.840563 6.273871 0
M  V30 17 H -1.952656 -1.219329 4.225740 0
M  V30 18 H 2.826364 0.040844 3.680981 0
M  V30 19 H -1.178928 -1.028920 -1.018099 0
M  V30 20 H 1.118381 0.957243 -1.060354 0
M  V30 21 H -0.686213 1.287012 -1.251532 0
M  V30 22 H -0.753249 0.240074 -3.275058 0
M  V30 23 H 0.939595 0.776703 -3.428849 0
M  V30 24 H 1.556350 -1.444511 -3.356622 0
M  V30 25 H -0.111503 -1.838791 -3.190957 0
M  V30 26 H 0.596346 -2.742453 -1.278222 0
M  V30 27 H 1.834558 -1.402740 -1.095974 0
M  V30 28 H -1.935834 -1.222206 1.452544 0
M  V30 END ATOM
M  V30 BEGIN BOND
M  V30 1 2 1 2
M  V30 2 1 2 3
M  V30 3 2 3 4
M  V30 4 1 4 5
M  V30 5 2 5 6
M  V30 6 1 5 7
M  V30 7 2 7 8
M  V30 8 1 8 9
M  V30 9 1 9 10
M  V30 10 1 10 11
M  V30 11 1 11 12
M  V30 12 1 12 13
M  V30 13 1 8 14
M  V30 14 1 6 1
M  V30 15 1 13 9
M  V30 16 1 14 4
M  V30 17 1 1 15
M  V30 18 1 2 16
M  V30 19 1 3 17
M  V30 20 1 6 18
M  V30 21 1 9 19 CFG=1
M  V30 22 1 10 20
M  V30 23 1 10 21
M  V30 24 1 11 22
M  V30 25 1 11 23
M  V30 26 1 12 24
M  V30 27 1 12 25
M  V30 28 1 13 26
M  V30 29 1 13 27
M  V30 30 1 14 28
M  V30 END BOND
M  V30 END CTAB
M  END
>  <Ligand_Instance>  (22) 
134_B_7

>  <Standardized_SMILES>  (22) 
[H]C1=C([H])C([H])=C2C(=C1[H])N=C([C@@]1([H])C([H])([H])C([H])([H])[N+]([H])([H])C1([H])[H])N2[H]

>  <Pocket>  (22) 
F

>  <Fsp3>  (22) 
0.363636

>  <FCStereo>  (22) 
0.090909

>  <nSPS>  (22) 
21.857143

>  <nPBF_protbound>  (22) 
0.04253

>  <nPBF_insilico>  (22) 
0.039607

>  <Nonhydrogen_Atom_RMSD_Numeric>  (22) 
0.1

$$$$
F134
     RDKit          3D

  0  0  0  0  0  0  0  0  0  0999 V3000
M  V30 BEGIN CTAB
M  V30 COUNTS 28 30 0 0 0
M  V30 BEGIN ATOM
M  V30 1 C 1.224121 -0.378454 5.074425 0
M  V30 2 C -0.108312 -0.729663 5.277522 0
M  V30 3 C -0.901382 -0.942021 4.143650 0
M  V30 4 C -0.387273 -0.809720 2.848583 0
M  V30 5 C 0.945027 -0.458286 2.741856 0
M  V30 6 C 1.780635 -0.234845 3.821561 0
M  V30 7 N 1.181291 -0.399407 1.418434 0
M  V30 8 C 0.043763 -0.701487 0.742842 0
M  V30 9 C -0.137796 -0.753302 -0.725399 0 CFG=1
M  V30 10 C 0.147606 0.573626 -1.400072 0
M  V30 11 C 0.264898 0.109414 -2.847330 0
M  V30 12 N 0.685393 -1.263811 -2.812214 0 CHG=1 VAL=4
M  V30 13 C 0.815727 -1.664725 -1.423708 0
M  V30 14 N -0.935152 -0.957578 1.626715 0
M  V30 15 H 1.872235 -0.205091 5.938276 0
M  V30 16 H -0.538387 -0.840563 6.273871 0
M  V30 17 H -1.952656 -1.219329 4.225740 0
M  V30 18 H 2.826364 0.040844 3.680981 0
M  V30 19 H -1.178928 -1.028920 -1.018099 0
M  V30 20 H 1.118381 0.957243 -1.060354 0
M  V30 21 H -0.686213 1.287012 -1.251532 0
M  V30 22 H -0.753249 0.240074 -3.275058 0
M  V30 23 H 0.939595 0.776703 -3.428849 0
M  V30 24 H 1.556350 -1.444511 -3.356622 0
M  V30 25 H -0.111503 -1.838791 -3.190957 0
M  V30 26 H 0.596346 -2.742453 -1.278222 0
M  V30 27 H 1.834558 -1.402740 -1.095974 0
M  V30 28 H -1.935834 -1.222206 1.452544 0
M  V30 END ATOM
M  V30 BEGIN BOND
M  V30 1 2 1 2
M  V30 2 1 2 3
M  V30 3 2 3 4
M  V30 4 1 4 5
M  V30 5 2 5 6
M  V30 6 1 5 7
M  V30 7 2 7 8
M  V30 8 1 8 9
M  V30 9 1 9 10
M  V30 10 1 10 11
M  V30 11 1 11 12
M  V30 12 1 12 13
M  V30 13 1 8 14
M  V30 14 1 6 1
M  V30 15 1 13 9
M  V30 16 1 14 4
M  V30 17 1 1 15
M  V30 18 1 2 16
M  V30 19 1 3 17
M  V30 20 1 6 18
M  V30 21 1 9 19 CFG=1
M  V30 22 1 10 20
M  V30 23 1 10 21
M  V30 24 1 11 22
M  V30 25 1 11 23
M  V30 26 1 12 24
M  V30 27 1 12 25
M  V30 28 1 13 26
M  V30 29 1 13 27
M  V30 30 1 14 28
M  V30 END BOND
M  V30 END CTAB
M  END
>  <Ligand_Instance>  (23) 
134_B_8

>  <Standardized_SMILES>  (23) 
[H]C1=C([H])C([H])=C2C(=C1[H])N=C([C@@]1([H])C([H])([H])C([H])([H])[N+]([H])([H])C1([H])[H])N2[H]

>  <Pocket>  (23) 
X

>  <Fsp3>  (23) 
0.363636

>  <FCStereo>  (23) 
0.090909

>  <nSPS>  (23) 
21.857143

>  <nPBF_protbound>  (23) 
0.041061

>  <nPBF_insilico>  (23) 
0.039607

>  <Nonhydrogen_Atom_RMSD_Numeric>  (23) 
0.1

$$$$
F134
     RDKit          3D

  0  0  0  0  0  0  0  0  0  0999 V3000
M  V30 BEGIN CTAB
M  V30 COUNTS 27 29 0 0 0
M  V30 BEGIN ATOM
M  V30 1 C 2.298603 -1.689421 4.237635 0
M  V30 2 C 1.153176 -0.991834 4.562872 0
M  V30 3 C 0.260202 -0.450587 3.660599 0
M  V30 4 C 0.568527 -0.641154 2.328524 0
M  V30 5 C 1.694637 -1.327169 1.924393 0
M  V30 6 C 2.539110 -1.838770 2.888748 0
M  V30 7 N 1.665012 -1.312231 0.558902 0
M  V30 8 C 0.562073 -0.642208 0.132282 0
M  V30 9 C 0.349425 -0.512652 -1.347055 0 CFG=2
M  V30 10 C 0.106098 0.914245 -1.753873 0
M  V30 11 N -1.256425 1.154007 -1.312634 0
M  V30 12 C -1.960732 -0.090113 -1.494310 0
M  V30 13 C -0.947773 -1.177655 -1.736105 0
M  V30 14 N -0.080160 -0.248958 1.217349 0
M  V30 15 H 2.931543 -2.072770 5.006297 0
M  V30 16 H 0.946273 -0.863583 5.624364 0
M  V30 17 H -0.622744 0.087292 3.975777 0
M  V30 18 H 3.418943 -2.374772 2.567661 0
M  V30 19 H 1.216304 -0.957783 -1.885611 0
M  V30 20 H 0.821492 1.627530 -1.322814 0
M  V30 21 H 0.088956 0.918870 -2.865505 0
M  V30 22 H -1.728558 1.917175 -1.837863 0
M  V30 23 H -2.501212 -0.329890 -0.556977 0
M  V30 24 H -2.699948 -0.035024 -2.326166 0
M  V30 25 H -1.107634 -2.072680 -1.102465 0
M  V30 26 H -0.914760 -1.418879 -2.815294 0
M  V30 27 H -0.954769 0.284652 1.149505 0
M  V30 END ATOM
M  V30 BEGIN BOND
M  V30 1 2 1 2
M  V30 2 1 2 3
M  V30 3 2 3 4
M  V30 4 1 4 5
M  V30 5 2 5 6
M  V30 6 1 5 7
M  V30 7 2 7 8
M  V30 8 1 8 9
M  V30 9 1 9 10
M  V30 10 1 10 11
M  V30 11 1 11 12
M  V30 12 1 12 13
M  V30 13 1 8 14
M  V30 14 1 6 1
M  V30 15 1 13 9
M  V30 16 1 14 4
M  V30 17 1 1 15
M  V30 18 1 2 16
M  V30 19 1 3 17
M  V30 20 1 6 18
M  V30 21 1 9 19 CFG=3
M  V30 22 1 10 20
M  V30 23 1 10 21
M  V30 24 1 11 22
M  V30 25 1 12 23
M  V30 26 1 12 24
M  V30 27 1 13 25
M  V30 28 1 13 26
M  V30 29 1 14 27
M  V30 END BOND
M  V30 END CTAB
M  END
>  <Ligand_Instance>  (24) 
134_B_9

>  <Standardized_SMILES>  (24) 
[H]C1=C([H])C([H])=C2C(=C1[H])N=C([C@]1([H])C([H])([H])N([H])C([H])([H])C1([H])[H])N2[H]

>  <Pocket>  (24) 
X

>  <Fsp3>  (24) 
0.363636

>  <FCStereo>  (24) 
0.090909

>  <nSPS>  (24) 
21.857143

>  <nPBF_protbound>  (24) 
0.036374

>  <nPBF_insilico>  (24) 
0.039294

>  <Nonhydrogen_Atom_RMSD_Numeric>  (24) 
0.7

$$$$
F138
     RDKit          3D

  0  0  0  0  0  0  0  0  0  0999 V3000
M  V30 BEGIN CTAB
M  V30 COUNTS 34 36 0 0 0
M  V30 BEGIN ATOM
M  V30 1 C -1.242050 0.814492 0.385159 0
M  V30 2 C -0.037271 0.153174 0.513143 0
M  V30 3 N 0.254957 -1.158013 0.605184 0
M  V30 4 C 1.603794 -1.308129 0.717173 0
M  V30 5 C 2.132296 -2.692243 0.831284 0 CFG=1
M  V30 6 C 1.581956 -3.408969 2.028363 0
M  V30 7 C 1.336754 -4.803060 1.488481 0
M  V30 8 N 0.802482 -4.522733 0.164632 0 CHG=1 VAL=4
M  V30 9 C 1.688194 -3.515746 -0.361023 0
M  V30 10 N 2.174660 -0.093578 0.696820 0
M  V30 11 C 1.177513 0.801673 0.572457 0
M  V30 12 C 1.236650 2.177960 0.504058 0
M  V30 13 C 0.049094 2.886977 0.374872 0
M  V30 14 C -1.151278 2.209045 0.318227 0
M  V30 15 C -2.346910 3.036258 0.182163 0
M  V30 16 O -2.325117 4.312211 0.116170 0
M  V30 17 O -3.630991 2.528612 0.110069 0
M  V30 18 C -4.776044 3.377382 -0.023245 0
M  V30 19 H -2.194583 0.334055 0.337166 0
M  V30 20 H 3.224906 -2.624204 0.911993 0
M  V30 21 H 0.582093 -3.020419 2.341160 0
M  V30 22 H 2.289897 -3.413261 2.887157 0
M  V30 23 H 0.614942 -5.368218 2.111867 0
M  V30 24 H 2.301594 -5.351052 1.385995 0
M  V30 25 H -0.147260 -4.127142 0.230656 0
M  V30 26 H 0.812968 -5.396871 -0.438582 0
M  V30 27 H 2.606392 -3.913130 -0.831499 0
M  V30 28 H 1.133231 -2.863504 -1.071932 0
M  V30 29 H 3.210505 0.006629 0.771406 0
M  V30 30 H 2.188556 2.683360 0.550684 0
M  V30 31 H 0.086907 3.966150 0.320565 0
M  V30 32 H -5.456756 2.845995 -0.729625 0
M  V30 33 H -4.498556 4.348772 -0.470933 0
M  V30 34 H -5.285129 3.554041 0.928179 0
M  V30 END ATOM
M  V30 BEGIN BOND
M  V30 1 2 1 2
M  V30 2 1 2 3
M  V30 3 2 3 4
M  V30 4 1 4 5
M  V30 5 1 5 6
M  V30 6 1 6 7
M  V30 7 1 7 8
M  V30 8 1 8 9
M  V30 9 1 4 10
M  V30 10 1 10 11
M  V30 11 2 11 12
M  V30 12 1 12 13
M  V30 13 2 13 14
M  V30 14 1 14 15
M  V30 15 2 15 16
M  V30 16 1 15 17
M  V30 17 1 17 18
M  V30 18 1 14 1
M  V30 19 1 11 2
M  V30 20 1 9 5
M  V30 21 1 1 19
M  V30 22 1 5 20 CFG=1
M  V30 23 1 6 21
M  V30 24 1 6 22
M  V30 25 1 7 23
M  V30 26 1 7 24
M  V30 27 1 8 25
M  V30 28 1 8 26
M  V30 29 1 9 27
M  V30 30 1 9 28
M  V30 31 1 10 29
M  V30 32 1 12 30
M  V30 33 1 13 31
M  V30 34 1 18 32
M  V30 35 1 18 33
M  V30 36 1 18 34
M  V30 END BOND
M  V30 END CTAB
M  END
>  <Ligand_Instance>  (25) 
138_B_1

>  <Standardized_SMILES>  (25) 
[H]C1=C2N=C([C@@]3([H])C([H])([H])C([H])([H])[N+]([H])([H])C3([H])[H])N([H])C2=C([H])C([H])=C1C(=O)OC([H])([H])[H]

>  <Pocket>  (25) 
A

>  <Fsp3>  (25) 
0.384615

>  <FCStereo>  (25) 
0.076923

>  <nSPS>  (25) 
19.277778

>  <nPBF_protbound>  (25) 
0.030267

>  <nPBF_insilico>  (25) 
0.027386

>  <Nonhydrogen_Atom_RMSD_Numeric>  (25) 
0.7

$$$$
F145
     RDKit          3D

  0  0  0  0  0  0  0  0  0  0999 V3000
M  V30 BEGIN CTAB
M  V30 COUNTS 30 32 0 0 0
M  V30 BEGIN ATOM
M  V30 1 C -0.461109 -1.404432 2.483915 0
M  V30 2 C 0.765540 -1.332240 1.883341 0
M  V30 3 C 1.908649 -2.322408 2.033850 0
M  V30 4 C 1.875276 -3.418654 2.785213 0
M  V30 5 C 2.937410 -4.243551 2.861177 0
M  V30 6 C 4.065652 -3.836580 2.079949 0
M  V30 7 Cl 5.680961 -4.724188 1.949050 0
M  V30 8 S 3.445923 -2.229900 1.279723 0
M  V30 9 N 0.884879 -0.245921 1.100079 0
M  V30 10 C -0.318384 0.381430 1.220333 0
M  V30 11 C -0.586932 1.658295 0.483694 0 CFG=2
M  V30 12 C -2.106774 1.733891 0.316317 0
M  V30 13 O -2.506003 0.429639 0.056948 0
M  V30 14 C -1.974326 -0.137000 -1.066033 0
M  V30 15 C -0.589735 0.250646 -1.431105 0
M  V30 16 N -0.100574 1.476013 -0.885236 0 CHG=1 VAL=4
M  V30 17 N -1.130317 -0.305281 2.046951 0
M  V30 18 H -0.790758 -2.189094 3.159248 0
M  V30 19 H 0.984176 -3.698753 3.374471 0
M  V30 20 H 3.086286 -5.161178 3.410542 0
M  V30 21 H 1.715560 0.035775 0.537026 0
M  V30 22 H -0.166971 2.538320 0.962410 0
M  V30 23 H -2.542786 2.018409 1.289730 0
M  V30 24 H -2.406844 2.462143 -0.460030 0
M  V30 25 H -2.706440 -0.018183 -1.913752 0
M  V30 26 H -1.966801 -1.253324 -0.891208 0
M  V30 27 H -0.573328 0.378434 -2.545461 0
M  V30 28 H 0.152510 -0.574173 -1.255887 0
M  V30 29 H 0.943927 1.410604 -0.811589 0
M  V30 30 H -0.315790 2.304121 -1.470760 0
M  V30 END ATOM
M  V30 BEGIN BOND
M  V30 1 2 1 2
M  V30 2 1 2 3
M  V30 3 2 3 4
M  V30 4 1 4 5
M  V30 5 2 5 6
M  V30 6 1 6 7
M  V30 7 1 6 8
M  V30 8 1 2 9
M  V30 9 1 9 10
M  V30 10 1 10 11
M  V30 11 1 11 12
M  V30 12 1 12 13
M  V30 13 1 13 14
M  V30 14 1 14 15
M  V30 15 1 15 16
M  V30 16 2 10 17
M  V30 17 1 17 1
M  V30 18 1 8 3
M  V30 19 1 16 11
M  V30 20 1 1 18
M  V30 21 1 4 19
M  V30 22 1 5 20
M  V30 23 1 9 21
M  V30 24 1 11 22 CFG=1
M  V30 25 1 12 23
M  V30 26 1 12 24
M  V30 27 1 14 25
M  V30 28 1 14 26
M  V30 29 1 15 27
M  V30 30 1 15 28
M  V30 31 1 16 29
M  V30 32 1 16 30
M  V30 END BOND
M  V30 END CTAB
M  END
>  <Ligand_Instance>  (26) 
145_B_5

>  <Standardized_SMILES>  (26) 
[H]C1=C(C2=C([H])C([H])=C(Cl)S2)N([H])C([C@]2([H])C([H])([H])OC([H])([H])C([H])([H])[N+]2([H])[H])=N1

>  <Pocket>  (26) 
A

>  <Fsp3>  (26) 
0.363636

>  <FCStereo>  (26) 
0.090909

>  <nSPS>  (26) 
20.647059

>  <nPBF_protbound>  (26) 
0.036866

>  <nPBF_insilico>  (26) 
0.046103

>  <Nonhydrogen_Atom_RMSD_Numeric>  (26) 
1.2

$$$$
F145
     RDKit          3D

  0  0  0  0  0  0  0  0  0  0999 V3000
M  V30 BEGIN CTAB
M  V30 COUNTS 30 32 0 0 0
M  V30 BEGIN ATOM
M  V30 1 C 3.856470 -3.369320 3.430262 0
M  V30 2 C 4.932752 -3.691934 2.561548 0
M  V30 3 Cl 6.448415 -4.595478 3.135342 0
M  V30 4 S 4.334218 -2.978516 0.908312 0
M  V30 5 C 2.823025 -2.386159 1.570461 0
M  V30 6 C 1.879620 -1.694196 0.694926 0
M  V30 7 C 2.053741 -1.445629 -0.648821 0
M  V30 8 N 0.930977 -0.780746 -1.056167 0
M  V30 9 C 0.085860 -0.621535 0.002442 0
M  V30 10 C -1.241173 0.029341 0.060936 0 CFG=2
M  V30 11 C -1.493805 0.793338 -1.206186 0
M  V30 12 O -2.616786 1.613863 -1.072547 0
M  V30 13 C -3.448904 1.197744 -0.037164 0
M  V30 14 C -2.741298 1.295936 1.311935 0
M  V30 15 N -1.371364 0.895683 1.217281 0 CHG=1 VAL=4
M  V30 16 N 0.683357 -1.186573 1.064174 0
M  V30 17 C 2.825391 -2.709175 2.857962 0
M  V30 18 H 3.920144 -3.660766 4.468477 0
M  V30 19 H 2.860116 -1.687917 -1.297346 0
M  V30 20 H 0.740891 -0.444022 -2.021917 0
M  V30 21 H -1.985045 -0.783885 0.118093 0
M  V30 22 H -1.554653 0.106313 -2.061255 0
M  V30 23 H -0.645618 1.481682 -1.375271 0
M  V30 24 H -3.755571 0.161490 -0.256439 0
M  V30 25 H -4.299118 1.895388 -0.002035 0
M  V30 26 H -2.877244 2.321897 1.697035 0
M  V30 27 H -3.314817 0.610144 1.996159 0
M  V30 28 H -1.061958 0.329160 2.050430 0
M  V30 29 H -0.712007 1.694589 1.057964 0
M  V30 30 H 1.947260 -2.407857 3.414313 0
M  V30 END ATOM
M  V30 BEGIN BOND
M  V30 1 2 1 2
M  V30 2 1 2 3
M  V30 3 1 2 4
M  V30 4 1 4 5
M  V30 5 1 5 6
M  V30 6 2 6 7
M  V30 7 1 7 8
M  V30 8 1 8 9
M  V30 9 1 9 10
M  V30 10 1 10 11
M  V30 11 1 11 12
M  V30 12 1 12 13
M  V30 13 1 13 14
M  V30 14 1 14 15
M  V30 15 2 9 16
M  V30 16 2 5 17
M  V30 17 1 17 1
M  V30 18 1 16 6
M  V30 19 1 15 10
M  V30 20 1 1 18
M  V30 21 1 7 19
M  V30 22 1 8 20
M  V30 23 1 10 21 CFG=1
M  V30 24 1 11 22
M  V30 25 1 11 23
M  V30 26 1 13 24
M  V30 27 1 13 25
M  V30 28 1 14 26
M  V30 29 1 14 27
M  V30 30 1 15 28
M  V30 31 1 15 29
M  V30 32 1 17 30
M  V30 END BOND
M  V30 END CTAB
M  END
>  <Ligand_Instance>  (27) 
145_B_6

>  <Standardized_SMILES>  (27) 
[H]C1=C(Cl)SC(C2=C([H])N([H])C([C@]3([H])C([H])([H])OC([H])([H])C([H])([H])[N+]3([H])[H])=N2)=C1[H]

>  <Pocket>  (27) 
X

>  <Fsp3>  (27) 
0.363636

>  <FCStereo>  (27) 
0.090909

>  <nSPS>  (27) 
20.647059

>  <nPBF_protbound>  (27) 
0.03798

>  <nPBF_insilico>  (27) 
0.023003

>  <Nonhydrogen_Atom_RMSD_Numeric>  (27) 
1.2

$$$$
F168
     RDKit          3D

  0  0  0  0  0  0  0  0  0  0999 V3000
M  V30 BEGIN CTAB
M  V30 COUNTS 42 44 0 0 0
M  V30 BEGIN ATOM
M  V30 1 O -0.817441 -4.029498 3.937918 0
M  V30 2 C -0.037631 -3.476837 2.901919 0 CFG=1
M  V30 3 C 0.915868 -4.544052 2.402704 0
M  V30 4 C 1.456341 -4.178041 1.037995 0
M  V30 5 C 0.968233 -2.773121 0.723282 0 CFG=1
M  V30 6 C 1.637390 -2.234581 -0.522196 0
M  V30 7 C 1.192924 -0.868760 -0.867838 0
M  V30 8 N 0.138267 -0.609693 -1.674365 0
M  V30 9 O -0.001752 0.696515 -1.787312 0
M  V30 10 C 0.915692 1.317220 -1.089623 0
M  V30 11 C 1.033340 2.770631 -1.006499 0
M  V30 12 C 0.120302 3.533494 -1.707105 0
M  V30 13 C 0.155545 4.922775 -1.686677 0
M  V30 14 C 1.149731 5.479962 -0.930270 0
M  V30 15 C 2.072900 4.753217 -0.222099 0
M  V30 16 C 2.021377 3.373996 -0.255005 0
M  V30 17 C 1.700621 0.355898 -0.485816 0
M  V30 18 O -0.400625 -2.776204 0.611599 0
M  V30 19 C -0.992662 -3.189575 1.774968 0 CFG=2
M  V30 20 C -2.032453 -2.210153 2.288159 0
M  V30 21 N -1.417370 -0.922286 2.547461 0 CHG=1 VAL=4
M  V30 22 H -0.980354 -3.377040 4.673339 0
M  V30 23 H 0.448554 -2.602406 3.334734 0
M  V30 24 H 1.726465 -4.689470 3.147513 0
M  V30 25 H 0.321801 -5.490664 2.335038 0
M  V30 26 H 1.064221 -4.853893 0.250758 0
M  V30 27 H 2.573888 -4.166251 1.031108 0
M  V30 28 H 1.246524 -2.065072 1.535216 0
M  V30 29 H 2.734735 -2.171771 -0.374897 0
M  V30 30 H 1.477138 -2.901988 -1.385735 0
M  V30 31 H -0.668563 3.079457 -2.307233 0
M  V30 32 H -0.586988 5.479490 -2.256167 0
M  V30 33 H 1.191454 6.574844 -0.903519 0
M  V30 34 H 2.805868 5.296533 0.334947 0
M  V30 35 H 2.741610 2.779050 0.297625 0
M  V30 36 H 2.534746 0.512441 0.150411 0
M  V30 37 H -1.558019 -4.154037 1.618141 0
M  V30 38 H -2.836391 -2.024235 1.548334 0
M  V30 39 H -2.438471 -2.568006 3.236643 0
M  V30 40 H -0.733877 -0.732080 1.784931 0
M  V30 41 H -0.852551 -0.954661 3.441748 0
M  V30 42 H -2.125493 -0.153693 2.547579 0
M  V30 END ATOM
M  V30 BEGIN BOND
M  V30 1 1 1 2
M  V30 2 1 2 3
M  V30 3 1 3 4
M  V30 4 1 4 5
M  V30 5 1 5 6
M  V30 6 1 6 7
M  V30 7 2 7 8
M  V30 8 1 8 9
M  V30 9 1 9 10
M  V30 10 1 10 11
M  V30 11 2 11 12
M  V30 12 1 12 13
M  V30 13 2 13 14
M  V30 14 1 14 15
M  V30 15 2 15 16
M  V30 16 2 10 17
M  V30 17 1 5 18
M  V30 18 1 18 19
M  V30 19 1 19 20
M  V30 20 1 20 21
M  V30 21 1 19 2
M  V30 22 1 17 7
M  V30 23 1 16 11
M  V30 24 1 1 22
M  V30 25 1 2 23 CFG=1
M  V30 26 1 3 24
M  V30 27 1 3 25
M  V30 28 1 4 26
M  V30 29 1 4 27
M  V30 30 1 5 28 CFG=1
M  V30 31 1 6 29
M  V30 32 1 6 30
M  V30 33 1 12 31
M  V30 34 1 13 32
M  V30 35 1 14 33
M  V30 36 1 15 34
M  V30 37 1 16 35
M  V30 38 1 17 36
M  V30 39 1 19 37 CFG=3
M  V30 40 1 20 38
M  V30 41 1 20 39
M  V30 42 1 21 40
M  V30 43 1 21 41
M  V30 44 1 21 42
M  V30 END BOND
M  V30 END CTAB
M  END
>  <Ligand_Instance>  (28) 
168_B_4

>  <Standardized_SMILES>  (28) 
[H]O[C@@]1([H])C([H])([H])C([H])([H])[C@@]([H])(C([H])([H])C2=NOC(C3=C([H])C([H])=C([H])C([H])=C3[H])=C2[H])O[C@]1([H])C([H])([H])[N+]([H])([H])[H]

>  <Pocket>  (28) 
X

>  <Fsp3>  (28) 
0.4375

>  <FCStereo>  (28) 
0.1875

>  <nSPS>  (28) 
25.904762

>  <nPBF_protbound>  (28) 
0.032513

>  <nPBF_insilico>  (28) 
0.045194

>  <Nonhydrogen_Atom_RMSD_Numeric>  (28) 
2.1

$$$$
F184
     RDKit          3D

  0  0  0  0  0  0  0  0  0  0999 V3000
M  V30 BEGIN CTAB
M  V30 COUNTS 38 39 0 0 0
M  V30 BEGIN ATOM
M  V30 1 O -0.932169 -1.648342 3.984337 0
M  V30 2 C -0.292532 -0.412238 3.865089 0
M  V30 3 C 0.132945 -0.275414 2.411946 0 CFG=1
M  V30 4 C 1.042883 -1.421866 2.141642 0
M  V30 5 N 1.281075 -1.738998 0.846988 0
M  V30 6 C 2.127599 -2.802673 0.803008 0
M  V30 7 C 2.676868 -3.508619 -0.361344 0
M  V30 8 O 3.464720 -4.495228 -0.159959 0
M  V30 9 O 2.275456 -3.021839 -1.609919 0
M  V30 10 C 2.694776 -3.565631 -2.850074 0
M  V30 11 C 2.384234 -3.106268 2.146092 0
M  V30 12 O 1.716894 -2.257768 2.897660 0
M  V30 13 N -1.046014 -0.335609 1.578623 0 CHG=1 VAL=4
M  V30 14 C -1.112633 0.594340 0.513725 0
M  V30 15 C -2.374476 1.441719 0.521120 0
M  V30 16 C -2.077356 2.840574 0.004924 0
M  V30 17 O -1.340546 2.761268 -1.180731 0
M  V30 18 C -0.080692 2.207472 -0.969682 0
M  V30 19 C 0.046448 1.529903 0.383105 0
M  V30 20 H -1.865042 -1.636810 3.669652 0
M  V30 21 H 0.609147 -0.462521 4.499705 0
M  V30 22 H -0.996884 0.386440 4.165029 0
M  V30 23 H 0.673768 0.686490 2.347490 0
M  V30 24 H 3.089170 -4.584746 -2.671140 0
M  V30 25 H 3.411816 -2.929932 -3.395175 0
M  V30 26 H 1.816249 -3.705998 -3.529007 0
M  V30 27 H 3.017263 -3.895722 2.541317 0
M  V30 28 H -1.914389 -0.198301 2.161763 0
M  V30 29 H -1.111041 -1.334220 1.248878 0
M  V30 30 H -1.143311 0.014351 -0.453573 0
M  V30 31 H -2.762088 1.527176 1.564901 0
M  V30 32 H -3.154958 1.025812 -0.180209 0
M  V30 33 H -1.630683 3.490493 0.760065 0
M  V30 34 H -3.051382 3.298852 -0.280394 0
M  V30 35 H 0.087639 1.417070 -1.739664 0
M  V30 36 H 0.722122 2.950873 -1.133934 0
M  V30 37 H 1.026095 1.027985 0.366205 0
M  V30 38 H 0.063746 2.316791 1.173724 0
M  V30 END ATOM
M  V30 BEGIN BOND
M  V30 1 1 1 2
M  V30 2 1 2 3
M  V30 3 1 3 4
M  V30 4 2 4 5
M  V30 5 1 5 6
M  V30 6 1 6 7
M  V30 7 2 7 8
M  V30 8 1 7 9
M  V30 9 1 9 10
M  V30 10 2 6 11
M  V30 11 1 11 12
M  V30 12 1 3 13
M  V30 13 1 13 14
M  V30 14 1 14 15
M  V30 15 1 15 16
M  V30 16 1 16 17
M  V30 17 1 17 18
M  V30 18 1 18 19
M  V30 19 1 12 4
M  V30 20 1 19 14
M  V30 21 1 1 20
M  V30 22 1 2 21
M  V30 23 1 2 22
M  V30 24 1 3 23 CFG=1
M  V30 25 1 10 24
M  V30 26 1 10 25
M  V30 27 1 10 26
M  V30 28 1 11 27
M  V30 29 1 13 28
M  V30 30 1 13 29
M  V30 31 1 14 30
M  V30 32 1 15 31
M  V30 33 1 15 32
M  V30 34 1 16 33
M  V30 35 1 16 34
M  V30 36 1 18 35
M  V30 37 1 18 36
M  V30 38 1 19 37
M  V30 39 1 19 38
M  V30 END BOND
M  V30 END CTAB
M  END
>  <Ligand_Instance>  (29) 
184_A_401

>  <Standardized_SMILES>  (29) 
[H]OC([H])([H])[C@@]([H])(C1=NC(C(=O)OC([H])([H])[H])=C([H])O1)[N+]([H])([H])C1([H])C([H])([H])C([H])([H])OC([H])([H])C1([H])[H]

>  <Pocket>  (29) 
A

>  <Fsp3>  (29) 
0.666667

>  <FCStereo>  (29) 
0.083333

>  <nSPS>  (29) 
18.210526

>  <nPBF_protbound>  (29) 
0.050087

>  <nPBF_insilico>  (29) 
0.041876

>  <Nonhydrogen_Atom_RMSD_Numeric>  (29) 
1.1

$$$$
F186
     RDKit          3D

  0  0  0  0  0  0  0  0  0  0999 V3000
M  V30 BEGIN CTAB
M  V30 COUNTS 37 37 0 0 0
M  V30 BEGIN ATOM
M  V30 1 O -1.366782 0.477495 4.152730 0
M  V30 2 C -0.021223 0.413013 3.811533 0
M  V30 3 C 0.166144 -0.501272 2.647263 0 CFG=2
M  V30 4 C 1.607693 -0.643074 2.324135 0
M  V30 5 N 1.884234 -1.250121 1.139033 0
M  V30 6 C 3.244581 -1.289690 1.016659 0
M  V30 7 C 4.092076 -1.832577 -0.063402 0
M  V30 8 O 5.345296 -1.817626 -0.076580 0
M  V30 9 O 3.390554 -2.390126 -1.119783 0
M  V30 10 C 3.967964 -2.971291 -2.264906 0
M  V30 11 C 3.756182 -0.688570 2.163796 0
M  V30 12 O 2.737088 -0.325468 2.901352 0
M  V30 13 N -0.587712 -0.025257 1.480545 0
M  V30 14 C -1.612853 -0.751673 0.805991 0
M  V30 15 O -1.890820 -1.902161 1.256161 0
M  V30 16 C -2.186999 0.001301 -0.341850 0
M  V30 17 C -2.806838 1.304497 0.050121 0
M  V30 18 C -1.077137 0.233236 -1.361305 0
M  V30 19 C -3.198808 -0.923878 -1.021476 0
M  V30 20 H -1.533175 -0.126699 4.926094 0
M  V30 21 H 0.415584 1.397766 3.596411 0
M  V30 22 H 0.546609 -0.009963 4.660251 0
M  V30 23 H -0.223201 -1.522147 2.885972 0
M  V30 24 H 5.062352 -3.018269 -2.242650 0
M  V30 25 H 3.574339 -4.014644 -2.440014 0
M  V30 26 H 3.568258 -2.390240 -3.145125 0
M  V30 27 H 4.776564 -0.507766 2.479710 0
M  V30 28 H -0.204828 0.941784 1.270563 0
M  V30 29 H -3.331188 1.240370 1.018270 0
M  V30 30 H -2.074743 2.125782 0.028384 0
M  V30 31 H -3.601143 1.527282 -0.717324 0
M  V30 32 H -1.533576 0.333597 -2.353964 0
M  V30 33 H -0.448900 -0.684573 -1.357502 0
M  V30 34 H -0.514231 1.122524 -1.020924 0
M  V30 35 H -2.672193 -1.704026 -1.601717 0
M  V30 36 H -3.807441 -0.347227 -1.760339 0
M  V30 37 H -3.844083 -1.436733 -0.283141 0
M  V30 END ATOM
M  V30 BEGIN BOND
M  V30 1 1 1 2
M  V30 2 1 2 3
M  V30 3 1 3 4
M  V30 4 2 4 5
M  V30 5 1 5 6
M  V30 6 1 6 7
M  V30 7 2 7 8
M  V30 8 1 7 9
M  V30 9 1 9 10
M  V30 10 2 6 11
M  V30 11 1 11 12
M  V30 12 1 3 13
M  V30 13 1 13 14
M  V30 14 2 14 15
M  V30 15 1 14 16
M  V30 16 1 16 17
M  V30 17 1 16 18
M  V30 18 1 16 19
M  V30 19 1 12 4
M  V30 20 1 1 20
M  V30 21 1 2 21
M  V30 22 1 2 22
M  V30 23 1 3 23 CFG=1
M  V30 24 1 10 24
M  V30 25 1 10 25
M  V30 26 1 10 26
M  V30 27 1 11 27
M  V30 28 1 13 28
M  V30 29 1 17 29
M  V30 30 1 17 30
M  V30 31 1 17 31
M  V30 32 1 18 32
M  V30 33 1 18 33
M  V30 34 1 18 34
M  V30 35 1 19 35
M  V30 36 1 19 36
M  V30 37 1 19 37
M  V30 END BOND
M  V30 END CTAB
M  END
>  <Ligand_Instance>  (30) 
186_A_402

>  <Standardized_SMILES>  (30) 
[H]OC([H])([H])[C@]([H])(C1=NC(C(=O)OC([H])([H])[H])=C([H])O1)N([H])C(=O)C(C([H])([H])[H])(C([H])([H])[H])C([H])([H])[H]

>  <Pocket>  (30) 
A

>  <Fsp3>  (30) 
0.583333

>  <FCStereo>  (30) 
0.083333

>  <nSPS>  (30) 
12.894737

>  <nPBF_protbound>  (30) 
0.036574

>  <nPBF_insilico>  (30) 
0.03919

>  <Nonhydrogen_Atom_RMSD_Numeric>  (30) 
0.8

$$$$
F188
     RDKit          3D

  0  0  0  0  0  0  0  0  0  0999 V3000
M  V30 BEGIN CTAB
M  V30 COUNTS 37 38 0 0 0
M  V30 BEGIN ATOM
M  V30 1 C -2.394167 -0.946060 2.597841 0
M  V30 2 C -1.714478 -0.765521 1.412125 0
M  V30 3 C -0.322026 -0.909188 1.376524 0
M  V30 4 C 0.414753 -0.725186 0.114473 0 CFG=2
M  V30 5 C 0.907624 -2.057170 -0.408668 0
M  V30 6 O 1.940303 -2.707072 -0.793257 0
M  V30 7 N -0.188792 -2.959146 -0.529417 0
M  V30 8 C 0.086193 -4.313964 -1.024497 0
M  V30 9 N 1.584511 0.092397 0.185094 0 CFG=1 CHG=1 VAL=4
M  V30 10 C 1.940298 0.348700 -1.231016 0
M  V30 11 C 0.898801 1.351108 -1.699111 0
M  V30 12 C 0.459096 2.058051 -0.434967 0
M  V30 13 C 1.374097 1.456050 0.601852 0 CFG=1
M  V30 14 C 0.983141 1.663420 1.982906 0
M  V30 15 O -0.163299 1.982890 2.448615 0
M  V30 16 O 1.998752 1.490430 2.924064 0 CHG=-1 VAL=1
M  V30 17 C 0.303303 -1.231057 2.560040 0
M  V30 18 C -0.372511 -1.414505 3.757369 0
M  V30 19 C -1.761004 -1.268427 3.779724 0
M  V30 20 Cl -2.599320 -1.504368 5.304028 0
M  V30 21 H -3.473190 -0.849904 2.696148 0
M  V30 22 H -2.290773 -0.509118 0.509050 0
M  V30 23 H -0.223434 -0.316386 -0.694760 0
M  V30 24 H -1.203297 -2.782859 -0.305355 0
M  V30 25 H -0.725780 -5.019260 -0.804809 0
M  V30 26 H 0.987951 -4.673845 -0.467219 0
M  V30 27 H 0.380162 -4.288861 -2.104913 0
M  V30 28 H 2.417978 -0.361302 0.601406 0
M  V30 29 H 2.962213 0.763361 -1.316710 0
M  V30 30 H 1.806708 -0.597171 -1.757896 0
M  V30 31 H 0.090520 0.918696 -2.286524 0
M  V30 32 H 1.441017 2.043576 -2.388628 0
M  V30 33 H 0.689627 3.135464 -0.564162 0
M  V30 34 H -0.608464 1.969520 -0.212008 0
M  V30 35 H 2.362928 1.981119 0.445294 0
M  V30 36 H 1.382717 -1.345149 2.545055 0
M  V30 37 H 0.225487 -1.665688 4.625279 0
M  V30 END ATOM
M  V30 BEGIN BOND
M  V30 1 2 1 2
M  V30 2 1 2 3
M  V30 3 1 3 4
M  V30 4 1 4 5
M  V30 5 2 5 6
M  V30 6 1 5 7
M  V30 7 1 7 8
M  V30 8 1 4 9
M  V30 9 1 9 10
M  V30 10 1 10 11
M  V30 11 1 11 12
M  V30 12 1 12 13
M  V30 13 1 13 14
M  V30 14 2 14 15
M  V30 15 1 14 16
M  V30 16 2 3 17
M  V30 17 1 17 18
M  V30 18 2 18 19
M  V30 19 1 19 20
M  V30 20 1 19 1
M  V30 21 1 13 9
M  V30 22 1 1 21
M  V30 23 1 2 22
M  V30 24 1 4 23 CFG=3
M  V30 25 1 7 24
M  V30 26 1 8 25
M  V30 27 1 8 26
M  V30 28 1 8 27
M  V30 29 1 9 28 CFG=1
M  V30 30 1 10 29
M  V30 31 1 10 30
M  V30 32 1 11 31
M  V30 33 1 11 32
M  V30 34 1 12 33
M  V30 35 1 12 34
M  V30 36 1 13 35 CFG=1
M  V30 37 1 17 36
M  V30 38 1 18 37
M  V30 END BOND
M  V30 END CTAB
M  END
>  <Ligand_Instance>  (31) 
188_A_401

>  <Standardized_SMILES>  (31) 
[H]C1=C([H])C([C@]([H])(C(=O)N([H])C([H])([H])[H])[N@@+]2([H])C([H])([H])C([H])([H])C([H])([H])[C@@]2([H])C(=O)[O-])=C([H])C([H])=C1Cl

>  <Pocket>  (31) 
X

>  <Fsp3>  (31) 
0.428571

>  <FCStereo>  (31) 
0.142857

>  <nSPS>  (31) 
23.3

>  <nPBF_protbound>  (31) 
0.042487

>  <nPBF_insilico>  (31) 
0.048816

>  <Nonhydrogen_Atom_RMSD_Numeric>  (31) 
0.9

$$$$
F188
     RDKit          3D

  0  0  0  0  0  0  0  0  0  0999 V3000
M  V30 BEGIN CTAB
M  V30 COUNTS 37 38 0 0 0
M  V30 BEGIN ATOM
M  V30 1 C -2.025977 -1.155689 3.087047 0
M  V30 2 C -1.016009 -0.746076 2.238190 0
M  V30 3 C -0.799913 -1.364917 1.023642 0
M  V30 4 C 0.274930 -0.963694 0.069596 0 CFG=2
M  V30 5 C 1.586100 -1.581481 0.444680 0
M  V30 6 O 2.791416 -1.239922 0.705754 0
M  V30 7 N 1.530386 -3.019959 0.563592 0
M  V30 8 C 2.807164 -3.647772 0.931246 0
M  V30 9 N 0.301128 0.452212 -0.054308 0 CFG=2 CHG=1 VAL=4
M  V30 10 C -0.337226 0.814287 -1.302261 0
M  V30 11 C -0.045438 2.258630 -1.510523 0
M  V30 12 C 1.271283 2.414926 -0.778948 0
M  V30 13 C 1.591505 1.072106 -0.152495 0 CFG=1
M  V30 14 C 2.148056 1.400362 1.203042 0
M  V30 15 O 2.305294 2.217500 2.172143 0
M  V30 16 O 2.729595 1.535877 2.451734 0 CHG=-1 VAL=1
M  V30 17 C -1.668327 -2.413292 0.735681 0
M  V30 18 C -2.683999 -2.841918 1.564916 0
M  V30 19 C -2.858820 -2.190054 2.768580 0
M  V30 20 Cl -4.146669 -2.735039 3.817873 0
M  V30 21 H -2.177096 -0.654402 4.036558 0
M  V30 22 H -0.385126 0.068369 2.524629 0
M  V30 23 H 0.025363 -1.451726 -0.910446 0
M  V30 24 H 0.666390 -3.606516 0.407917 0
M  V30 25 H 2.596892 -4.711052 1.155392 0
M  V30 26 H 3.302968 -3.122058 1.763809 0
M  V30 27 H 3.528203 -3.654867 0.080826 0
M  V30 28 H -0.209986 0.964965 0.698283 0
M  V30 29 H -1.416726 0.573978 -1.252503 0
M  V30 30 H 0.098270 0.202393 -2.121769 0
M  V30 31 H -0.860036 2.862584 -1.087055 0
M  V30 32 H 0.037915 2.434661 -2.603121 0
M  V30 33 H 2.088755 2.717437 -1.487295 0
M  V30 34 H 1.109596 3.191695 -0.019483 0
M  V30 35 H 2.319674 0.579249 -0.790327 0
M  V30 36 H -1.561733 -2.951157 -0.203500 0
M  V30 37 H -3.320155 -3.666063 1.271874 0
M  V30 END ATOM
M  V30 BEGIN BOND
M  V30 1 2 1 2
M  V30 2 1 2 3
M  V30 3 1 3 4
M  V30 4 1 4 5
M  V30 5 2 5 6
M  V30 6 1 5 7
M  V30 7 1 7 8
M  V30 8 1 4 9
M  V30 9 1 9 10
M  V30 10 1 10 11
M  V30 11 1 11 12
M  V30 12 1 12 13
M  V30 13 1 13 14
M  V30 14 2 14 15
M  V30 15 1 14 16
M  V30 16 2 3 17
M  V30 17 1 17 18
M  V30 18 2 18 19
M  V30 19 1 19 20
M  V30 20 1 19 1
M  V30 21 1 13 9
M  V30 22 1 1 21
M  V30 23 1 2 22
M  V30 24 1 4 23 CFG=3
M  V30 25 1 7 24
M  V30 26 1 8 25
M  V30 27 1 8 26
M  V30 28 1 8 27
M  V30 29 1 9 28 CFG=1
M  V30 30 1 10 29
M  V30 31 1 10 30
M  V30 32 1 11 31
M  V30 33 1 11 32
M  V30 34 1 12 33
M  V30 35 1 12 34
M  V30 36 1 13 35 CFG=3
M  V30 37 1 17 36
M  V30 38 1 18 37
M  V30 END BOND
M  V30 END CTAB
M  END
>  <Ligand_Instance>  (32) 
188_A_501

>  <Standardized_SMILES>  (32) 
[H]C1=C([H])C([C@]([H])(C(=O)N([H])C([H])([H])[H])[N@+]2([H])C([H])([H])C([H])([H])C([H])([H])[C@@]2([H])C(=O)[O-])=C([H])C([H])=C1Cl

>  <Pocket>  (32) 
X

>  <Fsp3>  (32) 
0.428571

>  <FCStereo>  (32) 
0.142857

>  <nSPS>  (32) 
23.3

>  <nPBF_protbound>  (32) 
0.054471

>  <nPBF_insilico>  (32) 
0.053106

>  <Nonhydrogen_Atom_RMSD_Numeric>  (32) 
0.7

$$$$
F189
     RDKit          3D

  0  0  0  0  0  0  0  0  0  0999 V3000
M  V30 BEGIN CTAB
M  V30 COUNTS 36 37 0 0 0
M  V30 BEGIN ATOM
M  V30 1 O 1.238958 -2.873291 -2.602601 0
M  V30 2 C 2.319492 -2.791902 -1.726210 0
M  V30 3 C 1.864519 -3.349643 -0.405993 0 CFG=1
M  V30 4 O 2.838366 -3.333775 0.569407 0
M  V30 5 C 2.253429 -2.890560 1.750093 0
M  V30 6 C 1.261126 -1.848019 1.261027 0 CFG=1
M  V30 7 N 2.008616 -0.745548 0.793660 0
M  V30 8 S 1.687103 0.777207 1.452228 0
M  V30 9 O 1.946539 0.703728 2.936046 0
M  V30 10 O 2.714504 1.739835 0.902676 0
M  V30 11 C 0.084738 1.364024 1.199317 0
M  V30 12 C -0.926249 1.093937 2.109372 0
M  V30 13 C -2.224961 1.538152 1.956911 0
M  V30 14 C -2.498467 2.277928 0.845396 0
M  V30 15 C -3.900521 2.765380 0.667656 0
M  V30 16 C -1.522204 2.568403 -0.082948 0
M  V30 17 C -0.229903 2.124416 0.072038 0
M  V30 18 C 0.640665 -2.663574 0.117398 0 CFG=2
M  V30 19 O -0.173224 -3.613833 0.713446 0
M  V30 20 H 0.918313 -1.988363 -2.909873 0
M  V30 21 H 3.091815 -3.502999 -2.121094 0
M  V30 22 H 2.764321 -1.798351 -1.687533 0
M  V30 23 H 1.623925 -4.423981 -0.594036 0
M  V30 24 H 3.053535 -2.454591 2.373120 0
M  V30 25 H 1.759950 -3.728477 2.292420 0
M  V30 26 H 0.512602 -1.622911 2.033949 0
M  V30 27 H 2.981119 -0.916612 0.534664 0
M  V30 28 H -0.641732 0.499872 2.972517 0
M  V30 29 H -2.931804 1.265775 2.732747 0
M  V30 30 H -4.604951 2.060943 1.173995 0
M  V30 31 H -4.200540 2.727626 -0.418979 0
M  V30 32 H -4.051439 3.796650 0.994149 0
M  V30 33 H -1.745428 3.156701 -0.964320 0
M  V30 34 H 0.534084 2.364720 -0.676152 0
M  V30 35 H 0.129144 -2.009143 -0.606614 0
M  V30 36 H -0.361776 -4.396596 0.137105 0
M  V30 END ATOM
M  V30 BEGIN BOND
M  V30 1 1 1 2
M  V30 2 1 2 3
M  V30 3 1 3 4
M  V30 4 1 4 5
M  V30 5 1 5 6
M  V30 6 1 6 7
M  V30 7 1 7 8
M  V30 8 2 8 9
M  V30 9 2 8 10
M  V30 10 1 8 11
M  V30 11 2 11 12
M  V30 12 1 12 13
M  V30 13 2 13 14
M  V30 14 1 14 15
M  V30 15 1 14 16
M  V30 16 2 16 17
M  V30 17 1 6 18
M  V30 18 1 18 19
M  V30 19 1 18 3
M  V30 20 1 17 11
M  V30 21 1 1 20
M  V30 22 1 2 21
M  V30 23 1 2 22
M  V30 24 1 3 23 CFG=3
M  V30 25 1 5 24
M  V30 26 1 5 25
M  V30 27 1 6 26 CFG=1
M  V30 28 1 7 27
M  V30 29 1 12 28
M  V30 30 1 13 29
M  V30 31 1 15 30
M  V30 32 1 15 31
M  V30 33 1 15 32
M  V30 34 1 16 33
M  V30 35 1 17 34
M  V30 36 1 18 35 CFG=3
M  V30 37 1 19 36
M  V30 END BOND
M  V30 END CTAB
M  END
>  <Ligand_Instance>  (33) 
189_A_401

>  <Standardized_SMILES>  (33) 
[H]OC([H])([H])[C@@]1([H])OC([H])([H])[C@@]([H])(N([H])S(=O)(=O)C2=C([H])C([H])=C(C([H])([H])[H])C([H])=C2[H])[C@]1([H])O[H]

>  <Pocket>  (33) 
E

>  <Fsp3>  (33) 
0.5

>  <FCStereo>  (33) 
0.25

>  <nSPS>  (33) 
27.631579

>  <nPBF_protbound>  (33) 
0.049378

>  <nPBF_insilico>  (33) 
0.057631

>  <Nonhydrogen_Atom_RMSD_Numeric>  (33) 
1.9

$$$$
F203
     RDKit          3D

  0  0  0  0  0  0  0  0  0  0999 V3000
M  V30 BEGIN CTAB
M  V30 COUNTS 34 35 0 0 0
M  V30 BEGIN ATOM
M  V30 1 O -2.680283 -2.536560 0.683870 0
M  V30 2 C -2.013473 -1.468999 1.250338 0 CFG=2
M  V30 3 C -0.705407 -1.935139 1.801207 0 CFG=1
M  V30 4 C 0.266818 -0.868084 2.112504 0
M  V30 5 N 0.802044 -0.130439 1.002605 0
M  V30 6 C 1.528764 -0.780304 -0.027936 0
M  V30 7 O 1.666602 -2.012686 0.096604 0
M  V30 8 C 2.107356 -0.113148 -1.190184 0
M  V30 9 C 2.779445 -0.924446 -2.082545 0
M  V30 10 C 3.365725 -0.369215 -3.225412 0
M  V30 11 C 3.254621 1.007899 -3.436581 0
M  V30 12 F 3.827304 1.554157 -4.554058 0
M  V30 13 C 2.578867 1.811765 -2.535933 0
M  V30 14 C 2.001436 1.237887 -1.402515 0
M  V30 15 O -1.101768 -2.526085 3.004894 0
M  V30 16 C -1.975525 -1.602239 3.575945 0
M  V30 17 C -2.798851 -1.024437 2.471947 0 CFG=1
M  V30 18 N -2.925116 0.411922 2.499304 0 CHG=1 VAL=4
M  V30 19 H -3.267494 -3.018993 1.323616 0
M  V30 20 H -1.932252 -0.598343 0.573742 0
M  V30 21 H -0.268964 -2.786673 1.225557 0
M  V30 22 H 1.142866 -1.341174 2.609075 0
M  V30 23 H -0.152862 -0.169429 2.836528 0
M  V30 24 H 0.668676 0.917795 0.923705 0
M  V30 25 H 2.930863 -2.000396 -2.025851 0
M  V30 26 H 3.904743 -0.945947 -3.962412 0
M  V30 27 H 2.506933 2.890338 -2.726619 0
M  V30 28 H 1.471104 1.865423 -0.694738 0
M  V30 29 H -2.671240 -2.166170 4.238599 0
M  V30 30 H -1.474578 -0.859612 4.228749 0
M  V30 31 H -3.835144 -1.450259 2.445250 0
M  V30 32 H -3.893235 0.702157 2.165206 0
M  V30 33 H -2.290235 0.857149 1.795269 0
M  V30 34 H -2.819345 0.828798 3.458516 0
M  V30 END ATOM
M  V30 BEGIN BOND
M  V30 1 1 1 2
M  V30 2 1 2 3
M  V30 3 1 3 4
M  V30 4 1 4 5
M  V30 5 1 5 6
M  V30 6 2 6 7
M  V30 7 1 6 8
M  V30 8 2 8 9
M  V30 9 1 9 10
M  V30 10 2 10 11
M  V30 11 1 11 12
M  V30 12 1 11 13
M  V30 13 2 13 14
M  V30 14 1 3 15
M  V30 15 1 15 16
M  V30 16 1 16 17
M  V30 17 1 17 18
M  V30 18 1 17 2
M  V30 19 1 14 8
M  V30 20 1 1 19
M  V30 21 1 2 20 CFG=3
M  V30 22 1 3 21 CFG=3
M  V30 23 1 4 22
M  V30 24 1 4 23
M  V30 25 1 5 24
M  V30 26 1 9 25
M  V30 27 1 10 26
M  V30 28 1 13 27
M  V30 29 1 14 28
M  V30 30 1 16 29
M  V30 31 1 16 30
M  V30 32 1 17 31 CFG=3
M  V30 33 1 18 32
M  V30 34 1 18 33
M  V30 35 1 18 34
M  V30 END BOND
M  V30 END CTAB
M  END
>  <Ligand_Instance>  (34) 
203_B_1

>  <Standardized_SMILES>  (34) 
[H]O[C@]1([H])[C@@]([H])(C([H])([H])N([H])C(=O)C2=C([H])C([H])=C(F)C([H])=C2[H])OC([H])([H])[C@@]1([H])[N+]([H])([H])[H]

>  <Pocket>  (34) 
A

>  <Fsp3>  (34) 
0.416667

>  <FCStereo>  (34) 
0.25

>  <nSPS>  (34) 
27.166667

>  <nPBF_protbound>  (34) 
0.037852

>  <nPBF_insilico>  (34) 
0.042856

>  <Nonhydrogen_Atom_RMSD_Numeric>  (34) 
1.4

$$$$
F225
     RDKit          3D

  0  0  0  0  0  0  0  0  0  0999 V3000
M  V30 BEGIN CTAB
M  V30 COUNTS 36 37 0 0 0
M  V30 BEGIN ATOM
M  V30 1 O -2.816020 -1.862470 0.725136 0
M  V30 2 C -2.002328 -0.744982 0.834191 0
M  V30 3 N -0.907759 -0.648489 0.174598 0
M  V30 4 C -0.438223 -1.660129 -0.708122 0
M  V30 5 C 0.250326 -2.826716 -0.099689 0 CFG=1
M  V30 6 O 0.605172 -3.644025 -1.209484 0
M  V30 7 C 1.651566 -2.956194 -1.830679 0
M  V30 8 C 2.348603 -2.134186 -0.755193 0 CFG=2
M  V30 9 O 3.710813 -2.438351 -0.699157 0
M  V30 10 C 1.607701 -2.617265 0.463651 0 CFG=1
M  V30 11 N 1.725693 -1.828744 1.633870 0 CHG=1 VAL=4
M  V30 12 N -2.303174 0.380675 1.677318 0
M  V30 13 C -1.577758 1.616898 1.523610 0
M  V30 14 C -1.867123 2.765345 0.847198 0
M  V30 15 C -0.957923 3.790014 0.870438 0
M  V30 16 C 0.240776 3.721506 1.545403 0
M  V30 17 C 0.528562 2.566433 2.224309 0
M  V30 18 C -0.372681 1.507988 2.220861 0
M  V30 19 H -2.657108 -2.500847 -0.061760 0
M  V30 20 H 0.266736 -1.124373 -1.412556 0
M  V30 21 H -1.215298 -2.050719 -1.402501 0
M  V30 22 H -0.406808 -3.449872 0.538942 0
M  V30 23 H 1.337718 -2.378648 -2.703105 0
M  V30 24 H 2.380367 -3.737778 -2.152820 0
M  V30 25 H 2.202400 -1.055692 -0.849830 0
M  V30 26 H 4.184615 -1.654554 -0.302513 0
M  V30 27 H 2.023025 -3.658016 0.644597 0
M  V30 28 H 2.352822 -1.008976 1.452954 0
M  V30 29 H 0.840126 -1.503992 2.069668 0
M  V30 30 H 2.215886 -2.395341 2.378425 0
M  V30 31 H -3.069876 0.258570 2.399399 0
M  V30 32 H -2.824854 2.700777 0.361222 0
M  V30 33 H -1.253007 4.679713 0.309233 0
M  V30 34 H 0.912632 4.555290 1.526833 0
M  V30 35 H 1.494355 2.540777 2.754233 0
M  V30 36 H 0.003713 0.669501 2.806305 0
M  V30 END ATOM
M  V30 BEGIN BOND
M  V30 1 1 1 2
M  V30 2 2 2 3
M  V30 3 1 3 4
M  V30 4 1 4 5
M  V30 5 1 5 6
M  V30 6 1 6 7
M  V30 7 1 7 8
M  V30 8 1 8 9
M  V30 9 1 8 10
M  V30 10 1 10 11
M  V30 11 1 2 12
M  V30 12 1 12 13
M  V30 13 2 13 14
M  V30 14 1 14 15
M  V30 15 2 15 16
M  V30 16 1 16 17
M  V30 17 2 17 18
M  V30 18 1 10 5
M  V30 19 1 18 13
M  V30 20 1 1 19
M  V30 21 1 4 20
M  V30 22 1 4 21
M  V30 23 1 5 22 CFG=1
M  V30 24 1 7 23
M  V30 25 1 7 24
M  V30 26 1 8 25 CFG=3
M  V30 27 1 9 26
M  V30 28 1 10 27 CFG=1
M  V30 29 1 11 28
M  V30 30 1 11 29
M  V30 31 1 11 30
M  V30 32 1 12 31
M  V30 33 1 14 32
M  V30 34 1 15 33
M  V30 35 1 16 34
M  V30 36 1 17 35
M  V30 37 1 18 36
M  V30 END BOND
M  V30 END CTAB
M  END
>  <Ligand_Instance>  (35) 
225_L_401

>  <Standardized_SMILES>  (35) 
[H]O/C(=N\C([H])([H])[C@@]1([H])OC([H])([H])[C@]([H])(O[H])[C@@]1([H])[N+]([H])([H])[H])N([H])C1=C([H])C([H])=C([H])C([H])=C1[H]

>  <Pocket>  (35) 
A

>  <Fsp3>  (35) 
0.416667

>  <FCStereo>  (35) 
0.25

>  <nSPS>  (35) 
28.333333

>  <nPBF_protbound>  (35) 
0.047433

>  <nPBF_insilico>  (35) 
0.056503

>  <Nonhydrogen_Atom_RMSD_Numeric>  (35) 
2.1

$$$$
F225
     RDKit          3D

  0  0  0  0  0  0  0  0  0  0999 V3000
M  V30 BEGIN CTAB
M  V30 COUNTS 36 37 0 0 0
M  V30 BEGIN ATOM
M  V30 1 O 0.514153 -5.435493 -0.294718 0
M  V30 2 C -0.456271 -4.940178 0.575379 0 CFG=1
M  V30 3 C 0.004515 -5.017699 2.018917 0
M  V30 4 O 0.649170 -3.849799 2.311115 0
M  V30 5 C 0.729310 -3.051101 1.204190 0 CFG=2
M  V30 6 C 0.740412 -1.576761 1.521598 0
M  V30 7 N 0.828037 -0.869733 0.254617 0
M  V30 8 C 0.845013 0.523913 0.442231 0
M  V30 9 O 0.786979 1.001862 1.607061 0
M  V30 10 N 0.925646 1.476471 -0.619064 0
M  V30 11 C 0.942272 2.889442 -0.418436 0
M  V30 12 C 2.031912 3.715869 -0.235402 0
M  V30 13 C 1.829518 5.070825 -0.056277 0
M  V30 14 C 0.576117 5.637195 -0.052493 0
M  V30 15 C -0.504764 4.800454 -0.236448 0
M  V30 16 C -0.347146 3.424943 -0.421200 0
M  V30 17 C -0.501737 -3.432833 0.406123 0 CFG=2
M  V30 18 N -1.718043 -2.977130 1.060300 0 CHG=1 VAL=4
M  V30 19 H 0.448391 -5.029461 -1.197362 0
M  V30 20 H -1.453082 -5.400184 0.436890 0
M  V30 21 H 0.570837 -5.947277 2.200883 0
M  V30 22 H -0.935953 -5.030203 2.639730 0
M  V30 23 H 1.612876 -3.267511 0.568290 0
M  V30 24 H 1.598160 -1.365931 2.179277 0
M  V30 25 H -0.174452 -1.263880 2.064176 0
M  V30 26 H 0.877955 -1.244861 -0.734852 0
M  V30 27 H 0.974905 1.103260 -1.596185 0
M  V30 28 H 2.958237 3.179765 -0.254811 0
M  V30 29 H 2.721431 5.655062 0.080493 0
M  V30 30 H 0.443230 6.701350 0.089772 0
M  V30 31 H -1.499334 5.272770 -0.230239 0
M  V30 32 H -1.268775 2.902297 -0.551094 0
M  V30 33 H -0.440813 -3.123603 -0.640554 0
M  V30 34 H -2.535031 -3.557877 0.765455 0
M  V30 35 H -1.943659 -1.981141 0.817812 0
M  V30 36 H -1.616348 -3.119692 2.089812 0
M  V30 END ATOM
M  V30 BEGIN BOND
M  V30 1 1 1 2
M  V30 2 1 2 3
M  V30 3 1 3 4
M  V30 4 1 4 5
M  V30 5 1 5 6
M  V30 6 1 6 7
M  V30 7 1 7 8
M  V30 8 2 8 9
M  V30 9 1 8 10
M  V30 10 1 10 11
M  V30 11 2 11 12
M  V30 12 1 12 13
M  V30 13 2 13 14
M  V30 14 1 14 15
M  V30 15 2 15 16
M  V30 16 1 5 17
M  V30 17 1 17 18
M  V30 18 1 17 2
M  V30 19 1 16 11
M  V30 20 1 1 19
M  V30 21 1 2 20 CFG=1
M  V30 22 1 3 21
M  V30 23 1 3 22
M  V30 24 1 5 23 CFG=3
M  V30 25 1 6 24
M  V30 26 1 6 25
M  V30 27 1 7 26
M  V30 28 1 10 27
M  V30 29 1 12 28
M  V30 30 1 13 29
M  V30 31 1 14 30
M  V30 32 1 15 31
M  V30 33 1 16 32
M  V30 34 1 17 33 CFG=3
M  V30 35 1 18 34
M  V30 36 1 18 35
M  V30 37 1 18 36
M  V30 END BOND
M  V30 END CTAB
M  END
>  <Ligand_Instance>  (36) 
225_L_501

>  <Standardized_SMILES>  (36) 
[H]O[C@@]1([H])C([H])([H])O[C@]([H])(C([H])([H])N([H])C(=O)N([H])C2=C([H])C([H])=C([H])C([H])=C2[H])[C@]1([H])[N+]([H])([H])[H]

>  <Pocket>  (36) 
X

>  <Fsp3>  (36) 
0.416667

>  <FCStereo>  (36) 
0.25

>  <nSPS>  (36) 
26.888889

>  <nPBF_protbound>  (36) 
0.042105

>  <nPBF_insilico>  (36) 
0.041517

>  <Nonhydrogen_Atom_RMSD_Numeric>  (36) 
0.9

$$$$
F236
     RDKit          3D

  0  0  0  0  0  0  0  0  0  0999 V3000
M  V30 BEGIN CTAB
M  V30 COUNTS 36 37 0 0 0
M  V30 BEGIN ATOM
M  V30 1 C 1.146760 -2.426585 -0.291476 0
M  V30 2 C 1.592713 -3.429265 0.578383 0
M  V30 3 C 1.400238 -3.298832 1.937907 0
M  V30 4 S 1.924842 -4.502521 3.099941 0
M  V30 5 O 1.040925 -4.408494 4.308513 0
M  V30 6 O 1.948724 -5.884241 2.532605 0
M  V30 7 C 3.599063 -4.098283 3.609158 0
M  V30 8 C 0.763399 -2.163015 2.394642 0
M  V30 9 C 0.320770 -1.170326 1.545692 0
M  V30 10 C 0.499990 -1.274936 0.183162 0
M  V30 11 O 0.189695 -0.492631 -0.907793 0
M  V30 12 C -0.467179 0.742998 -0.803355 0 CFG=1
M  V30 13 C 0.443030 1.800677 -1.409816 0
M  V30 14 O -0.078018 3.062366 -1.247995 0
M  V30 15 C -0.812088 3.243424 -0.087800 0
M  V30 16 C -2.203609 2.656295 -0.198600 0
M  V30 17 N -2.412363 2.012709 -1.480156 0 CHG=1 VAL=4
M  V30 18 C -1.748632 0.755662 -1.597359 0
M  V30 19 H 1.390744 -2.711805 -1.326865 0
M  V30 20 H 2.092666 -4.332570 0.286394 0
M  V30 21 H 3.974699 -4.799106 4.353884 0
M  V30 22 H 3.650589 -3.042211 3.969718 0
M  V30 23 H 4.253678 -4.144587 2.699055 0
M  V30 24 H 0.559873 -1.957571 3.444819 0
M  V30 25 H -0.182635 -0.252617 1.792653 0
M  V30 26 H -0.666615 0.938755 0.261553 0
M  V30 27 H 1.475933 1.717606 -0.994648 0
M  V30 28 H 0.517531 1.559719 -2.492058 0
M  V30 29 H -0.274420 2.865553 0.805955 0
M  V30 30 H -0.854483 4.359006 0.080972 0
M  V30 31 H -2.470985 1.986166 0.635273 0
M  V30 32 H -2.927231 3.504605 -0.172226 0
M  V30 33 H -3.442387 1.878266 -1.590106 0
M  V30 34 H -2.125018 2.713090 -2.200931 0
M  V30 35 H -1.493406 0.549419 -2.662487 0
M  V30 36 H -2.413127 -0.083593 -1.261624 0
M  V30 END ATOM
M  V30 BEGIN BOND
M  V30 1 2 1 2
M  V30 2 1 2 3
M  V30 3 1 3 4
M  V30 4 2 4 5
M  V30 5 2 4 6
M  V30 6 1 4 7
M  V30 7 2 3 8
M  V30 8 1 8 9
M  V30 9 2 9 10
M  V30 10 1 10 11
M  V30 11 1 11 12
M  V30 12 1 12 13
M  V30 13 1 13 14
M  V30 14 1 14 15
M  V30 15 1 15 16
M  V30 16 1 16 17
M  V30 17 1 17 18
M  V30 18 1 10 1
M  V30 19 1 18 12
M  V30 20 1 1 19
M  V30 21 1 2 20
M  V30 22 1 7 21
M  V30 23 1 7 22
M  V30 24 1 7 23
M  V30 25 1 8 24
M  V30 26 1 9 25
M  V30 27 1 12 26 CFG=1
M  V30 28 1 13 27
M  V30 29 1 13 28
M  V30 30 1 15 29
M  V30 31 1 15 30
M  V30 32 1 16 31
M  V30 33 1 16 32
M  V30 34 1 17 33
M  V30 35 1 17 34
M  V30 36 1 18 35
M  V30 37 1 18 36
M  V30 END BOND
M  V30 END CTAB
M  END
>  <Ligand_Instance>  (37) 
236_L_401

>  <Standardized_SMILES>  (37) 
[H]C1=C([H])C(S(=O)(=O)C([H])([H])[H])=C([H])C([H])=C1O[C@@]1([H])C([H])([H])OC([H])([H])C([H])([H])[N+]([H])([H])C1([H])[H]

>  <Pocket>  (37) 
X

>  <Fsp3>  (37) 
0.5

>  <FCStereo>  (37) 
0.083333

>  <nSPS>  (37) 
21.277778

>  <nPBF_protbound>  (37) 
0.046453

>  <nPBF_insilico>  (37) 
0.047901

>  <Nonhydrogen_Atom_RMSD_Numeric>  (37) 
0.9

$$$$
F248
     RDKit          3D

  0  0  0  0  0  0  0  0  0  0999 V3000
M  V30 BEGIN CTAB
M  V30 COUNTS 32 34 0 0 0
M  V30 BEGIN ATOM
M  V30 1 C -2.753739 -3.246520 3.273363 0
M  V30 2 C -1.595997 -3.948710 2.927083 0
M  V30 3 C -0.470276 -3.247656 2.497615 0
M  V30 4 C -0.522957 -1.851575 2.421920 0
M  V30 5 C 0.756759 -1.304074 1.950484 0
M  V30 6 O 1.764382 -1.553099 2.664070 0
M  V30 7 N 0.683526 -0.549143 0.723357 0
M  V30 8 C -0.540352 -0.324576 -0.019012 0
M  V30 9 C -0.161091 -0.225387 -1.484174 0
M  V30 10 N 0.739090 0.916985 -1.575150 0
M  V30 11 C 0.791783 2.252201 -2.079034 0
M  V30 12 O -0.282534 2.803876 -2.474759 0
M  V30 13 O 2.110001 2.687174 -2.020575 0
M  V30 14 C 2.697123 2.027161 -0.887782 0
M  V30 15 C 2.025453 0.668806 -0.965896 0 CFG=1
M  V30 16 C 1.974162 -0.050487 0.333184 0
M  V30 17 C -1.666098 -1.156639 2.763726 0
M  V30 18 C -2.772426 -1.865233 3.187103 0
M  V30 19 H -3.640861 -3.782149 3.610650 0
M  V30 20 H -1.613436 -5.026259 3.005219 0
M  V30 21 H 0.358941 -3.874917 2.257956 0
M  V30 22 H -0.916786 0.692403 0.272161 0
M  V30 23 H -1.282950 -1.114932 0.124789 0
M  V30 24 H 0.406599 -1.120300 -1.802604 0
M  V30 25 H -1.089016 -0.090526 -2.080470 0
M  V30 26 H 2.425312 2.581854 0.012947 0
M  V30 27 H 3.790021 1.985892 -1.079176 0
M  V30 28 H 2.625407 0.090734 -1.698730 0
M  V30 29 H 2.434977 0.585470 1.142935 0
M  V30 30 H 2.651299 -0.951925 0.298773 0
M  V30 31 H -1.577768 -0.085816 2.661988 0
M  V30 32 H -3.650661 -1.266930 3.445412 0
M  V30 END ATOM
M  V30 BEGIN BOND
M  V30 1 2 1 2
M  V30 2 1 2 3
M  V30 3 2 3 4
M  V30 4 1 4 5
M  V30 5 2 5 6
M  V30 6 1 5 7
M  V30 7 1 7 8
M  V30 8 1 8 9
M  V30 9 1 9 10
M  V30 10 1 10 11
M  V30 11 2 11 12
M  V30 12 1 11 13
M  V30 13 1 13 14
M  V30 14 1 14 15
M  V30 15 1 15 16
M  V30 16 1 4 17
M  V30 17 2 17 18
M  V30 18 1 18 1
M  V30 19 1 16 7
M  V30 20 1 15 10
M  V30 21 1 1 19
M  V30 22 1 2 20
M  V30 23 1 3 21
M  V30 24 1 8 22
M  V30 25 1 8 23
M  V30 26 1 9 24
M  V30 27 1 9 25
M  V30 28 1 14 26
M  V30 29 1 14 27
M  V30 30 1 15 28 CFG=3
M  V30 31 1 16 29
M  V30 32 1 16 30
M  V30 33 1 17 31
M  V30 34 1 18 32
M  V30 END BOND
M  V30 END CTAB
M  END
>  <Ligand_Instance>  (38) 
248_B_1

>  <Standardized_SMILES>  (38) 
[H]C1=C([H])C([H])=C(C(=O)N2C([H])([H])C([H])([H])N3C(=O)OC([H])([H])[C@@]3([H])C2([H])[H])C([H])=C1[H]

>  <Pocket>  (38) 
A

>  <Fsp3>  (38) 
0.384615

>  <FCStereo>  (38) 
0.076923

>  <nSPS>  (38) 
22.666667

>  <nPBF_protbound>  (38) 
0.035988

>  <nPBF_insilico>  (38) 
0.043344

>  <Nonhydrogen_Atom_RMSD_Numeric>  (38) 
0.8

$$$$
F264
     RDKit          3D

  0  0  0  0  0  0  0  0  0  0999 V3000
M  V30 BEGIN CTAB
M  V30 COUNTS 38 40 0 0 0
M  V30 BEGIN ATOM
M  V30 1 C 3.318445 -2.695608 -0.220799 0
M  V30 2 C 4.292092 -2.674439 0.783847 0
M  V30 3 F 5.587308 -3.006143 0.537768 0
M  V30 4 C 3.877783 -2.294903 2.064917 0
M  V30 5 C 2.569716 -1.956601 2.327086 0
M  V30 6 N 1.826380 -1.565370 3.377737 0
M  V30 7 C 0.568996 -1.382079 3.018075 0
M  V30 8 N 0.413276 -1.648344 1.679312 0
M  V30 9 C 1.654936 -1.995925 1.295626 0
M  V30 10 C 1.997766 -2.361563 0.011037 0
M  V30 11 C -0.953409 -1.450502 1.273478 0 CFG=1
M  V30 12 C -1.273560 -1.458030 -0.148660 0
M  V30 13 N -0.600713 -0.422686 -0.906386 0
M  V30 14 C -0.750622 0.984016 -0.661325 0
M  V30 15 O -1.499118 1.429695 0.253085 0
M  V30 16 N -0.097270 2.001845 -1.393376 0
M  V30 17 C -0.437456 3.347543 -0.923923 0
M  V30 18 C -1.935163 3.554067 -1.064118 0
M  V30 19 C -1.764763 -2.357067 2.170365 0
M  V30 20 O -1.752868 -1.828523 3.462076 0
M  V30 21 C -0.698725 -0.971529 3.724116 0
M  V30 22 H 3.636223 -2.993356 -1.232116 0
M  V30 23 H 4.576907 -2.259176 2.877243 0
M  V30 24 H 1.295199 -2.405935 -0.806350 0
M  V30 25 H -1.229429 -0.404942 1.649949 0
M  V30 26 H -2.373403 -1.219207 -0.254115 0
M  V30 27 H -1.093795 -2.392708 -0.695001 0
M  V30 28 H 0.069099 -0.576953 -1.719201 0
M  V30 29 H 0.544637 1.718361 -2.173001 0
M  V30 30 H -0.161100 3.440755 0.160608 0
M  V30 31 H 0.135249 4.124973 -1.454979 0
M  V30 32 H -2.446518 3.550712 -0.092424 0
M  V30 33 H -2.378469 2.731237 -1.685731 0
M  V30 34 H -2.084847 4.528455 -1.593003 0
M  V30 35 H -1.209880 -3.318433 2.218710 0
M  V30 36 H -2.771359 -2.573473 1.811734 0
M  V30 37 H -0.478863 -1.106578 4.821564 0
M  V30 38 H -0.897959 0.087282 3.588358 0
M  V30 END ATOM
M  V30 BEGIN BOND
M  V30 1 2 1 2
M  V30 2 1 2 3
M  V30 3 1 2 4
M  V30 4 2 4 5
M  V30 5 1 5 6
M  V30 6 2 6 7
M  V30 7 1 7 8
M  V30 8 1 8 9
M  V30 9 2 9 10
M  V30 10 1 8 11
M  V30 11 1 11 12
M  V30 12 1 12 13
M  V30 13 1 13 14
M  V30 14 2 14 15
M  V30 15 1 14 16
M  V30 16 1 16 17
M  V30 17 1 17 18
M  V30 18 1 11 19
M  V30 19 1 19 20
M  V30 20 1 20 21
M  V30 21 1 10 1
M  V30 22 1 9 5
M  V30 23 1 21 7
M  V30 24 1 1 22
M  V30 25 1 4 23
M  V30 26 1 10 24
M  V30 27 1 11 25 CFG=1
M  V30 28 1 12 26
M  V30 29 1 12 27
M  V30 30 1 13 28
M  V30 31 1 16 29
M  V30 32 1 17 30
M  V30 33 1 17 31
M  V30 34 1 18 32
M  V30 35 1 18 33
M  V30 36 1 18 34
M  V30 37 1 19 35
M  V30 38 1 19 36
M  V30 39 1 21 37
M  V30 40 1 21 38
M  V30 END BOND
M  V30 END CTAB
M  END
>  <Ligand_Instance>  (39) 
264_B_3

>  <Standardized_SMILES>  (39) 
[H]C1=C(F)C([H])=C2N=C3N(C2=C1[H])[C@@]([H])(C([H])([H])N([H])C(=O)N([H])C([H])([H])C([H])([H])[H])C([H])([H])OC3([H])[H]

>  <Pocket>  (39) 
F

>  <Fsp3>  (39) 
0.428571

>  <FCStereo>  (39) 
0.071429

>  <nSPS>  (39) 
17.52381

>  <nPBF_protbound>  (39) 
0.055074

>  <nPBF_insilico>  (39) 
0.051789

>  <Nonhydrogen_Atom_RMSD_Numeric>  (39) 
2.1

$$$$
F274
     RDKit          3D

  0  0  0  0  0  0  0  0  0  0999 V3000
M  V30 BEGIN CTAB
M  V30 COUNTS 36 37 0 0 0
M  V30 BEGIN ATOM
M  V30 1 O -2.058567 -1.075535 2.985904 0
M  V30 2 C -1.363970 0.094816 3.258146 0
M  V30 3 C -0.571441 0.536815 2.042442 0 CFG=1
M  V30 4 N 0.397379 -0.448210 1.618987 0
M  V30 5 C 1.001898 -1.218093 2.689279 0
M  V30 6 C 0.899588 -0.833998 0.326547 0
M  V30 7 N 1.345768 -2.113068 0.504808 0
M  V30 8 C 1.891505 -2.799275 -0.521366 0
M  V30 9 C 2.401336 -4.191496 -0.415886 0
M  V30 10 C 1.980303 -2.165197 -1.744799 0
M  V30 11 C 1.524783 -0.868455 -1.913897 0
M  V30 12 C 0.965485 -0.161360 -0.867657 0
M  V30 13 C 0.580624 1.185345 -1.366101 0
M  V30 14 N -0.837637 1.440568 -1.293368 0 CHG=1 VAL=4
M  V30 15 C -1.230893 1.923844 0.037608 0
M  V30 16 C -1.618320 0.810405 0.963956 0
M  V30 17 H -2.094020 -1.705229 3.740826 0
M  V30 18 H -2.160933 0.886110 3.369476 0
M  V30 19 H -0.797270 0.093423 4.191670 0
M  V30 20 H -0.028683 1.466509 2.325788 0
M  V30 21 H 1.522610 -2.085404 2.278734 0
M  V30 22 H 0.284730 -1.561591 3.454802 0
M  V30 23 H 1.796978 -0.574134 3.166666 0
M  V30 24 H 3.496721 -4.266929 -0.371913 0
M  V30 25 H 2.041801 -4.684817 0.523986 0
M  V30 26 H 1.990111 -4.822892 -1.254980 0
M  V30 27 H 2.405895 -2.652586 -2.612766 0
M  V30 28 H 1.582394 -0.340011 -2.873484 0
M  V30 29 H 1.053229 1.905448 -0.636115 0
M  V30 30 H 1.038305 1.391265 -2.344696 0
M  V30 31 H -1.032754 2.204459 -2.007232 0
M  V30 32 H -1.336701 0.575691 -1.536176 0
M  V30 33 H -2.155124 2.565192 -0.061359 0
M  V30 34 H -0.464284 2.614844 0.441671 0
M  V30 35 H -2.640099 0.877854 1.355553 0
M  V30 36 H -1.597078 -0.131180 0.339930 0
M  V30 END ATOM
M  V30 BEGIN BOND
M  V30 1 1 1 2
M  V30 2 1 2 3
M  V30 3 1 3 4
M  V30 4 1 4 5
M  V30 5 1 4 6
M  V30 6 2 6 7
M  V30 7 1 7 8
M  V30 8 1 8 9
M  V30 9 2 8 10
M  V30 10 1 10 11
M  V30 11 2 11 12
M  V30 12 1 12 13
M  V30 13 1 13 14
M  V30 14 1 14 15
M  V30 15 1 15 16
M  V30 16 1 16 3
M  V30 17 1 12 6
M  V30 18 1 1 17
M  V30 19 1 2 18
M  V30 20 1 2 19
M  V30 21 1 3 20 CFG=1
M  V30 22 1 5 21
M  V30 23 1 5 22
M  V30 24 1 5 23
M  V30 25 1 9 24
M  V30 26 1 9 25
M  V30 27 1 9 26
M  V30 28 1 10 27
M  V30 29 1 11 28
M  V30 30 1 13 29
M  V30 31 1 13 30
M  V30 32 1 14 31
M  V30 33 1 14 32
M  V30 34 1 15 33
M  V30 35 1 15 34
M  V30 36 1 16 35
M  V30 37 1 16 36
M  V30 END BOND
M  V30 END CTAB
M  END
>  <Ligand_Instance>  (40) 
274_A_401

>  <Standardized_SMILES>  (40) 
[H]OC([H])([H])[C@@]1([H])N(C([H])([H])[H])C2=NC(C([H])([H])[H])=C([H])C([H])=C2C([H])([H])[N+]([H])([H])C([H])([H])C1([H])[H]

>  <Pocket>  (40) 
A

>  <Fsp3>  (40) 
0.583333

>  <FCStereo>  (40) 
0.083333

>  <nSPS>  (40) 
21.1875

>  <nPBF_protbound>  (40) 
0.048444

>  <nPBF_insilico>  (40) 
0.042869

>  <Nonhydrogen_Atom_RMSD_Numeric>  (40) 
1.0

$$$$
F274
     RDKit          3D

  0  0  0  0  0  0  0  0  0  0999 V3000
M  V30 BEGIN CTAB
M  V30 COUNTS 36 37 0 0 0
M  V30 BEGIN ATOM
M  V30 1 O -2.058567 -1.075535 2.985904 0
M  V30 2 C -1.363970 0.094816 3.258146 0
M  V30 3 C -0.571441 0.536815 2.042442 0 CFG=1
M  V30 4 N 0.397379 -0.448210 1.618987 0
M  V30 5 C 1.001898 -1.218093 2.689279 0
M  V30 6 C 0.899588 -0.833998 0.326547 0
M  V30 7 N 1.345768 -2.113068 0.504808 0
M  V30 8 C 1.891505 -2.799275 -0.521366 0
M  V30 9 C 2.401336 -4.191496 -0.415886 0
M  V30 10 C 1.980303 -2.165197 -1.744799 0
M  V30 11 C 1.524783 -0.868455 -1.913897 0
M  V30 12 C 0.965485 -0.161360 -0.867657 0
M  V30 13 C 0.580624 1.185345 -1.366101 0
M  V30 14 N -0.837637 1.440568 -1.293368 0 CHG=1 VAL=4
M  V30 15 C -1.230893 1.923844 0.037608 0
M  V30 16 C -1.618320 0.810405 0.963956 0
M  V30 17 H -2.094020 -1.705229 3.740826 0
M  V30 18 H -2.160933 0.886110 3.369476 0
M  V30 19 H -0.797270 0.093423 4.191670 0
M  V30 20 H -0.028683 1.466509 2.325788 0
M  V30 21 H 1.522610 -2.085404 2.278734 0
M  V30 22 H 0.284730 -1.561591 3.454802 0
M  V30 23 H 1.796978 -0.574134 3.166666 0
M  V30 24 H 3.496721 -4.266929 -0.371913 0
M  V30 25 H 2.041801 -4.684817 0.523986 0
M  V30 26 H 1.990111 -4.822892 -1.254980 0
M  V30 27 H 2.405895 -2.652586 -2.612766 0
M  V30 28 H 1.582394 -0.340011 -2.873484 0
M  V30 29 H 1.053229 1.905448 -0.636115 0
M  V30 30 H 1.038305 1.391265 -2.344696 0
M  V30 31 H -1.032754 2.204459 -2.007232 0
M  V30 32 H -1.336701 0.575691 -1.536176 0
M  V30 33 H -2.155124 2.565192 -0.061359 0
M  V30 34 H -0.464284 2.614844 0.441671 0
M  V30 35 H -2.640099 0.877854 1.355553 0
M  V30 36 H -1.597078 -0.131180 0.339930 0
M  V30 END ATOM
M  V30 BEGIN BOND
M  V30 1 1 1 2
M  V30 2 1 2 3
M  V30 3 1 3 4
M  V30 4 1 4 5
M  V30 5 1 4 6
M  V30 6 2 6 7
M  V30 7 1 7 8
M  V30 8 1 8 9
M  V30 9 2 8 10
M  V30 10 1 10 11
M  V30 11 2 11 12
M  V30 12 1 12 13
M  V30 13 1 13 14
M  V30 14 1 14 15
M  V30 15 1 15 16
M  V30 16 1 16 3
M  V30 17 1 12 6
M  V30 18 1 1 17
M  V30 19 1 2 18
M  V30 20 1 2 19
M  V30 21 1 3 20 CFG=1
M  V30 22 1 5 21
M  V30 23 1 5 22
M  V30 24 1 5 23
M  V30 25 1 9 24
M  V30 26 1 9 25
M  V30 27 1 9 26
M  V30 28 1 10 27
M  V30 29 1 11 28
M  V30 30 1 13 29
M  V30 31 1 13 30
M  V30 32 1 14 31
M  V30 33 1 14 32
M  V30 34 1 15 33
M  V30 35 1 15 34
M  V30 36 1 16 35
M  V30 37 1 16 36
M  V30 END BOND
M  V30 END CTAB
M  END
>  <Ligand_Instance>  (41) 
274_A_501

>  <Standardized_SMILES>  (41) 
[H]OC([H])([H])[C@@]1([H])N(C([H])([H])[H])C2=NC(C([H])([H])[H])=C([H])C([H])=C2C([H])([H])[N+]([H])([H])C([H])([H])C1([H])[H]

>  <Pocket>  (41) 
X

>  <Fsp3>  (41) 
0.583333

>  <FCStereo>  (41) 
0.083333

>  <nSPS>  (41) 
21.1875

>  <nPBF_protbound>  (41) 
0.050938

>  <nPBF_insilico>  (41) 
0.042869

>  <Nonhydrogen_Atom_RMSD_Numeric>  (41) 
1.1

$$$$
F274
     RDKit          3D

  0  0  0  0  0  0  0  0  0  0999 V3000
M  V30 BEGIN CTAB
M  V30 COUNTS 36 37 0 0 0
M  V30 BEGIN ATOM
M  V30 1 O -2.058567 -1.075535 2.985904 0
M  V30 2 C -1.363970 0.094816 3.258146 0
M  V30 3 C -0.571441 0.536815 2.042442 0 CFG=1
M  V30 4 N 0.397379 -0.448210 1.618987 0
M  V30 5 C 1.001898 -1.218093 2.689279 0
M  V30 6 C 0.899588 -0.833998 0.326547 0
M  V30 7 N 1.345768 -2.113068 0.504808 0
M  V30 8 C 1.891505 -2.799275 -0.521366 0
M  V30 9 C 2.401336 -4.191496 -0.415886 0
M  V30 10 C 1.980303 -2.165197 -1.744799 0
M  V30 11 C 1.524783 -0.868455 -1.913897 0
M  V30 12 C 0.965485 -0.161360 -0.867657 0
M  V30 13 C 0.580624 1.185345 -1.366101 0
M  V30 14 N -0.837637 1.440568 -1.293368 0 CHG=1 VAL=4
M  V30 15 C -1.230893 1.923844 0.037608 0
M  V30 16 C -1.618320 0.810405 0.963956 0
M  V30 17 H -2.094020 -1.705229 3.740826 0
M  V30 18 H -2.160933 0.886110 3.369476 0
M  V30 19 H -0.797270 0.093423 4.191670 0
M  V30 20 H -0.028683 1.466509 2.325788 0
M  V30 21 H 1.522610 -2.085404 2.278734 0
M  V30 22 H 0.284730 -1.561591 3.454802 0
M  V30 23 H 1.796978 -0.574134 3.166666 0
M  V30 24 H 3.496721 -4.266929 -0.371913 0
M  V30 25 H 2.041801 -4.684817 0.523986 0
M  V30 26 H 1.990111 -4.822892 -1.254980 0
M  V30 27 H 2.405895 -2.652586 -2.612766 0
M  V30 28 H 1.582394 -0.340011 -2.873484 0
M  V30 29 H 1.053229 1.905448 -0.636115 0
M  V30 30 H 1.038305 1.391265 -2.344696 0
M  V30 31 H -1.032754 2.204459 -2.007232 0
M  V30 32 H -1.336701 0.575691 -1.536176 0
M  V30 33 H -2.155124 2.565192 -0.061359 0
M  V30 34 H -0.464284 2.614844 0.441671 0
M  V30 35 H -2.640099 0.877854 1.355553 0
M  V30 36 H -1.597078 -0.131180 0.339930 0
M  V30 END ATOM
M  V30 BEGIN BOND
M  V30 1 1 1 2
M  V30 2 1 2 3
M  V30 3 1 3 4
M  V30 4 1 4 5
M  V30 5 1 4 6
M  V30 6 2 6 7
M  V30 7 1 7 8
M  V30 8 1 8 9
M  V30 9 2 8 10
M  V30 10 1 10 11
M  V30 11 2 11 12
M  V30 12 1 12 13
M  V30 13 1 13 14
M  V30 14 1 14 15
M  V30 15 1 15 16
M  V30 16 1 16 3
M  V30 17 1 12 6
M  V30 18 1 1 17
M  V30 19 1 2 18
M  V30 20 1 2 19
M  V30 21 1 3 20 CFG=1
M  V30 22 1 5 21
M  V30 23 1 5 22
M  V30 24 1 5 23
M  V30 25 1 9 24
M  V30 26 1 9 25
M  V30 27 1 9 26
M  V30 28 1 10 27
M  V30 29 1 11 28
M  V30 30 1 13 29
M  V30 31 1 13 30
M  V30 32 1 14 31
M  V30 33 1 14 32
M  V30 34 1 15 33
M  V30 35 1 15 34
M  V30 36 1 16 35
M  V30 37 1 16 36
M  V30 END BOND
M  V30 END CTAB
M  END
>  <Ligand_Instance>  (42) 
274_A_601

>  <Standardized_SMILES>  (42) 
[H]OC([H])([H])[C@@]1([H])N(C([H])([H])[H])C2=NC(C([H])([H])[H])=C([H])C([H])=C2C([H])([H])[N+]([H])([H])C([H])([H])C1([H])[H]

>  <Pocket>  (42) 
X

>  <Fsp3>  (42) 
0.583333

>  <FCStereo>  (42) 
0.083333

>  <nSPS>  (42) 
21.1875

>  <nPBF_protbound>  (42) 
0.044159

>  <nPBF_insilico>  (42) 
0.042869

>  <Nonhydrogen_Atom_RMSD_Numeric>  (42) 
0.9

$$$$
F274
     RDKit          3D

  0  0  0  0  0  0  0  0  0  0999 V3000
M  V30 BEGIN CTAB
M  V30 COUNTS 36 37 0 0 0
M  V30 BEGIN ATOM
M  V30 1 O -2.058567 -1.075535 2.985904 0
M  V30 2 C -1.363970 0.094816 3.258146 0
M  V30 3 C -0.571441 0.536815 2.042442 0 CFG=1
M  V30 4 N 0.397379 -0.448210 1.618987 0
M  V30 5 C 1.001898 -1.218093 2.689279 0
M  V30 6 C 0.899588 -0.833998 0.326547 0
M  V30 7 N 1.345768 -2.113068 0.504808 0
M  V30 8 C 1.891505 -2.799275 -0.521366 0
M  V30 9 C 2.401336 -4.191496 -0.415886 0
M  V30 10 C 1.980303 -2.165197 -1.744799 0
M  V30 11 C 1.524783 -0.868455 -1.913897 0
M  V30 12 C 0.965485 -0.161360 -0.867657 0
M  V30 13 C 0.580624 1.185345 -1.366101 0
M  V30 14 N -0.837637 1.440568 -1.293368 0 CHG=1 VAL=4
M  V30 15 C -1.230893 1.923844 0.037608 0
M  V30 16 C -1.618320 0.810405 0.963956 0
M  V30 17 H -2.094020 -1.705229 3.740826 0
M  V30 18 H -2.160933 0.886110 3.369476 0
M  V30 19 H -0.797270 0.093423 4.191670 0
M  V30 20 H -0.028683 1.466509 2.325788 0
M  V30 21 H 1.522610 -2.085404 2.278734 0
M  V30 22 H 0.284730 -1.561591 3.454802 0
M  V30 23 H 1.796978 -0.574134 3.166666 0
M  V30 24 H 3.496721 -4.266929 -0.371913 0
M  V30 25 H 2.041801 -4.684817 0.523986 0
M  V30 26 H 1.990111 -4.822892 -1.254980 0
M  V30 27 H 2.405895 -2.652586 -2.612766 0
M  V30 28 H 1.582394 -0.340011 -2.873484 0
M  V30 29 H 1.053229 1.905448 -0.636115 0
M  V30 30 H 1.038305 1.391265 -2.344696 0
M  V30 31 H -1.032754 2.204459 -2.007232 0
M  V30 32 H -1.336701 0.575691 -1.536176 0
M  V30 33 H -2.155124 2.565192 -0.061359 0
M  V30 34 H -0.464284 2.614844 0.441671 0
M  V30 35 H -2.640099 0.877854 1.355553 0
M  V30 36 H -1.597078 -0.131180 0.339930 0
M  V30 END ATOM
M  V30 BEGIN BOND
M  V30 1 1 1 2
M  V30 2 1 2 3
M  V30 3 1 3 4
M  V30 4 1 4 5
M  V30 5 1 4 6
M  V30 6 2 6 7
M  V30 7 1 7 8
M  V30 8 1 8 9
M  V30 9 2 8 10
M  V30 10 1 10 11
M  V30 11 2 11 12
M  V30 12 1 12 13
M  V30 13 1 13 14
M  V30 14 1 14 15
M  V30 15 1 15 16
M  V30 16 1 16 3
M  V30 17 1 12 6
M  V30 18 1 1 17
M  V30 19 1 2 18
M  V30 20 1 2 19
M  V30 21 1 3 20 CFG=1
M  V30 22 1 5 21
M  V30 23 1 5 22
M  V30 24 1 5 23
M  V30 25 1 9 24
M  V30 26 1 9 25
M  V30 27 1 9 26
M  V30 28 1 10 27
M  V30 29 1 11 28
M  V30 30 1 13 29
M  V30 31 1 13 30
M  V30 32 1 14 31
M  V30 33 1 14 32
M  V30 34 1 15 33
M  V30 35 1 15 34
M  V30 36 1 16 35
M  V30 37 1 16 36
M  V30 END BOND
M  V30 END CTAB
M  END
>  <Ligand_Instance>  (43) 
274_A_701

>  <Standardized_SMILES>  (43) 
[H]OC([H])([H])[C@@]1([H])N(C([H])([H])[H])C2=NC(C([H])([H])[H])=C([H])C([H])=C2C([H])([H])[N+]([H])([H])C([H])([H])C1([H])[H]

>  <Pocket>  (43) 
X

>  <Fsp3>  (43) 
0.583333

>  <FCStereo>  (43) 
0.083333

>  <nSPS>  (43) 
21.1875

>  <nPBF_protbound>  (43) 
0.051495

>  <nPBF_insilico>  (43) 
0.042869

>  <Nonhydrogen_Atom_RMSD_Numeric>  (43) 
0.6

$$$$
F283
     RDKit          3D

  0  0  0  0  0  0  0  0  0  0999 V3000
M  V30 BEGIN CTAB
M  V30 COUNTS 39 40 0 0 0
M  V30 BEGIN ATOM
M  V30 1 C -2.440097 -6.357313 2.147973 0
M  V30 2 C -2.342355 -5.163992 1.886803 0
M  V30 3 C -2.244429 -3.745116 1.591949 0
M  V30 4 N -1.284241 -3.491180 0.532311 0 CFG=2 CHG=1 VAL=4
M  V30 5 C -1.375306 -4.526956 -0.461305 0
M  V30 6 C 0.050537 -3.398281 1.104494 0
M  V30 7 C 0.284847 -1.937777 1.439326 0
M  V30 8 N 0.711237 -0.979328 0.929165 0
M  V30 9 C 0.811247 0.228073 1.460296 0
M  V30 10 C 1.381580 1.378693 0.686394 0
M  V30 11 O 2.420363 1.005014 -0.151157 0
M  V30 12 C 0.282798 2.106947 -0.076511 0
M  V30 13 C 0.995431 3.077705 -0.993555 0
M  V30 14 N 1.712471 4.028554 -0.197435 0 CHG=1 VAL=4
M  V30 15 C 2.619930 3.445234 0.752848 0
M  V30 16 C 1.950826 2.408159 1.632352 0
M  V30 17 C 0.362544 0.385073 2.769305 0
M  V30 18 S -0.214164 -1.374424 3.152555 0
M  V30 19 H -2.532570 -7.397973 2.382755 0
M  V30 20 H -3.229050 -3.369239 1.267481 0
M  V30 21 H -1.925852 -3.152316 2.487129 0
M  V30 22 H -1.579080 -2.587938 0.093054 0
M  V30 23 H -1.705580 -5.503901 -0.044792 0
M  V30 24 H -0.434316 -4.627449 -1.050439 0
M  V30 25 H -2.166894 -4.241469 -1.184801 0
M  V30 26 H 0.068918 -4.006162 2.032768 0
M  V30 27 H 0.841924 -3.716766 0.404023 0
M  V30 28 H 2.329022 0.036019 -0.387148 0
M  V30 29 H -0.323192 2.655030 0.691075 0
M  V30 30 H -0.314139 1.358062 -0.630991 0
M  V30 31 H 1.674088 2.459408 -1.639554 0
M  V30 32 H 0.228916 3.629821 -1.567151 0
M  V30 33 H 2.327219 4.571423 -0.869169 0
M  V30 34 H 1.023157 4.675137 0.212982 0
M  V30 35 H 3.413363 2.911688 0.170838 0
M  V30 36 H 3.042010 4.291955 1.339213 0
M  V30 37 H 2.678611 2.013160 2.339926 0
M  V30 38 H 1.100612 2.933321 2.156892 0
M  V30 39 H 0.386577 1.338301 3.336216 0
M  V30 END ATOM
M  V30 BEGIN BOND
M  V30 1 3 1 2
M  V30 2 1 2 3
M  V30 3 1 3 4
M  V30 4 1 4 5
M  V30 5 1 4 6
M  V30 6 1 6 7
M  V30 7 2 7 8
M  V30 8 1 8 9
M  V30 9 1 9 10
M  V30 10 1 10 11
M  V30 11 1 10 12
M  V30 12 1 12 13
M  V30 13 1 13 14
M  V30 14 1 14 15
M  V30 15 1 15 16
M  V30 16 2 9 17
M  V30 17 1 17 18
M  V30 18 1 18 7
M  V30 19 1 16 10
M  V30 20 1 1 19
M  V30 21 1 3 20
M  V30 22 1 3 21
M  V30 23 1 4 22 CFG=3
M  V30 24 1 5 23
M  V30 25 1 5 24
M  V30 26 1 5 25
M  V30 27 1 6 26
M  V30 28 1 6 27
M  V30 29 1 11 28
M  V30 30 1 12 29
M  V30 31 1 12 30
M  V30 32 1 13 31
M  V30 33 1 13 32
M  V30 34 1 14 33
M  V30 35 1 14 34
M  V30 36 1 15 35
M  V30 37 1 15 36
M  V30 38 1 16 37
M  V30 39 1 16 38
M  V30 40 1 17 39
M  V30 END BOND
M  V30 END CTAB
M  END
>  <Ligand_Instance>  (44) 
283_B_1

>  <Standardized_SMILES>  (44) 
[H]C#CC([H])([H])[N@+]([H])(C([H])([H])[H])C([H])([H])C1=NC(C2(O[H])C([H])([H])C([H])([H])[N+]([H])([H])C([H])([H])C2([H])[H])=C([H])S1

>  <Pocket>  (44) 
X

>  <Fsp3>  (44) 
0.615385

>  <FCStereo>  (44) 
0.0

>  <nSPS>  (44) 
20.277778

>  <nPBF_protbound>  (44) 
0.050577

>  <nPBF_insilico>  (44) 
0.044755

>  <Nonhydrogen_Atom_RMSD_Numeric>  (44) 
1.5

$$$$
F283
     RDKit          3D

  0  0  0  0  0  0  0  0  0  0999 V3000
M  V30 BEGIN CTAB
M  V30 COUNTS 39 40 0 0 0
M  V30 BEGIN ATOM
M  V30 1 C -3.148860 -4.682418 4.054544 0
M  V30 2 C -2.745969 -4.250315 2.996115 0
M  V30 3 C -2.230392 -3.726568 1.713422 0
M  V30 4 N -0.833953 -3.415413 1.943805 0 CFG=1 CHG=1 VAL=4
M  V30 5 C -0.320305 -4.435031 2.837429 0
M  V30 6 C -0.109111 -3.391271 0.689463 0
M  V30 7 C 0.716770 -2.138760 0.591474 0
M  V30 8 N 0.627258 -1.048242 0.208202 0
M  V30 9 C 1.546840 -0.092398 0.239962 0
M  V30 10 C 1.389201 1.280504 -0.259159 0
M  V30 11 O 2.312262 1.623330 -1.240330 0
M  V30 12 C 0.017026 1.522703 -0.842709 0
M  V30 13 C 0.109438 2.879284 -1.516994 0
M  V30 14 N 0.390880 3.935478 -0.576839 0 CHG=1 VAL=4
M  V30 15 C 1.480402 3.657238 0.305961 0
M  V30 16 C 1.529425 2.277285 0.865512 0
M  V30 17 C 2.805729 -0.528446 0.843832 0
M  V30 18 S 2.456817 -2.306492 1.286428 0
M  V30 19 H -3.489947 -5.049310 4.988804 0
M  V30 20 H -2.307167 -4.501718 0.928340 0
M  V30 21 H -2.827470 -2.862256 1.363624 0
M  V30 22 H -0.789091 -2.490141 2.409197 0
M  V30 23 H 0.773754 -4.584843 2.721210 0
M  V30 24 H -0.803456 -5.421428 2.661485 0
M  V30 25 H -0.556312 -4.149817 3.892434 0
M  V30 26 H -0.851280 -3.283941 -0.147506 0
M  V30 27 H 0.509607 -4.291564 0.554853 0
M  V30 28 H 2.993502 0.922545 -1.367277 0
M  V30 29 H -0.737160 1.506612 -0.031314 0
M  V30 30 H -0.227486 0.800124 -1.649623 0
M  V30 31 H 0.831550 2.793002 -2.330368 0
M  V30 32 H -0.884134 3.078792 -1.963330 0
M  V30 33 H -0.488838 4.195817 -0.067972 0
M  V30 34 H 0.646566 4.776221 -1.144336 0
M  V30 35 H 2.462771 3.877960 -0.176145 0
M  V30 36 H 1.380644 4.370499 1.163508 0
M  V30 37 H 2.531555 2.130597 1.316508 0
M  V30 38 H 0.698296 2.066742 1.571317 0
M  V30 39 H 3.727603 0.314836 0.912585 0
M  V30 END ATOM
M  V30 BEGIN BOND
M  V30 1 3 1 2
M  V30 2 1 2 3
M  V30 3 1 3 4
M  V30 4 1 4 5
M  V30 5 1 4 6
M  V30 6 1 6 7
M  V30 7 2 7 8
M  V30 8 1 8 9
M  V30 9 1 9 10
M  V30 10 1 10 11
M  V30 11 1 10 12
M  V30 12 1 12 13
M  V30 13 1 13 14
M  V30 14 1 14 15
M  V30 15 1 15 16
M  V30 16 2 9 17
M  V30 17 1 17 18
M  V30 18 1 18 7
M  V30 19 1 16 10
M  V30 20 1 1 19
M  V30 21 1 3 20
M  V30 22 1 3 21
M  V30 23 1 4 22 CFG=1
M  V30 24 1 5 23
M  V30 25 1 5 24
M  V30 26 1 5 25
M  V30 27 1 6 26
M  V30 28 1 6 27
M  V30 29 1 11 28
M  V30 30 1 12 29
M  V30 31 1 12 30
M  V30 32 1 13 31
M  V30 33 1 13 32
M  V30 34 1 14 33
M  V30 35 1 14 34
M  V30 36 1 15 35
M  V30 37 1 15 36
M  V30 38 1 16 37
M  V30 39 1 16 38
M  V30 40 1 17 39
M  V30 END BOND
M  V30 END CTAB
M  END
>  <Ligand_Instance>  (45) 
283_B_2

>  <Standardized_SMILES>  (45) 
[H]C#CC([H])([H])[N@@+]([H])(C([H])([H])[H])C([H])([H])C1=NC(C2(O[H])C([H])([H])C([H])([H])[N+]([H])([H])C([H])([H])C2([H])[H])=C([H])S1

>  <Pocket>  (45) 
G

>  <Fsp3>  (45) 
0.615385

>  <FCStereo>  (45) 
0.0

>  <nSPS>  (45) 
20.277778

>  <nPBF_protbound>  (45) 
0.031211

>  <nPBF_insilico>  (45) 
0.051205

>  <Nonhydrogen_Atom_RMSD_Numeric>  (45) 
1.3

$$$$
F294
     RDKit          3D

  0  0  0  0  0  0  0  0  0  0999 V3000
M  V30 BEGIN CTAB
M  V30 COUNTS 42 44 0 0 0
M  V30 BEGIN ATOM
M  V30 1 O 0.838006 -2.854489 3.242380 0
M  V30 2 C 1.048133 -1.478260 3.183787 0
M  V30 3 C 1.425978 -1.076153 1.780217 0
M  V30 4 C 2.200435 0.080946 1.604718 0
M  V30 5 S 2.327956 0.053534 -0.250474 0
M  V30 6 C 1.374781 -1.417944 -0.431276 0
M  V30 7 C 1.042966 -2.078839 -1.740009 0
M  V30 8 N -0.210777 -1.458719 -2.135715 0 CFG=2 CHG=1 VAL=4
M  V30 9 C -0.575799 -1.716033 -3.506103 0
M  V30 10 C -1.191880 -0.440363 -4.037085 0
M  V30 11 C -1.083997 0.582822 -2.927611 0 CFG=1
M  V30 12 O -2.254762 0.681967 -2.201161 0
M  V30 13 C -0.031237 -0.020047 -2.022297 0
M  V30 14 N 1.024962 -1.810953 0.734521 0
M  V30 15 C -0.289247 -0.843961 3.544238 0
M  V30 16 C -0.063810 0.633233 3.596196 0
M  V30 17 N 0.857392 1.031713 4.594449 0 CHG=1 VAL=4
M  V30 18 C 1.866662 0.116671 4.982172 0
M  V30 19 C 2.093061 -1.087289 4.155925 0
M  V30 20 H -0.059571 -3.139837 2.969748 0
M  V30 21 H 2.572376 0.729862 2.301554 0
M  V30 22 H 1.850629 -1.802983 -2.451744 0
M  V30 23 H 0.963001 -3.164416 -1.597241 0
M  V30 24 H -0.935964 -1.728024 -1.441559 0
M  V30 25 H -1.363977 -2.496741 -3.498690 0
M  V30 26 H 0.271441 -2.081224 -4.116919 0
M  V30 27 H -0.628581 -0.121466 -4.917617 0
M  V30 28 H -2.255027 -0.550661 -4.304221 0
M  V30 29 H -0.725539 1.561591 -3.298633 0
M  V30 30 H -2.048375 0.783947 -1.241085 0
M  V30 31 H -0.126533 0.337601 -0.992783 0
M  V30 32 H 0.975631 0.265600 -2.401912 0
M  V30 33 H -1.008196 -1.050856 2.730476 0
M  V30 34 H -0.612387 -1.219547 4.514837 0
M  V30 35 H -1.071099 1.081683 3.840491 0
M  V30 36 H 0.173756 1.052083 2.596690 0
M  V30 37 H 0.331954 1.430102 5.419503 0
M  V30 38 H 1.359915 1.889782 4.208902 0
M  V30 39 H 1.573618 -0.247375 6.012942 0
M  V30 40 H 2.836729 0.642152 5.192462 0
M  V30 41 H 2.358442 -1.964340 4.782250 0
M  V30 42 H 3.033826 -0.897315 3.557391 0
M  V30 END ATOM
M  V30 BEGIN BOND
M  V30 1 1 1 2
M  V30 2 1 2 3
M  V30 3 2 3 4
M  V30 4 1 4 5
M  V30 5 1 5 6
M  V30 6 1 6 7
M  V30 7 1 7 8
M  V30 8 1 8 9
M  V30 9 1 9 10
M  V30 10 1 10 11
M  V30 11 1 11 12
M  V30 12 1 11 13
M  V30 13 2 6 14
M  V30 14 1 2 15
M  V30 15 1 15 16
M  V30 16 1 16 17
M  V30 17 1 17 18
M  V30 18 1 18 19
M  V30 19 1 19 2
M  V30 20 1 14 3
M  V30 21 1 13 8
M  V30 22 1 1 20
M  V30 23 1 4 21
M  V30 24 1 7 22
M  V30 25 1 7 23
M  V30 26 1 8 24 CFG=1
M  V30 27 1 9 25
M  V30 28 1 9 26
M  V30 29 1 10 27
M  V30 30 1 10 28
M  V30 31 1 11 29 CFG=3
M  V30 32 1 12 30
M  V30 33 1 13 31
M  V30 34 1 13 32
M  V30 35 1 15 33
M  V30 36 1 15 34
M  V30 37 1 16 35
M  V30 38 1 16 36
M  V30 39 1 17 37
M  V30 40 1 17 38
M  V30 41 1 18 39
M  V30 42 1 18 40
M  V30 43 1 19 41
M  V30 44 1 19 42
M  V30 END BOND
M  V30 END CTAB
M  END
>  <Ligand_Instance>  (46) 
294_L_401

>  <Standardized_SMILES>  (46) 
[H]OC1(C2=C([H])SC(C([H])([H])[N@+]3([H])C([H])([H])C([H])([H])[C@@]([H])(O[H])C3([H])[H])=N2)C([H])([H])C([H])([H])[N+]([H])([H])C([H])([H])C1([H])[H]

>  <Pocket>  (46) 
X

>  <Fsp3>  (46) 
0.769231

>  <FCStereo>  (46) 
0.076923

>  <nSPS>  (46) 
30.631579

>  <nPBF_protbound>  (46) 
0.051149

>  <nPBF_insilico>  (46) 
0.046221

>  <Nonhydrogen_Atom_RMSD_Numeric>  (46) 
1.7

$$$$
F296
     RDKit          3D

  0  0  0  0  0  0  0  0  0  0999 V3000
M  V30 BEGIN CTAB
M  V30 COUNTS 31 33 0 0 0
M  V30 BEGIN ATOM
M  V30 1 C 1.096225 -3.815405 2.708544 0
M  V30 2 C 2.387614 -3.364550 2.524554 0
M  V30 3 F 3.444480 -3.953056 3.177048 0
M  V30 4 C 2.689209 -2.313637 1.688491 0
M  V30 5 C 1.643287 -1.699419 1.016100 0
M  V30 6 O 1.951512 -0.627885 0.163723 0
M  V30 7 C 1.206394 0.510968 -0.064385 0 CFG=2
M  V30 8 C 0.876600 1.319306 1.178530 0
M  V30 9 N -0.520923 1.667380 1.096576 0 CHG=1 VAL=4
M  V30 10 C -0.726585 1.737540 -0.351046 0
M  V30 11 C -0.080984 0.415010 -0.765287 0 CFG=2
M  V30 12 N -0.973840 -0.626496 -0.402971 0
M  V30 13 C -2.181955 -0.656713 -1.210029 0
M  V30 14 C -0.935485 -1.654972 0.591103 0
M  V30 15 O -2.005286 -2.167796 0.975843 0
M  V30 16 C 0.325558 -2.147939 1.194171 0
M  V30 17 C 0.036408 -3.215111 2.045746 0
M  V30 18 H 0.891213 -4.652565 3.379847 0
M  V30 19 H 3.660201 -1.903928 1.490836 0
M  V30 20 H 1.861572 1.193555 -0.683817 0
M  V30 21 H 1.494971 2.233981 1.282645 0
M  V30 22 H 1.124394 0.689300 2.060432 0
M  V30 23 H -0.737299 2.574432 1.558205 0
M  V30 24 H -1.073971 0.877612 1.497332 0
M  V30 25 H -1.778055 1.815006 -0.620940 0
M  V30 26 H -0.089178 2.570326 -0.729412 0
M  V30 27 H 0.008229 0.481976 -1.876233 0
M  V30 28 H -2.055365 -1.563602 -1.868923 0
M  V30 29 H -3.024274 -0.948118 -0.529686 0
M  V30 30 H -2.375274 0.248394 -1.782873 0
M  V30 31 H -0.984754 -3.547906 2.171340 0
M  V30 END ATOM
M  V30 BEGIN BOND
M  V30 1 2 1 2
M  V30 2 1 2 3
M  V30 3 1 2 4
M  V30 4 2 4 5
M  V30 5 1 5 6
M  V30 6 1 6 7
M  V30 7 1 7 8
M  V30 8 1 8 9
M  V30 9 1 9 10
M  V30 10 1 10 11
M  V30 11 1 11 12
M  V30 12 1 12 13
M  V30 13 1 12 14
M  V30 14 2 14 15
M  V30 15 1 14 16
M  V30 16 2 16 17
M  V30 17 1 17 1
M  V30 18 1 16 5
M  V30 19 1 11 7
M  V30 20 1 1 18
M  V30 21 1 4 19
M  V30 22 1 7 20 CFG=3
M  V30 23 1 8 21
M  V30 24 1 8 22
M  V30 25 1 9 23
M  V30 26 1 9 24
M  V30 27 1 10 25
M  V30 28 1 10 26
M  V30 29 1 11 27 CFG=3
M  V30 30 1 13 28
M  V30 31 1 13 29
M  V30 32 1 13 30
M  V30 33 1 17 31
M  V30 END BOND
M  V30 END CTAB
M  END
>  <Ligand_Instance>  (47) 
296_B_1

>  <Standardized_SMILES>  (47) 
[H]C1=C(F)C([H])=C2O[C@]3([H])C([H])([H])[N+]([H])([H])C([H])([H])[C@]3([H])N(C([H])([H])[H])C(=O)C2=C1[H]

>  <Pocket>  (47) 
A

>  <Fsp3>  (47) 
0.416667

>  <FCStereo>  (47) 
0.166667

>  <nSPS>  (47) 
27.176471

>  <nPBF_protbound>  (47) 
0.037367

>  <nPBF_insilico>  (47) 
0.046443

>  <Nonhydrogen_Atom_RMSD_Numeric>  (47) 
1.0

$$$$
F299
     RDKit          3D

  0  0  0  0  0  0  0  0  0  0999 V3000
M  V30 BEGIN CTAB
M  V30 COUNTS 28 30 0 0 0
M  V30 BEGIN ATOM
M  V30 1 C -2.284106 -0.419278 2.980410 0
M  V30 2 C -2.992548 0.559138 2.293149 0
M  V30 3 C -2.475376 1.042475 1.101385 0
M  V30 4 C -1.277009 0.567607 0.595086 0
M  V30 5 C -0.614752 -0.417539 1.337264 0
M  V30 6 N -1.119165 -0.887309 2.497296 0
M  V30 7 O 0.595128 -1.026594 1.009408 0
M  V30 8 C 1.293802 -1.145630 -0.203222 0 CFG=1
M  V30 9 C 1.513627 -2.670015 -0.299861 0
M  V30 10 N 0.122370 -3.087682 -0.442685 0 CHG=1 VAL=4
M  V30 11 C -0.504522 -2.103756 -1.312196 0
M  V30 12 C 0.506714 -1.014565 -1.450652 0 CFG=1
M  V30 13 N 0.093721 0.233300 -1.910665 0
M  V30 14 S -0.759158 1.272244 -0.910314 0
M  V30 15 O 0.093978 2.466751 -0.574427 0
M  V30 16 O -1.978303 1.785717 -1.623281 0
M  V30 17 H -2.682614 -0.802533 3.914010 0
M  V30 18 H -3.923575 0.963282 2.636689 0
M  V30 19 H -2.970713 1.804719 0.510347 0
M  V30 20 H 2.233953 -0.602002 -0.269868 0
M  V30 21 H 2.048409 -2.869407 -1.225080 0
M  V30 22 H 1.959549 -3.056849 0.627077 0
M  V30 23 H -0.355528 -2.992118 0.488620 0
M  V30 24 H 0.036325 -4.054024 -0.803508 0
M  V30 25 H -1.503060 -1.785913 -0.977824 0
M  V30 26 H -0.685271 -2.642877 -2.287204 0
M  V30 27 H 1.206605 -1.408158 -2.250396 0
M  V30 28 H 0.839418 0.738139 -2.429323 0
M  V30 END ATOM
M  V30 BEGIN BOND
M  V30 1 2 1 2
M  V30 2 1 2 3
M  V30 3 2 3 4
M  V30 4 1 4 5
M  V30 5 2 5 6
M  V30 6 1 5 7
M  V30 7 1 7 8
M  V30 8 1 8 9
M  V30 9 1 9 10
M  V30 10 1 10 11
M  V30 11 1 11 12
M  V30 12 1 12 13
M  V30 13 1 13 14
M  V30 14 2 14 15
M  V30 15 2 14 16
M  V30 16 1 6 1
M  V30 17 1 12 8
M  V30 18 1 14 4
M  V30 19 1 1 17
M  V30 20 1 2 18
M  V30 21 1 3 19
M  V30 22 1 8 20 CFG=3
M  V30 23 1 9 21
M  V30 24 1 9 22
M  V30 25 1 10 23
M  V30 26 1 10 24
M  V30 27 1 11 25
M  V30 28 1 11 26
M  V30 29 1 12 27 CFG=3
M  V30 30 1 13 28
M  V30 END BOND
M  V30 END CTAB
M  END
>  <Ligand_Instance>  (48) 
299_B_5

>  <Standardized_SMILES>  (48) 
[H]C1=C([H])C([H])=C2C(=N1)O[C@@]1([H])C([H])([H])[N+]([H])([H])C([H])([H])[C@@]1([H])N([H])S2(=O)=O

>  <Pocket>  (48) 
X

>  <Fsp3>  (48) 
0.444444

>  <FCStereo>  (48) 
0.222222

>  <nSPS>  (48) 
31.0

>  <nPBF_protbound>  (48) 
0.038296

>  <nPBF_insilico>  (48) 
0.047576

>  <Nonhydrogen_Atom_RMSD_Numeric>  (48) 
1.2

$$$$
F299
     RDKit          3D

  0  0  0  0  0  0  0  0  0  0999 V3000
M  V30 BEGIN CTAB
M  V30 COUNTS 28 30 0 0 0
M  V30 BEGIN ATOM
M  V30 1 C -2.284106 -0.419278 2.980410 0
M  V30 2 C -2.992548 0.559138 2.293149 0
M  V30 3 C -2.475376 1.042475 1.101385 0
M  V30 4 C -1.277009 0.567607 0.595086 0
M  V30 5 C -0.614752 -0.417539 1.337264 0
M  V30 6 N -1.119165 -0.887309 2.497296 0
M  V30 7 O 0.595128 -1.026594 1.009408 0
M  V30 8 C 1.293802 -1.145630 -0.203222 0 CFG=1
M  V30 9 C 1.513627 -2.670015 -0.299861 0
M  V30 10 N 0.122370 -3.087682 -0.442685 0 CHG=1 VAL=4
M  V30 11 C -0.504522 -2.103756 -1.312196 0
M  V30 12 C 0.506714 -1.014565 -1.450652 0 CFG=1
M  V30 13 N 0.093721 0.233300 -1.910665 0
M  V30 14 S -0.759158 1.272244 -0.910314 0
M  V30 15 O 0.093978 2.466751 -0.574427 0
M  V30 16 O -1.978303 1.785717 -1.623281 0
M  V30 17 H -2.682614 -0.802533 3.914010 0
M  V30 18 H -3.923575 0.963282 2.636689 0
M  V30 19 H -2.970713 1.804719 0.510347 0
M  V30 20 H 2.233953 -0.602002 -0.269868 0
M  V30 21 H 2.048409 -2.869407 -1.225080 0
M  V30 22 H 1.959549 -3.056849 0.627077 0
M  V30 23 H -0.355528 -2.992118 0.488620 0
M  V30 24 H 0.036325 -4.054024 -0.803508 0
M  V30 25 H -1.503060 -1.785913 -0.977824 0
M  V30 26 H -0.685271 -2.642877 -2.287204 0
M  V30 27 H 1.206605 -1.408158 -2.250396 0
M  V30 28 H 0.839418 0.738139 -2.429323 0
M  V30 END ATOM
M  V30 BEGIN BOND
M  V30 1 2 1 2
M  V30 2 1 2 3
M  V30 3 2 3 4
M  V30 4 1 4 5
M  V30 5 2 5 6
M  V30 6 1 5 7
M  V30 7 1 7 8
M  V30 8 1 8 9
M  V30 9 1 9 10
M  V30 10 1 10 11
M  V30 11 1 11 12
M  V30 12 1 12 13
M  V30 13 1 13 14
M  V30 14 2 14 15
M  V30 15 2 14 16
M  V30 16 1 6 1
M  V30 17 1 12 8
M  V30 18 1 14 4
M  V30 19 1 1 17
M  V30 20 1 2 18
M  V30 21 1 3 19
M  V30 22 1 8 20 CFG=3
M  V30 23 1 9 21
M  V30 24 1 9 22
M  V30 25 1 10 23
M  V30 26 1 10 24
M  V30 27 1 11 25
M  V30 28 1 11 26
M  V30 29 1 12 27 CFG=3
M  V30 30 1 13 28
M  V30 END BOND
M  V30 END CTAB
M  END
>  <Ligand_Instance>  (49) 
299_B_6

>  <Standardized_SMILES>  (49) 
[H]C1=C([H])C([H])=C2C(=N1)O[C@@]1([H])C([H])([H])[N+]([H])([H])C([H])([H])[C@@]1([H])N([H])S2(=O)=O

>  <Pocket>  (49) 
X

>  <Fsp3>  (49) 
0.444444

>  <FCStereo>  (49) 
0.222222

>  <nSPS>  (49) 
31.0

>  <nPBF_protbound>  (49) 
0.034637

>  <nPBF_insilico>  (49) 
0.047576

>  <Nonhydrogen_Atom_RMSD_Numeric>  (49) 
0.9

$$$$
F299
     RDKit          3D

  0  0  0  0  0  0  0  0  0  0999 V3000
M  V30 BEGIN CTAB
M  V30 COUNTS 28 30 0 0 0
M  V30 BEGIN ATOM
M  V30 1 C -2.284106 -0.419278 2.980410 0
M  V30 2 C -2.992548 0.559138 2.293149 0
M  V30 3 C -2.475376 1.042475 1.101385 0
M  V30 4 C -1.277009 0.567607 0.595086 0
M  V30 5 C -0.614752 -0.417539 1.337264 0
M  V30 6 N -1.119165 -0.887309 2.497296 0
M  V30 7 O 0.595128 -1.026594 1.009408 0
M  V30 8 C 1.293802 -1.145630 -0.203222 0 CFG=1
M  V30 9 C 1.513627 -2.670015 -0.299861 0
M  V30 10 N 0.122370 -3.087682 -0.442685 0 CHG=1 VAL=4
M  V30 11 C -0.504522 -2.103756 -1.312196 0
M  V30 12 C 0.506714 -1.014565 -1.450652 0 CFG=1
M  V30 13 N 0.093721 0.233300 -1.910665 0
M  V30 14 S -0.759158 1.272244 -0.910314 0
M  V30 15 O 0.093978 2.466751 -0.574427 0
M  V30 16 O -1.978303 1.785717 -1.623281 0
M  V30 17 H -2.682614 -0.802533 3.914010 0
M  V30 18 H -3.923575 0.963282 2.636689 0
M  V30 19 H -2.970713 1.804719 0.510347 0
M  V30 20 H 2.233953 -0.602002 -0.269868 0
M  V30 21 H 2.048409 -2.869407 -1.225080 0
M  V30 22 H 1.959549 -3.056849 0.627077 0
M  V30 23 H -0.355528 -2.992118 0.488620 0
M  V30 24 H 0.036325 -4.054024 -0.803508 0
M  V30 25 H -1.503060 -1.785913 -0.977824 0
M  V30 26 H -0.685271 -2.642877 -2.287204 0
M  V30 27 H 1.206605 -1.408158 -2.250396 0
M  V30 28 H 0.839418 0.738139 -2.429323 0
M  V30 END ATOM
M  V30 BEGIN BOND
M  V30 1 2 1 2
M  V30 2 1 2 3
M  V30 3 2 3 4
M  V30 4 1 4 5
M  V30 5 2 5 6
M  V30 6 1 5 7
M  V30 7 1 7 8
M  V30 8 1 8 9
M  V30 9 1 9 10
M  V30 10 1 10 11
M  V30 11 1 11 12
M  V30 12 1 12 13
M  V30 13 1 13 14
M  V30 14 2 14 15
M  V30 15 2 14 16
M  V30 16 1 6 1
M  V30 17 1 12 8
M  V30 18 1 14 4
M  V30 19 1 1 17
M  V30 20 1 2 18
M  V30 21 1 3 19
M  V30 22 1 8 20 CFG=3
M  V30 23 1 9 21
M  V30 24 1 9 22
M  V30 25 1 10 23
M  V30 26 1 10 24
M  V30 27 1 11 25
M  V30 28 1 11 26
M  V30 29 1 12 27 CFG=3
M  V30 30 1 13 28
M  V30 END BOND
M  V30 END CTAB
M  END
>  <Ligand_Instance>  (50) 
299_B_7

>  <Standardized_SMILES>  (50) 
[H]C1=C([H])C([H])=C2C(=N1)O[C@@]1([H])C([H])([H])[N+]([H])([H])C([H])([H])[C@@]1([H])N([H])S2(=O)=O

>  <Pocket>  (50) 
A

>  <Fsp3>  (50) 
0.444444

>  <FCStereo>  (50) 
0.222222

>  <nSPS>  (50) 
31.0

>  <nPBF_protbound>  (50) 
0.037152

>  <nPBF_insilico>  (50) 
0.047576

>  <Nonhydrogen_Atom_RMSD_Numeric>  (50) 
0.9

$$$$
F299
     RDKit          3D

  0  0  0  0  0  0  0  0  0  0999 V3000
M  V30 BEGIN CTAB
M  V30 COUNTS 28 30 0 0 0
M  V30 BEGIN ATOM
M  V30 1 C -2.284106 -0.419278 2.980410 0
M  V30 2 C -2.992548 0.559138 2.293149 0
M  V30 3 C -2.475376 1.042475 1.101385 0
M  V30 4 C -1.277009 0.567607 0.595086 0
M  V30 5 C -0.614752 -0.417539 1.337264 0
M  V30 6 N -1.119165 -0.887309 2.497296 0
M  V30 7 O 0.595128 -1.026594 1.009408 0
M  V30 8 C 1.293802 -1.145630 -0.203222 0 CFG=1
M  V30 9 C 1.513627 -2.670015 -0.299861 0
M  V30 10 N 0.122370 -3.087682 -0.442685 0 CHG=1 VAL=4
M  V30 11 C -0.504522 -2.103756 -1.312196 0
M  V30 12 C 0.506714 -1.014565 -1.450652 0 CFG=1
M  V30 13 N 0.093721 0.233300 -1.910665 0
M  V30 14 S -0.759158 1.272244 -0.910314 0
M  V30 15 O 0.093978 2.466751 -0.574427 0
M  V30 16 O -1.978303 1.785717 -1.623281 0
M  V30 17 H -2.682614 -0.802533 3.914010 0
M  V30 18 H -3.923575 0.963282 2.636689 0
M  V30 19 H -2.970713 1.804719 0.510347 0
M  V30 20 H 2.233953 -0.602002 -0.269868 0
M  V30 21 H 2.048409 -2.869407 -1.225080 0
M  V30 22 H 1.959549 -3.056849 0.627077 0
M  V30 23 H -0.355528 -2.992118 0.488620 0
M  V30 24 H 0.036325 -4.054024 -0.803508 0
M  V30 25 H -1.503060 -1.785913 -0.977824 0
M  V30 26 H -0.685271 -2.642877 -2.287204 0
M  V30 27 H 1.206605 -1.408158 -2.250396 0
M  V30 28 H 0.839418 0.738139 -2.429323 0
M  V30 END ATOM
M  V30 BEGIN BOND
M  V30 1 2 1 2
M  V30 2 1 2 3
M  V30 3 2 3 4
M  V30 4 1 4 5
M  V30 5 2 5 6
M  V30 6 1 5 7
M  V30 7 1 7 8
M  V30 8 1 8 9
M  V30 9 1 9 10
M  V30 10 1 10 11
M  V30 11 1 11 12
M  V30 12 1 12 13
M  V30 13 1 13 14
M  V30 14 2 14 15
M  V30 15 2 14 16
M  V30 16 1 6 1
M  V30 17 1 12 8
M  V30 18 1 14 4
M  V30 19 1 1 17
M  V30 20 1 2 18
M  V30 21 1 3 19
M  V30 22 1 8 20 CFG=3
M  V30 23 1 9 21
M  V30 24 1 9 22
M  V30 25 1 10 23
M  V30 26 1 10 24
M  V30 27 1 11 25
M  V30 28 1 11 26
M  V30 29 1 12 27 CFG=3
M  V30 30 1 13 28
M  V30 END BOND
M  V30 END CTAB
M  END
>  <Ligand_Instance>  (51) 
299_B_8

>  <Standardized_SMILES>  (51) 
[H]C1=C([H])C([H])=C2C(=N1)O[C@@]1([H])C([H])([H])[N+]([H])([H])C([H])([H])[C@@]1([H])N([H])S2(=O)=O

>  <Pocket>  (51) 
X

>  <Fsp3>  (51) 
0.444444

>  <FCStereo>  (51) 
0.222222

>  <nSPS>  (51) 
31.0

>  <nPBF_protbound>  (51) 
0.043938

>  <nPBF_insilico>  (51) 
0.047576

>  <Nonhydrogen_Atom_RMSD_Numeric>  (51) 
0.7

$$$$
F304
     RDKit          3D

  0  0  0  0  0  0  0  0  0  0999 V3000
M  V30 BEGIN CTAB
M  V30 COUNTS 31 32 0 0 0
M  V30 BEGIN ATOM
M  V30 1 O -1.362332 -0.113389 2.888951 0
M  V30 2 C -0.250472 -0.750186 3.372949 0 CFG=2
M  V30 3 C 0.977312 -0.404329 2.677591 0
M  V30 4 C 2.203873 -0.378240 3.356603 0
M  V30 5 C 2.613998 -0.617911 4.735761 0
M  V30 6 O 3.731453 -0.583595 5.305654 0
M  V30 7 O 1.717801 -0.960293 5.738967 0 CHG=-1 VAL=1
M  V30 8 O 3.181675 -0.059348 2.515067 0
M  V30 9 N 2.676722 0.125640 1.329024 0
M  V30 10 C 1.325700 -0.077434 1.393297 0
M  V30 11 C 0.483808 0.032082 0.225295 0
M  V30 12 C -0.668014 0.724759 -0.053590 0
M  V30 13 C -1.319099 0.646373 -1.253590 0
M  V30 14 C -0.860961 -0.142052 -2.283002 0
M  V30 15 O -1.574313 -0.164564 -3.456906 0
M  V30 16 C -1.079732 -0.993809 -4.519493 0
M  V30 17 C 0.282188 -0.851753 -2.058314 0
M  V30 18 C 0.929115 -0.764392 -0.843678 0
M  V30 19 C -0.462169 -2.270005 3.325885 0
M  V30 20 H -2.123742 -0.754247 2.815841 0
M  V30 21 H -0.188931 -0.522126 4.464186 0
M  V30 22 H -1.009795 1.346163 0.731735 0
M  V30 23 H -2.214688 1.236964 -1.352961 0
M  V30 24 H -1.670301 -0.812783 -5.424281 0
M  V30 25 H -0.014847 -0.749369 -4.740392 0
M  V30 26 H -1.107155 -2.044259 -4.168672 0
M  V30 27 H 0.638928 -1.469789 -2.870122 0
M  V30 28 H 1.833164 -1.384897 -0.797910 0
M  V30 29 H -0.927067 -2.481539 2.326936 0
M  V30 30 H 0.534429 -2.743607 3.375764 0
M  V30 31 H -1.141911 -2.542378 4.158870 0
M  V30 END ATOM
M  V30 BEGIN BOND
M  V30 1 1 1 2
M  V30 2 1 2 3
M  V30 3 2 3 4
M  V30 4 1 4 5
M  V30 5 2 5 6
M  V30 6 1 5 7
M  V30 7 1 4 8
M  V30 8 1 8 9
M  V30 9 2 9 10
M  V30 10 1 10 11
M  V30 11 2 11 12
M  V30 12 1 12 13
M  V30 13 2 13 14
M  V30 14 1 14 15
M  V30 15 1 15 16
M  V30 16 1 14 17
M  V30 17 2 17 18
M  V30 18 1 2 19
M  V30 19 1 10 3
M  V30 20 1 18 11
M  V30 21 1 1 20
M  V30 22 1 2 21 CFG=1
M  V30 23 1 12 22
M  V30 24 1 13 23
M  V30 25 1 16 24
M  V30 26 1 16 25
M  V30 27 1 16 26
M  V30 28 1 17 27
M  V30 29 1 18 28
M  V30 30 1 19 29
M  V30 31 1 19 30
M  V30 32 1 19 31
M  V30 END BOND
M  V30 END CTAB
M  END
>  <Ligand_Instance>  (52) 
304_B_2

>  <Standardized_SMILES>  (52) 
[H]O[C@]([H])(C1=C(C(=O)[O-])ON=C1C1=C([H])C([H])=C(OC([H])([H])[H])C([H])=C1[H])C([H])([H])[H]

>  <Pocket>  (52) 
X

>  <Fsp3>  (52) 
0.230769

>  <FCStereo>  (52) 
0.076923

>  <nSPS>  (52) 
12.157895

>  <nPBF_protbound>  (52) 
0.032304

>  <nPBF_insilico>  (52) 
0.041279

>  <Nonhydrogen_Atom_RMSD_Numeric>  (52) 
0.6

$$$$
F304
     RDKit          3D

  0  0  0  0  0  0  0  0  0  0999 V3000
M  V30 BEGIN CTAB
M  V30 COUNTS 31 32 0 0 0
M  V30 BEGIN ATOM
M  V30 1 O -1.362332 -0.113389 2.888951 0
M  V30 2 C -0.250472 -0.750186 3.372949 0 CFG=2
M  V30 3 C 0.977312 -0.404329 2.677591 0
M  V30 4 C 2.203873 -0.378240 3.356603 0
M  V30 5 C 2.613998 -0.617911 4.735761 0
M  V30 6 O 3.731453 -0.583595 5.305654 0
M  V30 7 O 1.717801 -0.960293 5.738967 0 CHG=-1 VAL=1
M  V30 8 O 3.181675 -0.059348 2.515067 0
M  V30 9 N 2.676722 0.125640 1.329024 0
M  V30 10 C 1.325700 -0.077434 1.393297 0
M  V30 11 C 0.483808 0.032082 0.225295 0
M  V30 12 C -0.668014 0.724759 -0.053590 0
M  V30 13 C -1.319099 0.646373 -1.253590 0
M  V30 14 C -0.860961 -0.142052 -2.283002 0
M  V30 15 O -1.574313 -0.164564 -3.456906 0
M  V30 16 C -1.079732 -0.993809 -4.519493 0
M  V30 17 C 0.282188 -0.851753 -2.058314 0
M  V30 18 C 0.929115 -0.764392 -0.843678 0
M  V30 19 C -0.462169 -2.270005 3.325885 0
M  V30 20 H -2.123742 -0.754247 2.815841 0
M  V30 21 H -0.188931 -0.522126 4.464186 0
M  V30 22 H -1.009795 1.346163 0.731735 0
M  V30 23 H -2.214688 1.236964 -1.352961 0
M  V30 24 H -1.670301 -0.812783 -5.424281 0
M  V30 25 H -0.014847 -0.749369 -4.740392 0
M  V30 26 H -1.107155 -2.044259 -4.168672 0
M  V30 27 H 0.638928 -1.469789 -2.870122 0
M  V30 28 H 1.833164 -1.384897 -0.797910 0
M  V30 29 H -0.927067 -2.481539 2.326936 0
M  V30 30 H 0.534429 -2.743607 3.375764 0
M  V30 31 H -1.141911 -2.542378 4.158870 0
M  V30 END ATOM
M  V30 BEGIN BOND
M  V30 1 1 1 2
M  V30 2 1 2 3
M  V30 3 2 3 4
M  V30 4 1 4 5
M  V30 5 2 5 6
M  V30 6 1 5 7
M  V30 7 1 4 8
M  V30 8 1 8 9
M  V30 9 2 9 10
M  V30 10 1 10 11
M  V30 11 2 11 12
M  V30 12 1 12 13
M  V30 13 2 13 14
M  V30 14 1 14 15
M  V30 15 1 15 16
M  V30 16 1 14 17
M  V30 17 2 17 18
M  V30 18 1 2 19
M  V30 19 1 10 3
M  V30 20 1 18 11
M  V30 21 1 1 20
M  V30 22 1 2 21 CFG=1
M  V30 23 1 12 22
M  V30 24 1 13 23
M  V30 25 1 16 24
M  V30 26 1 16 25
M  V30 27 1 16 26
M  V30 28 1 17 27
M  V30 29 1 18 28
M  V30 30 1 19 29
M  V30 31 1 19 30
M  V30 32 1 19 31
M  V30 END BOND
M  V30 END CTAB
M  END
>  <Ligand_Instance>  (53) 
304_B_5

>  <Standardized_SMILES>  (53) 
[H]O[C@]([H])(C1=C(C(=O)[O-])ON=C1C1=C([H])C([H])=C(OC([H])([H])[H])C([H])=C1[H])C([H])([H])[H]

>  <Pocket>  (53) 
X

>  <Fsp3>  (53) 
0.230769

>  <FCStereo>  (53) 
0.076923

>  <nSPS>  (53) 
12.157895

>  <nPBF_protbound>  (53) 
0.024757

>  <nPBF_insilico>  (53) 
0.041279

>  <Nonhydrogen_Atom_RMSD_Numeric>  (53) 
0.5

$$$$
F310
     RDKit          3D

  0  0  0  0  0  0  0  0  0  0999 V3000
M  V30 BEGIN CTAB
M  V30 COUNTS 43 44 0 0 0
M  V30 BEGIN ATOM
M  V30 1 O -0.989927 -5.160929 3.520422 0
M  V30 2 C -1.681063 -4.692472 2.417446 0
M  V30 3 C -1.407892 -3.245987 2.127186 0
M  V30 4 C 0.054537 -3.025246 1.856292 0 CFG=1
M  V30 5 O 0.230003 -1.648617 1.593380 0
M  V30 6 C 1.410865 -1.450153 0.866466 0 CFG=2
M  V30 7 C 1.150075 -1.610569 -0.594149 0
M  V30 8 N 0.159787 -0.631354 -1.000744 0
M  V30 9 C 0.286019 0.776626 -0.903988 0
M  V30 10 O 1.309784 1.301391 -0.440411 0
M  V30 11 N -0.725044 1.685721 -1.319744 0
M  V30 12 C -0.306272 3.048014 -1.096328 0
M  V30 13 C 0.375088 3.886899 -1.951630 0
M  V30 14 C 0.666859 5.159845 -1.509527 0
M  V30 15 C 0.294639 5.591062 -0.255361 0
M  V30 16 C -0.389715 4.746738 0.602153 0
M  V30 17 C -0.686076 3.477299 0.173916 0
M  V30 18 C 2.510416 -2.365142 1.362902 0 CFG=1
M  V30 19 O 3.711120 -1.692262 1.262697 0
M  V30 20 C 2.225664 -2.553594 2.859386 0
M  V30 21 C 0.946613 -3.385010 3.008731 0
M  V30 22 H -1.294491 -4.688288 4.340181 0
M  V30 23 H -2.741600 -4.902300 2.584547 0
M  V30 24 H -1.324235 -5.298758 1.541845 0
M  V30 25 H -1.778731 -2.610070 2.962447 0
M  V30 26 H -1.951146 -2.995937 1.197989 0
M  V30 27 H 0.313858 -3.600130 0.944549 0
M  V30 28 H 1.737499 -0.411870 1.069337 0
M  V30 29 H 2.111675 -1.463053 -1.145356 0
M  V30 30 H 0.728300 -2.602200 -0.785285 0
M  V30 31 H -0.773733 -0.922202 -1.419624 0
M  V30 32 H -1.624119 1.288567 -1.724958 0
M  V30 33 H 0.608476 3.432147 -2.901108 0
M  V30 34 H 1.201844 5.783170 -2.212350 0
M  V30 35 H 0.538146 6.599569 0.065946 0
M  V30 36 H -0.659718 5.130689 1.574827 0
M  V30 37 H -1.222814 2.892272 0.914741 0
M  V30 38 H 2.568394 -3.317115 0.821946 0
M  V30 39 H 3.601170 -0.786672 0.850145 0
M  V30 40 H 2.059479 -1.531536 3.257470 0
M  V30 41 H 3.082788 -3.041530 3.374480 0
M  V30 42 H 0.457267 -3.078051 3.943867 0
M  V30 43 H 1.191178 -4.468345 3.054062 0
M  V30 END ATOM
M  V30 BEGIN BOND
M  V30 1 1 1 2
M  V30 2 1 2 3
M  V30 3 1 3 4
M  V30 4 1 4 5
M  V30 5 1 5 6
M  V30 6 1 6 7
M  V30 7 1 7 8
M  V30 8 1 8 9
M  V30 9 2 9 10
M  V30 10 1 9 11
M  V30 11 1 11 12
M  V30 12 2 12 13
M  V30 13 1 13 14
M  V30 14 2 14 15
M  V30 15 1 15 16
M  V30 16 2 16 17
M  V30 17 1 6 18
M  V30 18 1 18 19
M  V30 19 1 18 20
M  V30 20 1 20 21
M  V30 21 1 21 4
M  V30 22 1 17 12
M  V30 23 1 1 22
M  V30 24 1 2 23
M  V30 25 1 2 24
M  V30 26 1 3 25
M  V30 27 1 3 26
M  V30 28 1 4 27 CFG=3
M  V30 29 1 6 28 CFG=3
M  V30 30 1 7 29
M  V30 31 1 7 30
M  V30 32 1 8 31
M  V30 33 1 11 32
M  V30 34 1 13 33
M  V30 35 1 14 34
M  V30 36 1 15 35
M  V30 37 1 16 36
M  V30 38 1 17 37
M  V30 39 1 18 38 CFG=3
M  V30 40 1 19 39
M  V30 41 1 20 40
M  V30 42 1 20 41
M  V30 43 1 21 42
M  V30 44 1 21 43
M  V30 END BOND
M  V30 END CTAB
M  END
>  <Ligand_Instance>  (54) 
310_B_1

>  <Standardized_SMILES>  (54) 
[H]OC([H])([H])C([H])([H])[C@@]1([H])O[C@]([H])(C([H])([H])N([H])C(=O)N([H])C2=C([H])C([H])=C([H])C([H])=C2[H])[C@@]([H])(O[H])C([H])([H])C1([H])[H]

>  <Pocket>  (54) 
A

>  <Fsp3>  (54) 
0.533333

>  <FCStereo>  (54) 
0.2

>  <nSPS>  (54) 
25.333333

>  <nPBF_protbound>  (54) 
0.042192

>  <nPBF_insilico>  (54) 
0.05044

>  <Nonhydrogen_Atom_RMSD_Numeric>  (54) 
1.6

$$$$
F312
     RDKit          3D

  0  0  0  0  0  0  0  0  0  0999 V3000
M  V30 BEGIN CTAB
M  V30 COUNTS 34 35 0 0 0
M  V30 BEGIN ATOM
M  V30 1 O -1.857354 2.340508 0.565021 0
M  V30 2 C -1.083200 1.168321 0.744169 0 CFG=1
M  V30 3 C 0.173059 1.165077 -0.050669 0 CFG=2
M  V30 4 C 0.272807 0.168774 -1.141121 0
M  V30 5 N 0.385854 -1.192426 -0.811945 0 CHG=1 VAL=4
M  V30 6 C 1.384902 -1.516201 0.176572 0
M  V30 7 C 1.646825 -3.020517 0.004240 0
M  V30 8 O 0.501661 -3.771328 0.139457 0
M  V30 9 C -0.551364 -3.370544 -0.676735 0
M  V30 10 C -0.812747 -1.878587 -0.409456 0
M  V30 11 O 1.266131 1.153190 0.793993 0
M  V30 12 C 0.859614 1.312690 2.090104 0
M  V30 13 C -0.621815 1.180821 2.184850 0 CFG=2
M  V30 14 N -1.058500 0.030285 2.930860 0 CHG=1 VAL=4
M  V30 15 H -1.537861 3.049672 1.166341 0
M  V30 16 H -1.799053 0.353115 0.513500 0
M  V30 17 H 0.212708 2.179025 -0.554401 0
M  V30 18 H 1.170215 0.446635 -1.753981 0
M  V30 19 H -0.583192 0.295717 -1.829120 0
M  V30 20 H 0.726323 -1.690909 -1.691540 0
M  V30 21 H 2.351430 -1.012734 0.003806 0
M  V30 22 H 1.008896 -1.448261 1.218838 0
M  V30 23 H 2.113741 -3.135473 -1.014038 0
M  V30 24 H 2.354705 -3.375092 0.776829 0
M  V30 25 H -1.447030 -3.925188 -0.322330 0
M  V30 26 H -0.373829 -3.487486 -1.747201 0
M  V30 27 H -1.725704 -1.568082 -0.921012 0
M  V30 28 H -0.891549 -1.852662 0.718353 0
M  V30 29 H 1.285589 0.443595 2.673970 0
M  V30 30 H 1.270754 2.201653 2.592253 0
M  V30 31 H -1.004990 2.079005 2.750930 0
M  V30 32 H -0.327302 -0.700219 3.065645 0
M  V30 33 H -1.846771 -0.441119 2.407459 0
M  V30 34 H -1.464559 0.275260 3.864601 0
M  V30 END ATOM
M  V30 BEGIN BOND
M  V30 1 1 1 2
M  V30 2 1 2 3
M  V30 3 1 3 4
M  V30 4 1 4 5
M  V30 5 1 5 6
M  V30 6 1 6 7
M  V30 7 1 7 8
M  V30 8 1 8 9
M  V30 9 1 9 10
M  V30 10 1 3 11
M  V30 11 1 11 12
M  V30 12 1 12 13
M  V30 13 1 13 14
M  V30 14 1 13 2
M  V30 15 1 10 5
M  V30 16 1 1 15
M  V30 17 1 2 16 CFG=1
M  V30 18 1 3 17 CFG=3
M  V30 19 1 4 18
M  V30 20 1 4 19
M  V30 21 1 5 20
M  V30 22 1 6 21
M  V30 23 1 6 22
M  V30 24 1 7 23
M  V30 25 1 7 24
M  V30 26 1 9 25
M  V30 27 1 9 26
M  V30 28 1 10 27
M  V30 29 1 10 28
M  V30 30 1 12 29
M  V30 31 1 12 30
M  V30 32 1 13 31 CFG=1
M  V30 33 1 14 32
M  V30 34 1 14 33
M  V30 35 1 14 34
M  V30 END BOND
M  V30 END CTAB
M  END
>  <Ligand_Instance>  (55) 
312_A_401

>  <Standardized_SMILES>  (55) 
[H]O[C@@]1([H])[C@]([H])(C([H])([H])[N+]2([H])C([H])([H])C([H])([H])OC([H])([H])C2([H])[H])OC([H])([H])[C@]1([H])[N+]([H])([H])[H]

>  <Pocket>  (55) 
A

>  <Fsp3>  (55) 
1.0

>  <FCStereo>  (55) 
0.333333

>  <nSPS>  (55) 
40.285714

>  <nPBF_protbound>  (55) 
0.06052

>  <nPBF_insilico>  (55) 
0.072972

>  <Nonhydrogen_Atom_RMSD_Numeric>  (55) 
1.4

$$$$
F313
     RDKit          3D

  0  0  0  0  0  0  0  0  0  0999 V3000
M  V30 BEGIN CTAB
M  V30 COUNTS 35 35 0 0 0
M  V30 BEGIN ATOM
M  V30 1 O 0.765098 2.209739 2.406863 0
M  V30 2 C 0.863027 1.678304 1.138978 0 CFG=1
M  V30 3 C 0.023034 0.409237 0.967186 0 CFG=2
M  V30 4 C 0.933108 -0.650238 0.427950 0
M  V30 5 N 0.305594 -1.871548 0.059681 0 CHG=1 VAL=4
M  V30 6 C 1.150456 -3.023944 0.363189 0
M  V30 7 C 1.140442 -4.012677 -0.789997 0
M  V30 8 C -0.972080 -2.137428 0.647436 0
M  V30 9 C -0.906448 -2.434339 2.124419 0
M  V30 10 O -0.943250 0.766310 0.048449 0
M  V30 11 C -0.411749 1.709366 -0.813838 0
M  V30 12 C 0.202536 2.676505 0.192634 0 CFG=1
M  V30 13 N -0.905991 3.349753 0.837440 0 CHG=1 VAL=4
M  V30 14 H 0.750670 1.552824 3.133440 0
M  V30 15 H 1.924670 1.520362 0.897379 0
M  V30 16 H -0.346986 0.134108 1.952659 0
M  V30 17 H 1.451134 -0.214993 -0.453594 0
M  V30 18 H 1.731460 -0.876508 1.158460 0
M  V30 19 H 0.166325 -1.883973 -0.986058 0
M  V30 20 H 0.748752 -3.588798 1.242855 0
M  V30 21 H 2.177137 -2.726394 0.636411 0
M  V30 22 H 0.087643 -4.094296 -1.156107 0
M  V30 23 H 1.810718 -3.604440 -1.574895 0
M  V30 24 H 1.497792 -4.983229 -0.423733 0
M  V30 25 H -1.748264 -1.393130 0.443481 0
M  V30 26 H -1.340206 -3.077998 0.161081 0
M  V30 27 H -1.101159 -3.508174 2.362685 0
M  V30 28 H 0.075697 -2.190831 2.568191 0
M  V30 29 H -1.690839 -1.856163 2.651129 0
M  V30 30 H 0.370989 1.284147 -1.466156 0
M  V30 31 H -1.251140 2.167299 -1.360626 0
M  V30 32 H 0.926331 3.361869 -0.265163 0
M  V30 33 H -1.465410 2.611262 1.330651 0
M  V30 34 H -0.587487 4.102204 1.476260 0
M  V30 35 H -1.537443 3.724360 0.090549 0
M  V30 END ATOM
M  V30 BEGIN BOND
M  V30 1 1 1 2
M  V30 2 1 2 3
M  V30 3 1 3 4
M  V30 4 1 4 5
M  V30 5 1 5 6
M  V30 6 1 6 7
M  V30 7 1 5 8
M  V30 8 1 8 9
M  V30 9 1 3 10
M  V30 10 1 10 11
M  V30 11 1 11 12
M  V30 12 1 12 13
M  V30 13 1 12 2
M  V30 14 1 1 14
M  V30 15 1 2 15 CFG=3
M  V30 16 1 3 16 CFG=1
M  V30 17 1 4 17
M  V30 18 1 4 18
M  V30 19 1 5 19
M  V30 20 1 6 20
M  V30 21 1 6 21
M  V30 22 1 7 22
M  V30 23 1 7 23
M  V30 24 1 7 24
M  V30 25 1 8 25
M  V30 26 1 8 26
M  V30 27 1 9 27
M  V30 28 1 9 28
M  V30 29 1 9 29
M  V30 30 1 11 30
M  V30 31 1 11 31
M  V30 32 1 12 32 CFG=3
M  V30 33 1 13 33
M  V30 34 1 13 34
M  V30 35 1 13 35
M  V30 END BOND
M  V30 END CTAB
M  END
>  <Ligand_Instance>  (56) 
313_A_401

>  <Standardized_SMILES>  (56) 
[H]O[C@@]1([H])[C@]([H])(C([H])([H])[N+]([H])(C([H])([H])C([H])([H])[H])C([H])([H])C([H])([H])[H])OC([H])([H])[C@@]1([H])[N+]([H])([H])[H]

>  <Pocket>  (56) 
X

>  <Fsp3>  (56) 
1.0

>  <FCStereo>  (56) 
0.333333

>  <nSPS>  (56) 
34.384615

>  <nPBF_protbound>  (56) 
0.056944

>  <nPBF_insilico>  (56) 
0.06735

>  <Nonhydrogen_Atom_RMSD_Numeric>  (56) 
1.3

$$$$
F322
     RDKit          3D

  0  0  0  0  0  0  0  0  0  0999 V3000
M  V30 BEGIN CTAB
M  V30 COUNTS 42 43 0 0 0
M  V30 BEGIN ATOM
M  V30 1 O 0.055135 -3.005583 4.286902 0
M  V30 2 C 0.590727 -2.839610 3.013145 0 CFG=1
M  V30 3 C 1.154300 -1.458488 2.822888 0 CFG=2
M  V30 4 C 0.128364 -0.466403 2.372157 0
M  V30 5 N -0.328364 -0.825721 1.049182 0 CFG=1 CHG=1 VAL=4
M  V30 6 C -1.746644 -1.092275 1.012356 0
M  V30 7 C 0.089035 0.146292 0.069018 0
M  V30 8 C -0.911777 1.198947 -0.256051 0
M  V30 9 C -0.262411 2.087012 -1.287197 0
M  V30 10 C -0.410337 1.796703 -2.645944 0
M  V30 11 C 0.206879 2.643966 -3.572031 0
M  V30 12 C 0.947032 3.743360 -3.169329 0
M  V30 13 C 1.092599 4.029303 -1.824098 0
M  V30 14 C 0.488520 3.201223 -0.899939 0
M  V30 15 O 2.253996 -1.533433 2.019617 0
M  V30 16 C 2.530166 -2.853692 1.744592 0
M  V30 17 C 1.882994 -3.649019 2.858898 0 CFG=2
M  V30 18 N 1.638521 -5.019289 2.509494 0 CHG=1 VAL=4
M  V30 19 H -0.681967 -3.679744 4.289256 0
M  V30 20 H -0.147882 -3.094545 2.250233 0
M  V30 21 H 1.527413 -1.156158 3.847683 0
M  V30 22 H -0.725144 -0.399073 3.079424 0
M  V30 23 H 0.555822 0.563418 2.306196 0
M  V30 24 H 0.133254 -1.718803 0.780088 0
M  V30 25 H -2.002623 -1.596916 1.984278 0
M  V30 26 H -2.386100 -0.191747 0.996529 0
M  V30 27 H -2.046675 -1.785373 0.210168 0
M  V30 28 H 1.043996 0.614762 0.393733 0
M  V30 29 H 0.355469 -0.348337 -0.909497 0
M  V30 30 H -1.172002 1.861685 0.585692 0
M  V30 31 H -1.809133 0.717077 -0.735058 0
M  V30 32 H -0.992153 0.933918 -2.934878 0
M  V30 33 H 0.090813 2.416524 -4.627940 0
M  V30 34 H 1.429902 4.406186 -3.893262 0
M  V30 35 H 1.665661 4.883957 -1.446031 0
M  V30 36 H 0.604886 3.429100 0.162282 0
M  V30 37 H 2.052839 -3.156833 0.789973 0
M  V30 38 H 3.615100 -3.080554 1.723382 0
M  V30 39 H 2.460226 -3.533085 3.797799 0
M  V30 40 H 2.473386 -5.335501 1.968318 0
M  V30 41 H 1.609326 -5.554059 3.401816 0
M  V30 42 H 0.811744 -5.091737 1.907871 0
M  V30 END ATOM
M  V30 BEGIN BOND
M  V30 1 1 1 2
M  V30 2 1 2 3
M  V30 3 1 3 4
M  V30 4 1 4 5
M  V30 5 1 5 6
M  V30 6 1 5 7
M  V30 7 1 7 8
M  V30 8 1 8 9
M  V30 9 2 9 10
M  V30 10 1 10 11
M  V30 11 2 11 12
M  V30 12 1 12 13
M  V30 13 2 13 14
M  V30 14 1 3 15
M  V30 15 1 15 16
M  V30 16 1 16 17
M  V30 17 1 17 18
M  V30 18 1 17 2
M  V30 19 1 14 9
M  V30 20 1 1 19
M  V30 21 1 2 20 CFG=3
M  V30 22 1 3 21 CFG=1
M  V30 23 1 4 22
M  V30 24 1 4 23
M  V30 25 1 5 24 CFG=3
M  V30 26 1 6 25
M  V30 27 1 6 26
M  V30 28 1 6 27
M  V30 29 1 7 28
M  V30 30 1 7 29
M  V30 31 1 8 30
M  V30 32 1 8 31
M  V30 33 1 10 32
M  V30 34 1 11 33
M  V30 35 1 12 34
M  V30 36 1 13 35
M  V30 37 1 14 36
M  V30 38 1 16 37
M  V30 39 1 16 38
M  V30 40 1 17 39 CFG=1
M  V30 41 1 18 40
M  V30 42 1 18 41
M  V30 43 1 18 42
M  V30 END BOND
M  V30 END CTAB
M  END
>  <Ligand_Instance>  (57) 
322_A_501

>  <Standardized_SMILES>  (57) 
[H]O[C@@]1([H])[C@]([H])(C([H])([H])[N@@+]([H])(C([H])([H])[H])C([H])([H])C([H])([H])C2=C([H])C([H])=C([H])C([H])=C2[H])OC([H])([H])[C@]1([H])[N+]([H])([H])[H]

>  <Pocket>  (57) 
X

>  <Fsp3>  (57) 
0.571429

>  <FCStereo>  (57) 
0.214286

>  <nSPS>  (57) 
29.388889

>  <nPBF_protbound>  (57) 
0.040591

>  <nPBF_insilico>  (57) 
0.053258

>  <Nonhydrogen_Atom_RMSD_Numeric>  (57) 
1.7

$$$$
