
     RDKit          2D

 22 24  0  0  0  0  0  0  0  0999 V2000
    3.0000    0.0000    0.0000 C   0  0  0  0  0  0  0  0  0  0  0  0
    1.5000    0.0000    0.0000 C   0  0  0  0  0  0  0  0  0  0  0  0
    0.7500   -1.2990    0.0000 C   0  0  0  0  0  0  0  0  0  0  0  0
   -0.7500   -1.2990    0.0000 N   0  0  0  0  0  0  0  0  0  0  0  0
   -1.5000    0.0000    0.0000 C   0  0  0  0  0  0  0  0  0  0  0  0
   -0.7500    1.2990    0.0000 C   0  0  0  0  0  0  0  0  0  0  0  0
    0.7500    1.2990    0.0000 C   0  0  0  0  0  0  0  0  0  0  0  0
    1.5000    2.5981    0.0000 C   0  0  0  0  0  0  0  0  0  0  0  0
    0.7500    3.8971    0.0000 C   0  0  0  0  0  0  0  0  0  0  0  0
   -0.7500    3.8971    0.0000 C   0  0  0  0  0  0  0  0  0  0  0  0
   -1.5000    2.5981    0.0000 C   0  0  0  0  0  0  0  0  0  0  0  0
    3.0000    2.5981    0.0000 S   0  0  0  0  0  0  0  0  0  0  0  0
    3.0000    4.0981    0.0000 O   0  0  0  0  0  0  0  0  0  0  0  0
    3.0000    1.0981    0.0000 O   0  0  0  0  0  0  0  0  0  0  0  0
    4.5000    2.5981    0.0000 N   0  0  0  0  0  0  0  0  0  0  0  0
    5.1508    3.9495    0.0000 C   0  0  0  0  0  0  0  0  0  0  0  0
    6.6132    4.2833    0.0000 C   0  0  0  0  0  0  0  0  0  0  0  0
    7.7860    3.3481    0.0000 C   0  0  0  0  0  0  0  0  0  0  0  0
    7.7860    1.8481    0.0000 N   0  0  0  0  0  0  0  0  0  0  0  0
    6.6132    0.9128    0.0000 C   0  0  0  0  0  0  0  0  0  0  0  0
    5.1508    1.2466    0.0000 C   0  0  0  0  0  0  0  0  0  0  0  0
    4.2156    0.0739    0.0000 C   0  0  0  0  0  0  0  0  0  0  0  0
  1  2  1  0
  2  3  2  0
  3  4  1  0
  4  5  2  0
  5  6  1  0
  6  7  2  0
  7  8  1  0
  8  9  2  0
  9 10  1  0
 10 11  2  0
  8 12  1  0
 12 13  2  0
 12 14  2  0
 12 15  1  0
 15 16  1  0
 16 17  1  0
 17 18  1  0
 18 19  1  0
 19 20  1  0
 20 21  1  0
 21 22  1  6
  7  2  1  0
 11  6  1  0
 21 15  1  0
M  END
>  <Structure>  (1) 
2GNH

>  <Dataset>  (1) 
PDB

>  <Chain>  (1) 
A

>  <Spatial_Label>  (1) 
DFGin

>  <Dihedral_Label>  (1) 
ABAminus

>  <C_Helix_Label>  (1) 
Chelix-in

>  <Lig_ID>  (1) 
H52

>  <Lig_Entity_ID>  (1) 
2GNH_3

>  <Lig_Name>  (1) 
(S)-2-METHYL-1-[(4-METHYL-5-ISOQUINOLINE)SULFONYL]-HOMOPIPERAZINE

>  <Lig_Formula>  (1) 
C16H21N3O2S

>  <Lig_SMILES>  (1) 
Cc1cncc2c1c(ccc2)S(=O)(=O)[N@]3CCCNC[C@@H]3C

>  <Lig_MW>  (1) 
319.422

>  <Lig_ChEMBL_ID>  (1) 
['CHEMBL406821']

>  <Lig_DrugBank_ID>  (1) 
['DB07876']

>  <Occurence>  (1) 
4

>  <Lig_SMILES_Uncharged>  (1) 
Cc1cncc2cccc(S(=O)(=O)N3CCCNC[C@@H]3C)c12

>  <Lig_Conformer>  (1) 
['NaN', 'NaN']

>  <Lig_Of_Interest>  (1) 
['Y', 'Y']

>  <Lig_Completeness>  (1) 
[1.0, 1.0]

>  <Lig_Occupancy>  (1) 
[1.0, 1.0]

>  <Lig_RSCC>  (1) 
[0.971, 0.932]

>  <Lig_RSR>  (1) 
[0.067, 0.102]

>  <Lig_RMSZ_Bonds>  (1) 
[2.17, 2.22]

>  <Lig_RMSZ_Angles>  (1) 
[2.43, 2.2]

>  <Lig_Alt_Conf>  (1) 
0

>  <Title>  (1) 
PKA five fold mutant model of Rho-kinase with H1152P

>  <Nonpolymer_Entity_Count>  (1) 
2

>  <Protein_Entity_Count>  (1) 
2

>  <Exp_Method>  (1) 
X-Ray Diffraction

>  <Cryst_Method>  (1) 
Vapor Diffusion, Hanging Drop; Licl, Mesbistris, Edta, Dtt, Mega8, Methanol, pH 6.5, Vapor Diffusion, Hanging Drop, Temperature 278K

>  <Deposit_Date>  (1) 
2006-04-10

>  <Resolution>  (1) 
2.05

>  <DOI>  (1) 
https://doi.org/10.1074/jbc.M512374200

>  <Source_Organism>  (1) 
Bos taurus

>  <R_Free>  (1) 
0.25587

>  <Keywords>  (1) 
Transferase/Transferase Inhibitor

>  <REMARK_280>  (1) 
 Crystal Solvent Content, Vs (%): 52.76 Matthews Coefficient, Vm (Angstroms**3/Da): 2.60 Crystallization Conditions: Licl, Mesbistris, Edta, Dtt, Mega8, Methanol, pH 6.5, Vapor Diffusion, Hanging Drop, Temperature 278K 

>  <REMARK_610>  (1) 
nan

>  <pH>  (1) 
6.5

>  <Cryst_Technique>  (1) 
co-crystallized

>  <Sequence>  (1) 
GNAAAAKKGSEQESVKEFLAKAKEDFLKKWENPAQNTAHLDQFERIKTIGTGSFGRVMLVKHMETGNHYAMKILDKQKVVKLKQIEHTLNEKRILQAVNFPFLVKLEFSFKDNSNLYMVMEYMPGGDMFSHLRRIGRFSEPHARFYAAQIVLTFEYLHSLDLIYRDLKPENLLIDQQGYIKVADFGFAKRVKGRTWTLCGTPEYLAPEIILSKGYNKAVDWWALGVLIYEMAAGYPPFFADQPIQIYEKIVSGKVRFPSHFSSDLKDLLRNLLQVDLTKRFGNLKNGVNDIKNHKWFATTDWIAIYQRKVEAPFIPKFKGPGDTSNFDDYEEEEIRVSINEKCGKEFSEF

>  <Sequence_Length>  (1) 
350

>  <Mutation_Count>  (1) 
8

>  <Gene_Name>  (1) 
PKACA

>  <MW>  (1) 
40.775

>  <Name>  (1) 
cAMP-Dependent Protein Kinase, Alpha-Catalytic Subunit

>  <Mutations>  (1) 
L49I, V123M, E127D, Q181K, T183A

>  <EC_Number>  (1) 
2.7.11.11

>  <Peptidic_Inhibitor>  (1) 
True

>  <Lig_Missing_Atoms>  (1) 
['No', 'No']

>  <PDBbind_Resolution>  (1) 
2.05

>  <PDBbind_Release_Year>  (1) 
2006.0

>  <PDBbind_Comment>  (1) 
nan

>  <PDBbind_Uniprot_Id>  (1) 
P00517

>  <PDBbind_Protein_Name>  (1) 
CAMP-DEPENDENT PROTEIN KINASE, ALPHA-CATALYTIC

>  <PDBbind_-Logkd/Ki>  (1) 
6.83

>  <PDBbind_Kd/Ki>  (1) 
IC=149nM

>  <PDBbind_Kd_Or_Ki_Or_Ic50>  (1) 
IC50

>  <PDBbind_Relation>  (1) 
=

>  <PDBbind_Value>  (1) 
149.0

>  <PDBbind_Unit>  (1) 
nM

>  <PDBbind_Standard_Value>  (1) 
149.0

>  <PDBbind_Standard_Unit>  (1) 
nM

$$$$

     RDKit          2D

 20 22  0  0  0  0  0  0  0  0999 V2000
    0.7500   -3.8971    0.0000 C   0  0  0  0  0  0  0  0  0  0  0  0
    1.5000   -2.5981    0.0000 C   0  0  0  0  0  0  0  0  0  0  0  0
    0.7500   -1.2990    0.0000 C   0  0  0  0  0  0  0  0  0  0  0  0
    1.5000    0.0000    0.0000 C   0  0  0  0  0  0  0  0  0  0  0  0
    0.7500    1.2990    0.0000 N   0  0  0  0  0  0  0  0  0  0  0  0
   -0.7500    1.2990    0.0000 C   0  0  0  0  0  0  0  0  0  0  0  0
   -1.5000    0.0000    0.0000 C   0  0  0  0  0  0  0  0  0  0  0  0
   -0.7500   -1.2990    0.0000 C   0  0  0  0  0  0  0  0  0  0  0  0
   -1.5000   -2.5981    0.0000 C   0  0  0  0  0  0  0  0  0  0  0  0
   -0.7500   -3.8971    0.0000 C   0  0  0  0  0  0  0  0  0  0  0  0
   -3.0000   -2.5981    0.0000 S   0  0  0  0  0  0  0  0  0  0  0  0
   -3.0000   -4.0981    0.0000 O   0  0  0  0  0  0  0  0  0  0  0  0
   -3.0000   -1.0981    0.0000 O   0  0  0  0  0  0  0  0  0  0  0  0
   -4.5000   -2.5981    0.0000 N   0  0  0  0  0  0  0  0  0  0  0  0
   -5.1508   -3.9495    0.0000 C   0  0  0  0  0  0  0  0  0  0  0  0
   -6.6132   -4.2833    0.0000 C   0  0  0  0  0  0  0  0  0  0  0  0
   -7.7860   -3.3481    0.0000 C   0  0  0  0  0  0  0  0  0  0  0  0
   -7.7860   -1.8481    0.0000 N   0  0  0  0  0  0  0  0  0  0  0  0
   -6.6132   -0.9128    0.0000 C   0  0  0  0  0  0  0  0  0  0  0  0
   -5.1508   -1.2466    0.0000 C   0  0  0  0  0  0  0  0  0  0  0  0
  1  2  2  0
  2  3  1  0
  3  4  2  0
  4  5  1  0
  5  6  2  0
  6  7  1  0
  7  8  2  0
  8  9  1  0
  9 10  2  0
  9 11  1  0
 11 12  2  0
 11 13  2  0
 11 14  1  0
 14 15  1  0
 15 16  1  0
 16 17  1  0
 17 18  1  0
 18 19  1  0
 19 20  1  0
 10  1  1  0
  8  3  1  0
 20 14  1  0
M  END
>  <Structure>  (2) 
2GNI

>  <Dataset>  (2) 
PDB

>  <Chain>  (2) 
A

>  <Spatial_Label>  (2) 
DFGin

>  <Dihedral_Label>  (2) 
ABAminus

>  <C_Helix_Label>  (2) 
Chelix-in

>  <Lig_ID>  (2) 
M77

>  <Lig_Entity_ID>  (2) 
2GNI_3

>  <Lig_Name>  (2) 
5-(1,4-DIAZEPAN-1-SULFONYL)ISOQUINOLINE

>  <Lig_Formula>  (2) 
C14H17N3O2S

>  <Lig_SMILES>  (2) 
c1cc2cnccc2c(c1)S(=O)(=O)N3CCCNCC3

>  <Lig_MW>  (2) 
291.369

>  <Lig_ChEMBL_ID>  (2) 
['CHEMBL38380']

>  <Lig_DrugBank_ID>  (2) 
['DB08162']

>  <Occurence>  (2) 
11

>  <Lig_SMILES_Uncharged>  (2) 
O=S(=O)(c1cccc2cnccc12)N1CCCNCC1

>  <Lig_Conformer>  (2) 
['NaN']

>  <Lig_Of_Interest>  (2) 
['Y']

>  <Lig_Completeness>  (2) 
[1.0]

>  <Lig_Occupancy>  (2) 
[1.0]

>  <Lig_RSCC>  (2) 
[0.964]

>  <Lig_RSR>  (2) 
[0.076]

>  <Lig_RMSZ_Bonds>  (2) 
[1.65]

>  <Lig_RMSZ_Angles>  (2) 
[1.87]

>  <Lig_Alt_Conf>  (2) 
0

>  <Title>  (2) 
PKA fivefold mutant model of Rho-kinase with inhibitor Fasudil (HA1077)

>  <Nonpolymer_Entity_Count>  (2) 
1

>  <Protein_Entity_Count>  (2) 
2

>  <Exp_Method>  (2) 
X-Ray Diffraction

>  <Cryst_Method>  (2) 
Vapor Diffusion, Hanging Drop; Methanol, Licl, Mesbistris, Edta, Dtt, Mega8, pH 6.5, Vapor Diffusion, Hanging Drop, Temperature 278K

>  <Deposit_Date>  (2) 
2006-04-10

>  <Resolution>  (2) 
2.27

>  <DOI>  (2) 
https://doi.org/10.1074/jbc.M512374200

>  <Source_Organism>  (2) 
Bos taurus

>  <R_Free>  (2) 
0.26817

>  <Keywords>  (2) 
Transferase/Transferase Inhibitor

>  <REMARK_280>  (2) 
 Crystal Solvent Content, Vs (%): 52.02 Matthews Coefficient, Vm (Angstroms**3/Da): 2.56 Crystallization Conditions: Methanol, Licl, Mesbistris, Edta, Dtt, Mega8, pH 6.5, Vapor Diffusion, Hanging Drop, Temperature 278K 

>  <REMARK_610>  (2) 
nan

>  <pH>  (2) 
6.5

>  <Cryst_Technique>  (2) 
co-crystallized

>  <Sequence>  (2) 
GNAAAAKKGSEQESVKEFLAKAKEDFLKKWENPAQNTAHLDQFERIKTIGTGSFGRVMLVKHMETGNHYAMKILDKQKVVKLKQIEHTLNEKRILQAVNFPFLVKLEFSFKDNSNLYMVMEYMPGGDMFSHLRRIGRFSEPHARFYAAQIVLTFEYLHSLDLIYRDLKPENLLIDQQGYIKVADFGFAKRVKGRTWTLCGTPEYLAPEIILSKGYNKAVDWWALGVLIYEMAAGYPPFFADQPIQIYEKIVSGKVRFPSHFSSDLKDLLRNLLQVDLTKRFGNLKNGVNDIKNHKWFATTDWIAIYQRKVEAPFIPKFKGPGDTSNFDDYEEEEIRVSINEKCGKEFSEF

>  <Sequence_Length>  (2) 
350

>  <Mutation_Count>  (2) 
8

>  <Gene_Name>  (2) 
PKACA

>  <MW>  (2) 
40.775

>  <Name>  (2) 
cAMP-Dependent Protein Kinase, Alpha-Catalytic Subunit

>  <Mutations>  (2) 
L49I, V123M, E127D, Q181K, T183A

>  <EC_Number>  (2) 
2.7.11.11

>  <Peptidic_Inhibitor>  (2) 
True

>  <Lig_Missing_Atoms>  (2) 
['No']

>  <PDBbind_Resolution>  (2) 
2.27

>  <PDBbind_Release_Year>  (2) 
2006.0

>  <PDBbind_Comment>  (2) 
nan

>  <PDBbind_Uniprot_Id>  (2) 
P00517

>  <PDBbind_Protein_Name>  (2) 
CAMP-DEPENDENT PROTEIN KINASE, ALPHA-CATALYTIC

>  <PDBbind_-Logkd/Ki>  (2) 
5.64

>  <PDBbind_Kd/Ki>  (2) 
IC=2.28uM

>  <PDBbind_Kd_Or_Ki_Or_Ic50>  (2) 
IC50

>  <PDBbind_Relation>  (2) 
=

>  <PDBbind_Value>  (2) 
2.28

>  <PDBbind_Unit>  (2) 
uM

>  <PDBbind_Standard_Value>  (2) 
2280.0

>  <PDBbind_Standard_Unit>  (2) 
nM

$$$$

     RDKit          2D

 33 37  0  0  0  0  0  0  0  0999 V2000
    0.4022   -7.7629    0.0000 C   0  0  0  0  0  0  0  0  0  0  0  0
    0.2454   -6.2711    0.0000 C   0  0  0  0  0  0  0  0  0  0  0  0
    1.3601   -5.2674    0.0000 C   0  0  0  0  0  0  0  0  0  0  0  0
    0.7500   -3.8971    0.0000 C   0  0  0  0  0  0  0  0  0  0  0  0
   -0.7418   -4.0539    0.0000 N   0  0  0  0  0  0  0  0  0  0  0  0
   -1.0537   -5.5211    0.0000 N   0  0  0  0  0  0  0  0  0  0  0  0
    1.5000   -2.5981    0.0000 N   0  0  0  0  0  0  0  0  0  0  0  0
    0.7500   -1.2990    0.0000 C   0  0  0  0  0  0  0  0  0  0  0  0
    1.5000    0.0000    0.0000 C   0  0  0  0  0  0  0  0  0  0  0  0
    0.7500    1.2990    0.0000 C   0  0  0  0  0  0  0  0  0  0  0  0
   -0.7500    1.2990    0.0000 N   0  0  0  0  0  0  0  0  0  0  0  0
   -1.5000    0.0000    0.0000 C   0  0  0  0  0  0  0  0  0  0  0  0
   -0.7500   -1.2990    0.0000 N   0  0  0  0  0  0  0  0  0  0  0  0
   -3.0000    0.0000    0.0000 S   0  0  0  0  0  0  0  0  0  0  0  0
   -3.7500    1.2990    0.0000 C   0  0  0  0  0  0  0  0  0  0  0  0
   -3.0000    2.5981    0.0000 C   0  0  0  0  0  0  0  0  0  0  0  0
   -3.7500    3.8971    0.0000 C   0  0  0  0  0  0  0  0  0  0  0  0
   -5.2500    3.8971    0.0000 C   0  0  0  0  0  0  0  0  0  0  0  0
   -6.0000    2.5981    0.0000 C   0  0  0  0  0  0  0  0  0  0  0  0
   -5.2500    1.2990    0.0000 C   0  0  0  0  0  0  0  0  0  0  0  0
   -6.0000    5.1962    0.0000 N   0  0  0  0  0  0  0  0  0  0  0  0
   -5.2500    6.4952    0.0000 C   0  0  0  0  0  0  0  0  0  0  0  0
   -3.7500    6.4952    0.0000 O   0  0  0  0  0  0  0  0  0  0  0  0
   -6.0000    7.7942    0.0000 C   0  0  0  0  0  0  0  0  0  0  0  0
   -7.2990    8.5442    0.0000 C   0  0  0  0  0  0  0  0  0  0  0  0
   -6.0000    9.2942    0.0000 C   0  0  0  0  0  0  0  0  0  0  0  0
    1.5000    2.5981    0.0000 N   0  0  0  0  0  0  0  0  0  0  0  0
    3.0000    2.5981    0.0000 C   0  0  0  0  0  0  0  0  0  0  0  0
    3.7500    3.8971    0.0000 C   0  0  0  0  0  0  0  0  0  0  0  0
    3.0000    5.1962    0.0000 N   0  0  0  0  0  0  0  0  0  0  0  0
    1.5000    5.1962    0.0000 C   0  0  0  0  0  0  0  0  0  0  0  0
    0.7500    3.8971    0.0000 C   0  0  0  0  0  0  0  0  0  0  0  0
    3.7500    6.4952    0.0000 C   0  0  0  0  0  0  0  0  0  0  0  0
  1  2  1  0
  2  3  1  0
  3  4  2  0
  4  5  1  0
  5  6  1  0
  4  7  1  0
  7  8  1  0
  8  9  2  0
  9 10  1  0
 10 11  2  0
 11 12  1  0
 12 13  2  0
 12 14  1  0
 14 15  1  0
 15 16  2  0
 16 17  1  0
 17 18  2  0
 18 19  1  0
 19 20  2  0
 18 21  1  0
 21 22  1  0
 22 23  2  0
 22 24  1  0
 24 25  1  0
 25 26  1  0
 10 27  1  0
 27 28  1  0
 28 29  1  0
 29 30  1  0
 30 31  1  0
 31 32  1  0
 30 33  1  0
  6  2  2  0
 13  8  1  0
 20 15  1  0
 26 24  1  0
 32 27  1  0
M  END
>  <Structure>  (3) 
3AMB

>  <Dataset>  (3) 
PDB

>  <Chain>  (3) 
A

>  <Spatial_Label>  (3) 
DFGin

>  <Dihedral_Label>  (3) 
ABAminus

>  <C_Helix_Label>  (3) 
Chelix-in

>  <Lig_ID>  (3) 
VX6

>  <Lig_Entity_ID>  (3) 
3AMB_3

>  <Lig_Name>  (3) 
CYCLOPROPANECARBOXYLIC ACID {4-[4-(4-METHYL-PIPERAZIN-1-YL)-6-(5-METHYL-2H-PYRAZOL-3-YLAMINO)-PYRIMIDIN-2-YLSULFANYL]-PHENYL}-AMIDE

>  <Lig_Formula>  (3) 
C23H28N8OS

>  <Lig_SMILES>  (3) 
Cc1cc([nH]n1)Nc2cc(nc(n2)Sc3ccc(cc3)NC(=O)C4CC4)N5CCN(CC5)C

>  <Lig_MW>  (3) 
464.586

>  <Lig_ChEMBL_ID>  (3) 
['CHEMBL572878']

>  <Lig_DrugBank_ID>  (3) 
nan

>  <Occurence>  (3) 
1

>  <Lig_SMILES_Uncharged>  (3) 
Cc1cc(Nc2cc(N3CCN(C)CC3)nc(Sc3ccc(NC(=O)C4CC4)cc3)n2)[nH]n1

>  <Lig_Conformer>  (3) 
['NaN']

>  <Lig_Of_Interest>  (3) 
['Y']

>  <Lig_Completeness>  (3) 
[1.0]

>  <Lig_Occupancy>  (3) 
[1.0]

>  <Lig_RSCC>  (3) 
[0.956]

>  <Lig_RSR>  (3) 
[0.089]

>  <Lig_RMSZ_Bonds>  (3) 
[1.79]

>  <Lig_RMSZ_Angles>  (3) 
[1.83]

>  <Lig_Alt_Conf>  (3) 
0

>  <Title>  (3) 
Protein kinase A sixfold mutant model of Aurora B with inhibitor VX-680

>  <Nonpolymer_Entity_Count>  (3) 
1

>  <Protein_Entity_Count>  (3) 
2

>  <Exp_Method>  (3) 
X-Ray Diffraction

>  <Cryst_Method>  (3) 
Vapor Diffusion, Hanging Drop; 25Mm Tris-Hcl, 25Mm Nacl, 1.5Mm Octanoyl-N-Methylglucamide, 1Mm (5-24)-Pki, 12-20% (V/V) Methanol, 2-Methyl-2,4-Pentanediol 30%, pH 7.5, Vapor Diffusion, Hanging Drop, Temperature 277K

>  <Deposit_Date>  (3) 
2010-08-18

>  <Resolution>  (3) 
2.25

>  <DOI>  (3) 
https://doi.org/10.1042/BJ20110592

>  <Source_Organism>  (3) 
Homo sapiens

>  <R_Free>  (3) 
0.25622

>  <Keywords>  (3) 
Transferase/Transferase Inhibitor

>  <REMARK_280>  (3) 
 Crystal Solvent Content, Vs (%): 51.83 Matthews Coefficient, Vm (Angstroms**3/Da): 2.55 Crystallization Conditions: 25Mm Tris-Hcl, 25Mm Nacl, 1.5Mm Octanoyl-N-Methylglucamide, 1Mm (5-24)-Pki, 12-20% (V/V) Methanol, 2-Methyl-2,4-Pentanediol 30%, pH 7.5, Vapor Diffusion, Hanging Drop, Temperature 277K 

>  <REMARK_610>  (3) 
nan

>  <pH>  (3) 
7.5

>  <Cryst_Technique>  (3) 
soaked

>  <Sequence>  (3) 
MGNAAAAKKGSEQESVKEFLAKAKEDFLKKWESPAQNTAHLDQFERIRTLGTGSFGRVMLVKHKETGNHYAMKILDKQKVVKLKQIEHTLNEKRIQQAVNFPFLVKLEFSFKDNSNLYMVLEYAPGGEMFSHLRRIGRFSEPHARFYAAQIVLTFEYLHSLDLIYRDLKPENLLIDQQGYIKVADFGFAKRVKGRTWTLCGTPEYLAPEIILSKGYNKAVDWWALGVLIYEMAAGYPPFFADQPIQIYEKIVSGKVRFPSHFSSDLKDLLRNLLQVDLTKRFGNLKNGVNDIKNHKWFATTDWIAIYQRKVEAPFIPKFKGPGDTSNFDDYEEEEIRVSINEKCGKEFSEF

>  <Sequence_Length>  (3) 
351

>  <Mutation_Count>  (3) 
6

>  <Gene_Name>  (3) 
PKACA

>  <MW>  (3) 
40.856

>  <Name>  (3) 
cAMP-Dependent Protein Kinase Catalytic Subunit Alpha

>  <Mutations>  (3) 
K47R, L95Q, M120L, V123A, Q181K, T183A

>  <EC_Number>  (3) 
2.7.11.11

>  <Peptidic_Inhibitor>  (3) 
True

>  <Lig_Missing_Atoms>  (3) 
['No']

>  <PDBbind_Resolution>  (3) 
2.25

>  <PDBbind_Release_Year>  (3) 
2011.0

>  <PDBbind_Comment>  (3) 
nan

>  <PDBbind_Uniprot_Id>  (3) 
P17612

>  <PDBbind_Protein_Name>  (3) 
CAMP-DEPENDENT PROTEIN KINASE, ALPHA-CATALYTIC

>  <PDBbind_-Logkd/Ki>  (3) 
6.18

>  <PDBbind_Kd/Ki>  (3) 
Ki=0.66uM

>  <PDBbind_Kd_Or_Ki_Or_Ic50>  (3) 
Ki

>  <PDBbind_Relation>  (3) 
=

>  <PDBbind_Value>  (3) 
0.66

>  <PDBbind_Unit>  (3) 
uM

>  <PDBbind_Standard_Value>  (3) 
660.0

>  <PDBbind_Standard_Unit>  (3) 
nM

$$$$

     RDKit          2D

 20 23  0  0  0  0  0  0  0  0999 V2000
    0.6260   -8.2988    0.0000 C   0  0  0  0  0  0  0  0  0  0  0  0
    1.9963   -8.9089    0.0000 N   0  0  0  0  0  0  0  0  0  0  0  0
    3.0000   -7.7942    0.0000 C   0  0  0  0  0  0  0  0  0  0  0  0
    2.2500   -6.4952    0.0000 C   0  0  0  0  0  0  0  0  0  0  0  0
    0.7828   -6.8071    0.0000 N   0  0  0  0  0  0  0  0  0  0  0  0
    3.0000   -5.1962    0.0000 C   0  0  0  0  0  0  0  0  0  0  0  0
    4.5000   -5.1962    0.0000 N   0  0  0  0  0  0  0  0  0  0  0  0
    5.2500   -6.4952    0.0000 C   0  0  0  0  0  0  0  0  0  0  0  0
    4.5000   -7.7942    0.0000 N   0  0  0  0  0  0  0  0  0  0  0  0
    2.2500   -3.8971    0.0000 N   0  0  0  0  0  0  0  0  0  0  0  0
    3.0000   -2.5981    0.0000 C   0  0  0  0  0  0  0  0  0  0  0  0
    2.2500   -1.2990    0.0000 C   0  0  0  0  0  0  0  0  0  0  0  0
    0.7500   -1.2990    0.0000 C   0  0  0  0  0  0  0  0  0  0  0  0
    1.5000    0.0000    0.0000 C   0  0  0  0  0  0  0  0  0  0  0  0
    0.7500    1.2990    0.0000 C   0  0  0  0  0  0  0  0  0  0  0  0
   -0.7500    1.2990    0.0000 C   0  0  0  0  0  0  0  0  0  0  0  0
   -1.5000    0.0000    0.0000 N   0  0  0  0  0  0  0  0  0  0  0  0
   -0.7500   -1.2990    0.0000 C   0  0  0  0  0  0  0  0  0  0  0  0
   -0.0000   -2.5981    0.0000 C   0  0  0  0  0  0  0  0  0  0  0  0
    0.7500   -3.8971    0.0000 C   0  0  0  0  0  0  0  0  0  0  0  0
  1  2  1  0
  2  3  1  0
  3  4  2  0
  4  5  1  0
  4  6  1  0
  6  7  2  0
  7  8  1  0
  8  9  2  0
  6 10  1  0
 10 11  1  0
 11 12  1  0
 12 13  1  0
 13 14  1  0
 14 15  1  0
 15 16  1  0
 16 17  1  0
 17 18  1  0
 13 19  1  0
 19 20  1  0
  5  1  2  0
  9  3  1  0
 20 10  1  0
 18 13  1  0
M  END
>  <Structure>  (4) 
3ZO2

>  <Dataset>  (4) 
PDB

>  <Chain>  (4) 
A

>  <Spatial_Label>  (4) 
DFGin

>  <Dihedral_Label>  (4) 
ABAminus

>  <C_Helix_Label>  (4) 
Chelix-in

>  <Lig_ID>  (4) 
15I

>  <Lig_Entity_ID>  (4) 
3ZO2_3

>  <Lig_Name>  (4) 
6-(2,9-Diazaspiro[5.5]undecan-9-yl)-9H-purine

>  <Lig_Formula>  (4) 
C14H20N6

>  <Lig_SMILES>  (4) 
c1[nH]c2c(n1)c(ncn2)N3CCC4(CCCNC4)CC3

>  <Lig_MW>  (4) 
272.349

>  <Lig_ChEMBL_ID>  (4) 
['CHEMBL2420911']

>  <Lig_DrugBank_ID>  (4) 
nan

>  <Occurence>  (4) 
1

>  <Lig_SMILES_Uncharged>  (4) 
c1nc(N2CCC3(CCCNC3)CC2)c2nc[nH]c2n1

>  <Lig_Conformer>  (4) 
['NaN']

>  <Lig_Of_Interest>  (4) 
['Y']

>  <Lig_Completeness>  (4) 
[1.0]

>  <Lig_Occupancy>  (4) 
[1.0]

>  <Lig_RSCC>  (4) 
[0.974]

>  <Lig_RSR>  (4) 
[0.087]

>  <Lig_RMSZ_Bonds>  (4) 
[1.75]

>  <Lig_RMSZ_Angles>  (4) 
[1.45]

>  <Lig_Alt_Conf>  (4) 
0

>  <Title>  (4) 
The Synthesis and Evaluation of Diazaspirocyclic Protein Kinase Inhibitors

>  <Nonpolymer_Entity_Count>  (4) 
4

>  <Protein_Entity_Count>  (4) 
2

>  <Exp_Method>  (4) 
X-Ray Diffraction

>  <Cryst_Method>  (4) 
NaN; 25Mm Mes-Bistris pH6.5, 75Mm Licl, 1Mm Dtt, 0.1Mm Edta, 1.5Mm Mega8; 4 Degree Celsius

>  <Deposit_Date>  (4) 
2013-02-20

>  <Resolution>  (4) 
1.98

>  <DOI>  (4) 
https://doi.org/10.1016/j.bmc.2013.07.021

>  <Source_Organism>  (4) 
Bos taurus

>  <R_Free>  (4) 
0.1909

>  <Keywords>  (4) 
Transferase/Inhibitor

>  <REMARK_280>  (4) 
 Crystal Solvent Content, Vs (%): 54.53 Matthews Coefficient, Vm (Angstroms**3/Da): 2.70 Crystallization Conditions: 25Mm Mes-Bistris pH6.5, 75Mm Licl, 1Mm Dtt, 0.1Mm Edta, 1.5Mm Mega8; 4 Degree Celsius, Temperature 277K 

>  <REMARK_610>  (4) 
nan

>  <pH>  (4) 
6.5

>  <Cryst_Technique>  (4) 
soaked

>  <Sequence>  (4) 
MGNAAAAKKGSEQESVKEFLAKAKEDFLKKWENPAQNTAHLDQFERIKTLGTGSFGRVMLVKHMETGNHYAMKILDKQKVVKLKQIEHTLNEKRILQAVNFPFLVKLEFSFKDNSNLYMVMEYVPGGEMFSHLRRIGRFSEPHARFYAAQIVLTFEYLHSLDLIYRDLKPENLLIDQQGYIQVTDFGFAKRVKGRTWTLCGTPEYLAPEIILSKGYNKAVDWWALGVLIYEMAAGYPPFFADQPIQIYEKIVSGKVRFPSHFSSDLKDLLRNLLQVDLTKRFGNLKNGVNDIKNHKWFATTDWIAIYQRKVEAPFIPKFKGPGDTSNFDDYEEEEIRVSINEKCGKEFSEF

>  <Sequence_Length>  (4) 
351

>  <Mutation_Count>  (4) 
0

>  <Gene_Name>  (4) 
nan

>  <MW>  (4) 
40.998

>  <Name>  (4) 
cAMP-Dependent Protein Kinase Catalytic Subunit Alpha

>  <Mutations>  (4) 
nan

>  <EC_Number>  (4) 
2.7.11.11

>  <Peptidic_Inhibitor>  (4) 
True

>  <Lig_Missing_Atoms>  (4) 
['No']

>  <PDBbind_Resolution>  (4) 
1.98

>  <PDBbind_Release_Year>  (4) 
2013.0

>  <PDBbind_Comment>  (4) 
ligand is compound 14

>  <PDBbind_Uniprot_Id>  (4) 
P00517

>  <PDBbind_Protein_Name>  (4) 
CAMP-DEPENDENT PROTEIN KINASE, ALPHA-CATALYTIC

>  <PDBbind_-Logkd/Ki>  (4) 
7.1

>  <PDBbind_Kd/Ki>  (4) 
IC=80nM

>  <PDBbind_Kd_Or_Ki_Or_Ic50>  (4) 
IC50

>  <PDBbind_Relation>  (4) 
=

>  <PDBbind_Value>  (4) 
80.0

>  <PDBbind_Unit>  (4) 
nM

>  <PDBbind_Standard_Value>  (4) 
80.0

>  <PDBbind_Standard_Unit>  (4) 
nM

$$$$

     RDKit          2D

 20 23  0  0  0  0  0  0  0  0999 V2000
    2.3740   -8.2988    0.0000 C   0  0  0  0  0  0  0  0  0  0  0  0
    1.0037   -8.9089    0.0000 N   0  0  0  0  0  0  0  0  0  0  0  0
   -0.0000   -7.7942    0.0000 C   0  0  0  0  0  0  0  0  0  0  0  0
    0.7500   -6.4952    0.0000 C   0  0  0  0  0  0  0  0  0  0  0  0
    2.2172   -6.8071    0.0000 N   0  0  0  0  0  0  0  0  0  0  0  0
   -0.0000   -5.1962    0.0000 C   0  0  0  0  0  0  0  0  0  0  0  0
   -1.5000   -5.1962    0.0000 N   0  0  0  0  0  0  0  0  0  0  0  0
   -2.2500   -6.4952    0.0000 C   0  0  0  0  0  0  0  0  0  0  0  0
   -1.5000   -7.7942    0.0000 N   0  0  0  0  0  0  0  0  0  0  0  0
    0.7500   -3.8971    0.0000 N   0  0  0  0  0  0  0  0  0  0  0  0
    2.2500   -3.8971    0.0000 C   0  0  0  0  0  0  0  0  0  0  0  0
    3.0000   -2.5981    0.0000 C   0  0  0  0  0  0  0  0  0  0  0  0
    2.2500   -1.2990    0.0000 C   0  0  0  0  0  0  0  0  0  0  0  0
    0.7500   -1.2990    0.0000 C   0  0  0  0  0  0  0  0  0  0  0  0
   -0.0000   -2.5981    0.0000 C   0  0  0  0  0  0  0  0  0  0  0  0
    1.5000    0.0000    0.0000 C   0  0  0  0  0  0  0  0  0  0  0  0
    0.7500    1.2990    0.0000 C   0  0  0  0  0  0  0  0  0  0  0  0
   -0.7500    1.2990    0.0000 N   0  0  0  0  0  0  0  0  0  0  0  0
   -1.5000    0.0000    0.0000 C   0  0  0  0  0  0  0  0  0  0  0  0
   -0.7500   -1.2990    0.0000 C   0  0  0  0  0  0  0  0  0  0  0  0
  1  2  1  0
  2  3  1  0
  3  4  2  0
  4  5  1  0
  4  6  1  0
  6  7  2  0
  7  8  1  0
  8  9  2  0
  6 10  1  0
 10 11  1  0
 11 12  1  0
 12 13  1  0
 13 14  1  0
 14 15  1  0
 14 16  1  0
 16 17  1  0
 17 18  1  0
 18 19  1  0
 19 20  1  0
  5  1  2  0
  9  3  1  0
 15 10  1  0
 20 14  1  0
M  END
>  <Structure>  (5) 
3ZO3

>  <Dataset>  (5) 
PDB

>  <Chain>  (5) 
A

>  <Spatial_Label>  (5) 
DFGin

>  <Dihedral_Label>  (5) 
ABAminus

>  <C_Helix_Label>  (5) 
Chelix-in

>  <Lig_ID>  (5) 
QNI

>  <Lig_Entity_ID>  (5) 
3ZO3_3

>  <Lig_Name>  (5) 
6-(2,9-DIAZASPIRO[5.5]UNDECAN-2-YL)-9H-PURINE

>  <Lig_Formula>  (5) 
C14H20N6

>  <Lig_SMILES>  (5) 
c1[nH]c2c(n1)c(ncn2)N3CCCC4(C3)CCNCC4

>  <Lig_MW>  (5) 
272.349

>  <Lig_ChEMBL_ID>  (5) 
['CHEMBL2420913']

>  <Lig_DrugBank_ID>  (5) 
nan

>  <Occurence>  (5) 
1

>  <Lig_SMILES_Uncharged>  (5) 
c1nc(N2CCCC3(CCNCC3)C2)c2nc[nH]c2n1

>  <Lig_Conformer>  (5) 
['NaN']

>  <Lig_Of_Interest>  (5) 
['Y']

>  <Lig_Completeness>  (5) 
[1.0]

>  <Lig_Occupancy>  (5) 
[1.0]

>  <Lig_RSCC>  (5) 
[0.982]

>  <Lig_RSR>  (5) 
[0.09]

>  <Lig_RMSZ_Bonds>  (5) 
[1.88]

>  <Lig_RMSZ_Angles>  (5) 
[0.95]

>  <Lig_Alt_Conf>  (5) 
0

>  <Title>  (5) 
The Synthesis and Evaluation of Diazaspirocyclic Protein Kinase Inhibitors

>  <Nonpolymer_Entity_Count>  (5) 
12

>  <Protein_Entity_Count>  (5) 
2

>  <Exp_Method>  (5) 
X-Ray Diffraction

>  <Cryst_Method>  (5) 
NaN; 25Mm Mes-Bistris pH6.5, 75Mm Licl, 1Mm Dtt, 0.1Mm Edta, 1.5Mm Mega8; 4 Degree Celsius

>  <Deposit_Date>  (5) 
2013-02-20

>  <Resolution>  (5) 
2.1

>  <DOI>  (5) 
https://doi.org/10.1016/j.bmc.2013.07.021

>  <Source_Organism>  (5) 
Bos taurus

>  <R_Free>  (5) 
0.2105

>  <Keywords>  (5) 
Transferase/Inhibitor

>  <REMARK_280>  (5) 
 Crystal Solvent Content, Vs (%): 54.87 Matthews Coefficient, Vm (Angstroms**3/Da): 2.72 Crystallization Conditions: 25Mm Mes-Bistris pH6.5, 75Mm Licl, 1Mm Dtt, 0.1Mm Edta, 1.5Mm Mega8; 4 Degree Celsius, Temperature 277K 

>  <REMARK_610>  (5) 
nan

>  <pH>  (5) 
6.5

>  <Cryst_Technique>  (5) 
soaked

>  <Sequence>  (5) 
MGNAAAAKKGSEQESVKEFLAKAKEDFLKKWENPAQNTAHLDQFERIKTLGTGSFGRVMLVKHMETGNHYAMKILDKQKVVKLKQIEHTLNEKRILQAVNFPFLVKLEFSFKDNSNLYMVMEYVPGGEMFSHLRRIGRFSEPHARFYAAQIVLTFEYLHSLDLIYRDLKPENLLIDQQGYIQVTDFGFAKRVKGRTWTLCGTPEYLAPEIILSKGYNKAVDWWALGVLIYEMAAGYPPFFADQPIQIYEKIVSGKVRFPSHFSSDLKDLLRNLLQVDLTKRFGNLKNGVNDIKNHKWFATTDWIAIYQRKVEAPFIPKFKGPGDTSNFDDYEEEEIRVSINEKCGKEFSEF

>  <Sequence_Length>  (5) 
351

>  <Mutation_Count>  (5) 
0

>  <Gene_Name>  (5) 
nan

>  <MW>  (5) 
40.918

>  <Name>  (5) 
cAMP-Dependent Protein Kinase Catalytic Subunit Alpha

>  <Mutations>  (5) 
nan

>  <EC_Number>  (5) 
2.7.11.11

>  <Peptidic_Inhibitor>  (5) 
True

>  <Lig_Missing_Atoms>  (5) 
['No']

>  <PDBbind_Resolution>  (5) 
nan

>  <PDBbind_Release_Year>  (5) 
nan

>  <PDBbind_Comment>  (5) 
nan

>  <PDBbind_Uniprot_Id>  (5) 
nan

>  <PDBbind_Protein_Name>  (5) 
nan

>  <PDBbind_-Logkd/Ki>  (5) 
nan

>  <PDBbind_Kd/Ki>  (5) 
nan

>  <PDBbind_Kd_Or_Ki_Or_Ic50>  (5) 
nan

>  <PDBbind_Relation>  (5) 
nan

>  <PDBbind_Value>  (5) 
nan

>  <PDBbind_Unit>  (5) 
nan

>  <PDBbind_Standard_Value>  (5) 
nan

>  <PDBbind_Standard_Unit>  (5) 
nan

$$$$

     RDKit          2D

 22 24  0  0  0  0  0  0  0  0999 V2000
    1.5000    0.0000    0.0000 C   0  0  0  0  0  0  0  0  0  0  0  0
    0.7500   -1.2990    0.0000 C   0  0  0  0  0  0  0  0  0  0  0  0
   -0.7500   -1.2990    0.0000 C   0  0  0  0  0  0  0  0  0  0  0  0
   -1.5000    0.0000    0.0000 C   0  0  0  0  0  0  0  0  0  0  0  0
   -0.7500    1.2990    0.0000 C   0  0  0  0  0  0  0  0  0  0  0  0
    0.7500    1.2990    0.0000 C   0  0  0  0  0  0  0  0  0  0  0  0
    1.5000    2.5981    0.0000 C   0  0  0  0  0  0  0  0  0  0  0  0
    0.8899    3.9684    0.0000 C   0  0  0  0  0  0  0  0  0  0  0  0
    2.0046    4.9721    0.0000 N   0  0  0  0  0  0  0  0  0  0  0  0
    3.3037    4.2221    0.0000 N   0  0  0  0  0  0  0  0  0  0  0  0
    2.9918    2.7549    0.0000 C   0  0  0  0  0  0  0  0  0  0  0  0
   -1.5000   -2.5981    0.0000 C   0  0  0  0  0  0  0  0  0  0  0  0
   -2.7990   -1.8481    0.0000 C   0  0  0  0  0  0  0  0  0  0  0  0
   -4.0981   -2.5981    0.0000 N   0  0  0  0  0  4  0  0  0  0  0  0
   -2.2500   -3.8971    0.0000 C   0  0  0  0  0  0  0  0  0  0  0  0
   -3.7500   -3.8971    0.0000 C   0  0  0  0  0  0  0  0  0  0  0  0
   -4.5000   -5.1962    0.0000 C   0  0  0  0  0  0  0  0  0  0  0  0
   -3.7500   -6.4952    0.0000 C   0  0  0  0  0  0  0  0  0  0  0  0
   -2.2500   -6.4952    0.0000 C   0  0  0  0  0  0  0  0  0  0  0  0
   -1.5000   -5.1962    0.0000 C   0  0  0  0  0  0  0  0  0  0  0  0
   -4.5000   -7.7942    0.0000 Cl  0  0  0  0  0  0  0  0  0  0  0  0
   -0.2010   -3.3481    0.0000 O   0  0  0  0  0  0  0  0  0  0  0  0
  1  2  2  0
  2  3  1  0
  3  4  2  0
  4  5  1  0
  5  6  2  0
  6  7  1  0
  7  8  2  0
  8  9  1  0
  9 10  1  0
 10 11  2  0
  3 12  1  0
 12 13  1  0
 13 14  1  0
 12 15  1  0
 15 16  2  0
 16 17  1  0
 17 18  2  0
 18 19  1  0
 19 20  2  0
 18 21  1  0
 12 22  1  1
  6  1  1  0
 11  7  1  0
 20 15  1  0
M  CHG  1  14   1
M  END
>  <Structure>  (6) 
4AXA

>  <Dataset>  (6) 
PDB

>  <Chain>  (6) 
A

>  <Spatial_Label>  (6) 
DFGin

>  <Dihedral_Label>  (6) 
ABAminus

>  <C_Helix_Label>  (6) 
Chelix-in

>  <Lig_ID>  (6) 
RKD

>  <Lig_Entity_ID>  (6) 
4AXA_3

>  <Lig_Name>  (6) 
(2S)-2-(4-chlorophenyl)-2-hydroxy-2-[4-(1H-pyrazol-4-yl)phenyl]ethanaminium

>  <Lig_Formula>  (6) 
C17H17ClN3O

>  <Lig_SMILES>  (6) 
c1cc(ccc1c2c[nH]nc2)[C@@](C[NH3+])(c3ccc(cc3)Cl)O

>  <Lig_MW>  (6) 
314.789

>  <Lig_ChEMBL_ID>  (6) 
nan

>  <Lig_DrugBank_ID>  (6) 
nan

>  <Occurence>  (6) 
2

>  <Lig_SMILES_Uncharged>  (6) 
NC[C@@](O)(c1ccc(Cl)cc1)c1ccc(-c2cn[nH]c2)cc1

>  <Lig_Conformer>  (6) 
['NaN']

>  <Lig_Of_Interest>  (6) 
['Y']

>  <Lig_Completeness>  (6) 
[1.0]

>  <Lig_Occupancy>  (6) 
[0.87]

>  <Lig_RSCC>  (6) 
[0.944]

>  <Lig_RSR>  (6) 
[0.077]

>  <Lig_RMSZ_Bonds>  (6) 
[0.42]

>  <Lig_RMSZ_Angles>  (6) 
[0.52]

>  <Lig_Alt_Conf>  (6) 
0

>  <Title>  (6) 
Structure of PKA-PKB chimera complexed with (1S)-2-amino-1-(4- chlorophenyl)-1-(4-(1H-pyrazol-4-yl)phenyl)ethan-1-ol

>  <Nonpolymer_Entity_Count>  (6) 
1

>  <Protein_Entity_Count>  (6) 
2

>  <Exp_Method>  (6) 
X-Ray Diffraction

>  <Cryst_Method>  (6) 
NaN; pH 6.5

>  <Deposit_Date>  (6) 
2012-06-12

>  <Resolution>  (6) 
1.9

>  <DOI>  (6) 
https://doi.org/10.1158/1078-0432.CCR-11-3313

>  <Source_Organism>  (6) 
Bos taurus

>  <R_Free>  (6) 
0.25584

>  <Keywords>  (6) 
Transferase/Transferase Inhibitor

>  <REMARK_280>  (6) 
 Crystal Solvent Content, Vs (%): 51.65 Matthews Coefficient, Vm (Angstroms**3/Da): 2.54 Crystallization Conditions: pH 6.5 

>  <REMARK_610>  (6) 
nan

>  <pH>  (6) 
6.5

>  <Cryst_Technique>  (6) 
soaked

>  <Sequence>  (6) 
MGNAAAAKKGSEQESVKEFLAKAKEDFLKKWENPAQNTAHLDQFERIKTLGTGSFGRVMLVKHMETGNHYAMKILDKQKVVKLKQIEHTLNEKRILQAVNFPFLTKLEFSFKDNSNLYMVMEYAPGGEMFSHLRRIGRFSEPHARFYAAQIVLTFEYLHSLDLIYRDLKPENLMIDQQGYIKVTDFGFAKRVKGRTWTLCGTPEYLAPEIILSKGYNKAVDWWALGVLIYEMAAGYPPFFADQPIQIYEKIVSGKVRFPSHFSSDLKDLLRNLLQVDLTKRFGNLKNGVNDIKNHKWFATTDWIAIYQRKVEAPFIPKFKGPGDTSNFDDYEEEEIRVSINEKCGKEFSEF

>  <Sequence_Length>  (6) 
351

>  <Mutation_Count>  (6) 
4

>  <Gene_Name>  (6) 
nan

>  <MW>  (6) 
40.831

>  <Name>  (6) 
cAMP-Dependent Protein Kinase Catalytic Subunit Alpha

>  <Mutations>  (6) 
YES

>  <EC_Number>  (6) 
2.7.11.11

>  <Peptidic_Inhibitor>  (6) 
True

>  <Lig_Missing_Atoms>  (6) 
['No']

>  <PDBbind_Resolution>  (6) 
1.9

>  <PDBbind_Release_Year>  (6) 
2012.0

>  <PDBbind_Comment>  (6) 
ligand is AT13148

>  <PDBbind_Uniprot_Id>  (6) 
P00517

>  <PDBbind_Protein_Name>  (6) 
CAMP-DEPENDENT PROTEIN KINASE, ALPHA-CATALYTIC

>  <PDBbind_-Logkd/Ki>  (6) 
8.0

>  <PDBbind_Kd/Ki>  (6) 
IC<10nM

>  <PDBbind_Kd_Or_Ki_Or_Ic50>  (6) 
IC50

>  <PDBbind_Relation>  (6) 
<

>  <PDBbind_Value>  (6) 
10.0

>  <PDBbind_Unit>  (6) 
nM

>  <PDBbind_Standard_Value>  (6) 
10.0

>  <PDBbind_Standard_Unit>  (6) 
nM

$$$$

     RDKit          2D

 35 42  0  0  0  0  0  0  0  0999 V2000
    3.4199   -7.0384    0.0000 C   0  0  0  0  0  0  0  0  0  0  0  0
    2.5382   -5.8249    0.0000 C   0  0  0  0  0  0  0  0  0  0  0  0
    4.0414   -5.7874    0.0000 C   0  0  0  0  0  0  0  0  0  0  0  0
    4.8489   -4.5234    0.0000 C   0  0  0  0  0  0  0  0  0  0  0  0
    4.1580   -3.1920    0.0000 C   0  0  0  0  0  0  0  0  0  0  0  0
    2.6595   -3.1247    0.0000 C   0  0  0  0  0  0  0  0  0  0  0  0
    3.2490   -4.5040    0.0000 O   0  0  0  0  0  0  0  0  0  0  0  0
    1.2135   -2.7256    0.0000 N   0  0  0  0  0  0  0  0  0  0  0  0
    0.7500   -1.2990    0.0000 C   0  0  0  0  0  0  0  0  0  0  0  0
    1.5000    0.0000    0.0000 C   0  0  0  0  0  0  0  0  0  0  0  0
    0.7500    1.2990    0.0000 C   0  0  0  0  0  0  0  0  0  0  0  0
   -0.7500    1.2990    0.0000 C   0  0  0  0  0  0  0  0  0  0  0  0
   -1.5000    0.0000    0.0000 C   0  0  0  0  0  0  0  0  0  0  0  0
   -0.7500   -1.2990    0.0000 C   0  0  0  0  0  0  0  0  0  0  0  0
   -1.2135   -2.7256    0.0000 C   0  0  0  0  0  0  0  0  0  0  0  0
   -0.0000   -3.6073    0.0000 C   0  0  0  0  0  0  0  0  0  0  0  0
   -0.0673   -5.1058    0.0000 C   0  0  0  0  0  0  0  0  0  0  0  0
    1.0623   -6.0927    0.0000 N   0  0  0  0  0  0  0  0  0  0  0  0
    0.4728   -7.4720    0.0000 C   0  0  0  0  0  0  0  0  0  0  0  0
    1.1033   -8.8330    0.0000 C   0  0  0  0  0  0  0  0  0  0  0  0
    0.2399  -10.0596    0.0000 C   0  0  0  0  0  0  0  0  0  0  0  0
   -1.2541   -9.9251    0.0000 C   0  0  0  0  0  0  0  0  0  0  0  0
   -1.8846   -8.5641    0.0000 C   0  0  0  0  0  0  0  0  0  0  0  0
   -1.0212   -7.3375    0.0000 C   0  0  0  0  0  0  0  0  0  0  0  0
   -1.3550   -5.8751    0.0000 C   0  0  0  0  0  0  0  0  0  0  0  0
   -2.6122   -4.9151    0.0000 C   0  0  0  0  0  0  0  0  0  0  0  0
   -2.5449   -3.4166    0.0000 C   0  0  0  0  0  0  0  0  0  0  0  0
   -3.9493   -2.8895    0.0000 C   0  0  0  0  0  0  0  0  0  0  0  0
   -4.3483   -1.4436    0.0000 O   0  0  0  0  0  0  0  0  0  0  0  0
   -4.8845   -4.0623    0.0000 N   0  0  0  0  0  0  0  0  0  0  0  0
   -4.0581   -5.3141    0.0000 C   0  0  0  0  0  0  0  0  0  0  0  0
    6.3474   -4.5907    0.0000 N   0  0  0  0  0  0  0  0  0  0  0  0
    7.0384   -5.9220    0.0000 C   0  0  0  0  0  0  0  0  0  0  0  0
    4.7324   -7.1188    0.0000 O   0  0  0  0  0  0  0  0  0  0  0  0
    3.9248   -8.3829    0.0000 C   0  0  0  0  0  0  0  0  0  0  0  0
  2  1  1  6
  2  3  1  0
  3  4  1  0
  4  5  1  0
  6  5  1  1
  6  7  1  0
  6  8  1  0
  8  9  1  0
  9 10  2  0
 10 11  1  0
 11 12  2  0
 12 13  1  0
 13 14  2  0
 14 15  1  0
 15 16  2  0
 16 17  1  0
 17 18  1  0
 18 19  1  0
 19 20  2  0
 20 21  1  0
 21 22  2  0
 22 23  1  0
 23 24  2  0
 24 25  1  0
 25 26  1  0
 26 27  2  0
 27 28  1  0
 28 29  2  0
 28 30  1  0
 30 31  1  0
  4 32  1  1
 32 33  1  0
  3 34  1  1
 34 35  1  0
  7  2  1  0
 18  2  1  0
 16  8  1  0
 14  9  1  0
 27 15  1  0
 25 17  2  0
 24 19  1  0
 31 26  1  0
M  END
>  <Structure>  (7) 
4C34

>  <Dataset>  (7) 
PDB

>  <Chain>  (7) 
A

>  <Spatial_Label>  (7) 
DFGin

>  <Dihedral_Label>  (7) 
ABAminus

>  <C_Helix_Label>  (7) 
Chelix-in

>  <Lig_ID>  (7) 
STU

>  <Lig_Entity_ID>  (7) 
4C34_3

>  <Lig_Name>  (7) 
STAUROSPORINE

>  <Lig_Formula>  (7) 
C28H26N4O3

>  <Lig_SMILES>  (7) 
C[C@@]12[C@@H]([C@@H](C[C@@H](O1)n3c4ccccc4c5c3c6n2c7ccccc7c6c8c5C(=O)NC8)NC)OC

>  <Lig_MW>  (7) 
466.531

>  <Lig_ChEMBL_ID>  (7) 
['CHEMBL388978']

>  <Lig_DrugBank_ID>  (7) 
['DB02010']

>  <Occurence>  (7) 
2

>  <Lig_SMILES_Uncharged>  (7) 
CN[C@@H]1C[C@H]2O[C@@](C)([C@@H]1OC)n1c3ccccc3c3c4c(c5c6ccccc6n2c5c31)C(=O)NC4

>  <Lig_Conformer>  (7) 
['NaN']

>  <Lig_Of_Interest>  (7) 
['Y']

>  <Lig_Completeness>  (7) 
[1.0]

>  <Lig_Occupancy>  (7) 
[1.0]

>  <Lig_RSCC>  (7) 
[0.947]

>  <Lig_RSR>  (7) 
[0.086]

>  <Lig_RMSZ_Bonds>  (7) 
[1.51]

>  <Lig_RMSZ_Angles>  (7) 
[1.02]

>  <Lig_Alt_Conf>  (7) 
0

>  <Title>  (7) 
PKA-S6K1 Chimera with Staurosporine bound

>  <Nonpolymer_Entity_Count>  (7) 
3

>  <Protein_Entity_Count>  (7) 
2

>  <Exp_Method>  (7) 
X-Ray Diffraction

>  <Cryst_Method>  (7) 
NaN; 18 Mg/Ml Protein In 25Mm Mes-Bis-Tris pH 6.5, 75Mm Licl, 0.1Mm Edta, 1Mm Mega-8, 1Mm Dtt And 1Mm Pki Peptide Mixed 1:1 With 8-16% Aqueous Methanol

>  <Deposit_Date>  (7) 
2013-08-21

>  <Resolution>  (7) 
1.78

>  <DOI>  (7) 
https://doi.org/10.18632/oncotarget.1255

>  <Source_Organism>  (7) 
Bos taurus

>  <R_Free>  (7) 
0.2145

>  <Keywords>  (7) 
Transferase/Inhibitor

>  <REMARK_280>  (7) 
 Crystal Solvent Content, Vs (%): 49.90 Matthews Coefficient, Vm (Angstroms**3/Da): 2.45 Crystallization Conditions: 18 Mg/Ml Protein In 25Mm Mes-Bis-Tris pH 6.5, 75Mm Licl, 0.1Mm Edta, 1Mm Mega-8, 1Mm Dtt And 1Mm Pki Peptide Mixed 1:1 With 8-16% Aqueous Methanol, pH 6.4 

>  <REMARK_610>  (7) 
  MG8 A 1353 

>  <pH>  (7) 
6.5

>  <Cryst_Technique>  (7) 
co-crystallized

>  <Sequence>  (7) 
MGNAAAAKKGSEQESVKEFLAKAKEDFLKKWENPAQNTAHLDQFERIKTLGTGSYGRVMLVKHMETGNHYAMKILDKQKVVKLKQIEHTLNEKRILQAVNFPFLVKLEFSFKDNSNLYMVLEYLPGGEMFSHLRRIGRFSEPHARFYAAQIVLTFEYLHSLDLIYRDLKPENLMIDQQGYIKVTDFGFAKRVKGRTWTLCGTPEYLAPEIILSKGYNKAVDWWALGVLIYEMAAGYPPFFADQPIQIYEKIVSGKVRFPSHFSSDLKDLLRNLLQVDLTKRFGNLKNGVNDIKNHKWFATTDWIAIYQRKVEAPFIPKFKGPGDTSNFDDYEEEEIRVSINEKCGKEFSEF

>  <Sequence_Length>  (7) 
351

>  <Mutation_Count>  (7) 
5

>  <Gene_Name>  (7) 
nan

>  <MW>  (7) 
41.029

>  <Name>  (7) 
cAMP-Dependent Protein Kinase Catalytic Subunit Alpha

>  <Mutations>  (7) 
YES

>  <EC_Number>  (7) 
2.7.11.11

>  <Peptidic_Inhibitor>  (7) 
True

>  <Lig_Missing_Atoms>  (7) 
['No']

>  <PDBbind_Resolution>  (7) 
nan

>  <PDBbind_Release_Year>  (7) 
nan

>  <PDBbind_Comment>  (7) 
nan

>  <PDBbind_Uniprot_Id>  (7) 
nan

>  <PDBbind_Protein_Name>  (7) 
nan

>  <PDBbind_-Logkd/Ki>  (7) 
nan

>  <PDBbind_Kd/Ki>  (7) 
nan

>  <PDBbind_Kd_Or_Ki_Or_Ic50>  (7) 
nan

>  <PDBbind_Relation>  (7) 
nan

>  <PDBbind_Value>  (7) 
nan

>  <PDBbind_Unit>  (7) 
nan

>  <PDBbind_Standard_Value>  (7) 
nan

>  <PDBbind_Standard_Unit>  (7) 
nan

$$$$

     RDKit          2D

 18 20  0  0  0  0  0  0  0  0999 V2000
    3.7548   -2.1855    0.0000 C   0  0  0  0  0  0  0  0  0  0  0  0
    2.6401   -3.1891    0.0000 C   0  0  0  0  0  0  0  0  0  0  0  0
    1.2135   -2.7256    0.0000 N   0  0  0  0  0  0  0  0  0  0  0  0
    0.7500   -1.2990    0.0000 C   0  0  0  0  0  0  0  0  0  0  0  0
    1.5000    0.0000    0.0000 C   0  0  0  0  0  0  0  0  0  0  0  0
    0.7500    1.2990    0.0000 C   0  0  0  0  0  0  0  0  0  0  0  0
   -0.7500    1.2990    0.0000 N   0  0  0  0  0  0  0  0  0  0  0  0
   -1.5000    0.0000    0.0000 C   0  0  0  0  0  0  0  0  0  0  0  0
   -0.7500   -1.2990    0.0000 C   0  0  0  0  0  0  0  0  0  0  0  0
   -1.2135   -2.7256    0.0000 N   0  0  0  0  0  0  0  0  0  0  0  0
   -0.0000   -3.6073    0.0000 C   0  0  0  0  0  0  0  0  0  0  0  0
   -0.0000   -5.1073    0.0000 C   0  0  0  0  0  0  0  0  0  0  0  0
    1.2135   -5.9890    0.0000 C   0  0  0  0  0  0  0  0  0  0  0  0
    0.7500   -7.4156    0.0000 N   0  0  0  0  0  0  0  0  0  0  0  0
   -0.7500   -7.4156    0.0000 O   0  0  0  0  0  0  0  0  0  0  0  0
   -1.2135   -5.9890    0.0000 N   0  0  0  0  0  0  0  0  0  0  0  0
    2.6401   -5.5255    0.0000 N   0  0  0  0  0  0  0  0  0  0  0  0
    1.5000    2.5981    0.0000 Br  0  0  0  0  0  0  0  0  0  0  0  0
  1  2  1  0
  2  3  1  0
  3  4  1  0
  4  5  2  0
  5  6  1  0
  6  7  2  0
  7  8  1  0
  8  9  2  0
  9 10  1  0
 10 11  2  0
 11 12  1  0
 12 13  1  0
 13 14  2  0
 14 15  1  0
 15 16  1  0
 13 17  1  0
  6 18  1  0
 11  3  1  0
  9  4  1  0
 16 12  2  0
M  END
>  <Structure>  (8) 
4C37

>  <Dataset>  (8) 
PDB

>  <Chain>  (8) 
A

>  <Spatial_Label>  (8) 
DFGin

>  <Dihedral_Label>  (8) 
ABAminus

>  <C_Helix_Label>  (8) 
Chelix-in

>  <Lig_ID>  (8) 
Z21

>  <Lig_Entity_ID>  (8) 
4C37_3

>  <Lig_Name>  (8) 
4-(6-bromo-1-ethyl-1H-imidazo[4,5-c]pyridin-2-yl)-1,2,5-oxadiazol-3-amine

>  <Lig_Formula>  (8) 
C10H9BrN6O

>  <Lig_SMILES>  (8) 
CCn1c2cc(ncc2nc1c3c(non3)N)Br

>  <Lig_MW>  (8) 
309.122

>  <Lig_ChEMBL_ID>  (8) 
nan

>  <Lig_DrugBank_ID>  (8) 
nan

>  <Occurence>  (8) 
1

>  <Lig_SMILES_Uncharged>  (8) 
CCn1c(-c2nonc2N)nc2cnc(Br)cc21

>  <Lig_Conformer>  (8) 
['NaN']

>  <Lig_Of_Interest>  (8) 
['Y']

>  <Lig_Completeness>  (8) 
[1.0]

>  <Lig_Occupancy>  (8) 
[0.9]

>  <Lig_RSCC>  (8) 
[0.991]

>  <Lig_RSR>  (8) 
[0.08]

>  <Lig_RMSZ_Bonds>  (8) 
[0.75]

>  <Lig_RMSZ_Angles>  (8) 
[3.2]

>  <Lig_Alt_Conf>  (8) 
0

>  <Title>  (8) 
PKA-S6K1 Chimera with compound 21a (CCT196539) bound

>  <Nonpolymer_Entity_Count>  (8) 
2

>  <Protein_Entity_Count>  (8) 
2

>  <Exp_Method>  (8) 
X-Ray Diffraction

>  <Cryst_Method>  (8) 
NaN; 18 Mg/Ml Protein In 25Mm Mes-Bis-Tris pH 6.5, 75Mm Licl, 0.1Mm Edta, 1Mm Mega-8, 1Mm Dtt And 1Mm Pki Peptide Mixed 1:1 With 8-16% Aqueous Methanol

>  <Deposit_Date>  (8) 
2013-08-21

>  <Resolution>  (8) 
1.7

>  <DOI>  (8) 
https://doi.org/10.18632/oncotarget.1255

>  <Source_Organism>  (8) 
Bos taurus

>  <R_Free>  (8) 
0.1792

>  <Keywords>  (8) 
Transferase/Inhibitor

>  <REMARK_280>  (8) 
 Crystal Solvent Content, Vs (%): 52.80 Matthews Coefficient, Vm (Angstroms**3/Da): 2.60 Crystallization Conditions: 18 Mg/Ml Protein In 25Mm Mes-Bis-Tris pH 6.5, 75Mm Licl, 0.1Mm Edta, 1Mm Mega-8, 1Mm Dtt And 1Mm Pki Peptide Mixed 1:1 With 8-16% Aqueous Methanol, pH 6.4 

>  <REMARK_610>  (8) 
nan

>  <pH>  (8) 
6.5

>  <Cryst_Technique>  (8) 
soaked

>  <Sequence>  (8) 
MGNAAAAKKGSEQESVKEFLAKAKEDFLKKWENPAQNTAHLDQFERIKTLGTGSYGRVMLVKHMETGNHYAMKILDKQKVVKLKQIEHTLNEKRILQAVNFPFLVKLEFSFKDNSNLYMVLEYLPGGEMFSHLRRIGRFSEPHARFYAAQIVLTFEYLHSLDLIYRDLKPENLMIDQQGYIKVTDFGFAKRVKGRTWTLCGTPEYLAPEIILSKGYNKAVDWWALGVLIYEMAAGYPPFFADQPIQIYEKIVSGKVRFPSHFSSDLKDLLRNLLQVDLTKRFGNLKNGVNDIKNHKWFATTDWIAIYQRKVEAPFIPKFKGPGDTSNFDDYEEEEIRVSINEKCGKEFSEF

>  <Sequence_Length>  (8) 
351

>  <Mutation_Count>  (8) 
5

>  <Gene_Name>  (8) 
nan

>  <MW>  (8) 
40.949

>  <Name>  (8) 
cAMP-Dependent Protein Kinase Catalytic Subunit Alpha

>  <Mutations>  (8) 
YES

>  <EC_Number>  (8) 
2.7.11.11

>  <Peptidic_Inhibitor>  (8) 
True

>  <Lig_Missing_Atoms>  (8) 
['No']

>  <PDBbind_Resolution>  (8) 
1.7

>  <PDBbind_Release_Year>  (8) 
2013.0

>  <PDBbind_Comment>  (8) 
IC50 = 19.7 +/- 2.6 nM (AlphaScreen kinase assay)

>  <PDBbind_Uniprot_Id>  (8) 
P00517

>  <PDBbind_Protein_Name>  (8) 
CAMP-DEPENDENT PROTEIN KINASE, ALPHA-CATALYTIC

>  <PDBbind_-Logkd/Ki>  (8) 
7.71

>  <PDBbind_Kd/Ki>  (8) 
IC=19.7nM

>  <PDBbind_Kd_Or_Ki_Or_Ic50>  (8) 
IC50

>  <PDBbind_Relation>  (8) 
=

>  <PDBbind_Value>  (8) 
19.7

>  <PDBbind_Unit>  (8) 
nM

>  <PDBbind_Standard_Value>  (8) 
19.7

>  <PDBbind_Standard_Unit>  (8) 
nM

$$$$

     RDKit          2D

 20 22  0  0  0  0  0  0  0  0999 V2000
    0.7500   -3.8971    0.0000 C   0  0  0  0  0  0  0  0  0  0  0  0
    1.5000   -2.5981    0.0000 C   0  0  0  0  0  0  0  0  0  0  0  0
    0.7500   -1.2990    0.0000 C   0  0  0  0  0  0  0  0  0  0  0  0
    1.5000    0.0000    0.0000 C   0  0  0  0  0  0  0  0  0  0  0  0
    0.7500    1.2990    0.0000 N   0  0  0  0  0  0  0  0  0  0  0  0
   -0.7500    1.2990    0.0000 C   0  0  0  0  0  0  0  0  0  0  0  0
   -1.5000    0.0000    0.0000 C   0  0  0  0  0  0  0  0  0  0  0  0
   -0.7500   -1.2990    0.0000 C   0  0  0  0  0  0  0  0  0  0  0  0
   -1.5000   -2.5981    0.0000 C   0  0  0  0  0  0  0  0  0  0  0  0
   -0.7500   -3.8971    0.0000 C   0  0  0  0  0  0  0  0  0  0  0  0
   -3.0000   -2.5981    0.0000 S   0  0  0  0  0  0  0  0  0  0  0  0
   -3.0000   -4.0981    0.0000 O   0  0  0  0  0  0  0  0  0  0  0  0
   -3.0000   -1.0981    0.0000 O   0  0  0  0  0  0  0  0  0  0  0  0
   -4.5000   -2.5981    0.0000 N   0  0  0  0  0  0  0  0  0  0  0  0
   -5.1508   -3.9495    0.0000 C   0  0  0  0  0  0  0  0  0  0  0  0
   -6.6132   -4.2833    0.0000 C   0  0  0  0  0  0  0  0  0  0  0  0
   -7.7860   -3.3481    0.0000 C   0  0  0  0  0  0  0  0  0  0  0  0
   -7.7860   -1.8481    0.0000 N   0  0  0  0  0  0  0  0  0  0  0  0
   -6.6132   -0.9128    0.0000 C   0  0  0  0  0  0  0  0  0  0  0  0
   -5.1508   -1.2466    0.0000 C   0  0  0  0  0  0  0  0  0  0  0  0
  1  2  2  0
  2  3  1  0
  3  4  2  0
  4  5  1  0
  5  6  2  0
  6  7  1  0
  7  8  2  0
  8  9  1  0
  9 10  2  0
  9 11  1  0
 11 12  2  0
 11 13  2  0
 11 14  1  0
 14 15  1  0
 15 16  1  0
 16 17  1  0
 17 18  1  0
 18 19  1  0
 19 20  1  0
 10  1  1  0
  8  3  1  0
 20 14  1  0
M  END
>  <Structure>  (9) 
5LCP

>  <Dataset>  (9) 
PDB

>  <Chain>  (9) 
A

>  <Spatial_Label>  (9) 
DFGin

>  <Dihedral_Label>  (9) 
ABAminus

>  <C_Helix_Label>  (9) 
Chelix-in

>  <Lig_ID>  (9) 
M77

>  <Lig_Entity_ID>  (9) 
5LCP_3

>  <Lig_Name>  (9) 
5-(1,4-DIAZEPAN-1-SULFONYL)ISOQUINOLINE

>  <Lig_Formula>  (9) 
C14H17N3O2S

>  <Lig_SMILES>  (9) 
c1cc2cnccc2c(c1)S(=O)(=O)N3CCCNCC3

>  <Lig_MW>  (9) 
291.369

>  <Lig_ChEMBL_ID>  (9) 
['CHEMBL38380']

>  <Lig_DrugBank_ID>  (9) 
['DB08162']

>  <Occurence>  (9) 
11

>  <Lig_SMILES_Uncharged>  (9) 
O=S(=O)(c1cccc2cnccc12)N1CCCNCC1

>  <Lig_Conformer>  (9) 
['NaN']

>  <Lig_Of_Interest>  (9) 
['Y']

>  <Lig_Completeness>  (9) 
[1.0]

>  <Lig_Occupancy>  (9) 
[1.0]

>  <Lig_RSCC>  (9) 
[0.985]

>  <Lig_RSR>  (9) 
[0.08]

>  <Lig_RMSZ_Bonds>  (9) 
[0.27]

>  <Lig_RMSZ_Angles>  (9) 
[0.65]

>  <Lig_Alt_Conf>  (9) 
0

>  <Title>  (9) 
Cocrystal structure of cAMP-dependent Protein Kinase (PKA) in complex with Fasudil (M77)

>  <Nonpolymer_Entity_Count>  (9) 
7

>  <Protein_Entity_Count>  (9) 
2

>  <Exp_Method>  (9) 
X-Ray Diffraction

>  <Deposit_Date>  (9) 
2016-06-22

>  <Resolution>  (9) 
1.433

>  <DOI>  (9) 
nan

>  <Source_Organism>  (9) 
Cricetulus griseus

>  <R_Free>  (9) 
0.1659

>  <Keywords>  (9) 
Transferase

>  <REMARK_280>  (9) 
 Crystal Solvent Content, Vs (%): 54.12 Matthews Coefficient, Vm (Angstroms**3/Da): 2.15 Crystallization Conditions: Drop: 10 Mg/Ml Pka (0.240 Mm) 30 Mm Mbt (Mes/Bis-Tris Puffer pH 6.9) 1 Mm Dtt 0.1 Mm Edta 75 Mm Licl 0.03 Mm Mega 8 0.07Mm Pki (Sigma: P7739) 1.2 Mm Ligand Solved In Dmso (50 Mm Stock) Reservoir: 18% Methanol 0.003 Ml Drop Volume, 0.4 Ml Reservoir Volume, Vapor Diffusion, Hanging Drop, Temperature 277.15K 

>  <REMARK_610>  (9) 
nan

>  <pH>  (9) 
6.9

>  <Cryst_Technique>  (9) 
nan

>  <Sequence>  (9) 
GHMGNAAAAKKGSEQESVKEFLAKAKEEFLKKWESPSQNTAQLDHFDRIKTLGTGSFGRVMLVKHKETGNHYAMKILDKQKVVKLKQIEHTLNEKRILQAVNFPFLVKLEFSFKDNSNLYMVMEYVPGGEMFSHLRRIGRFSEPHARFYAAQIVLTFEYLHSLDLIYRDLKPENLLIDQQGYIQVTDFGFAKRVKGRTWTLCGTPEYLAPEIILSKGYNKAVDWWALGVLIYEMAAGYPPFFADQPIQIYEKIVSGKVRFPSHFSSDLKDLLRNLLQVDLTKRFGNLKNGVNDIKNHKWFATTDWIAIYQRKVEAPFIPKFKGPGDTSNFDDYEEEEIRVSINEKCGKEFTEF

>  <Sequence_Length>  (9) 
353

>  <Mutation_Count>  (9) 
0

>  <Gene_Name>  (9) 
PKACA

>  <MW>  (9) 
41.114

>  <Name>  (9) 
cAMP-Dependent Protein Kinase Catalytic Subunit Alpha

>  <Mutations>  (9) 
nan

>  <EC_Number>  (9) 
2.7.11.11

>  <Peptidic_Inhibitor>  (9) 
True

>  <Lig_Missing_Atoms>  (9) 
['No']

>  <PDBbind_Resolution>  (9) 
nan

>  <PDBbind_Release_Year>  (9) 
nan

>  <PDBbind_Comment>  (9) 
nan

>  <PDBbind_Uniprot_Id>  (9) 
nan

>  <PDBbind_Protein_Name>  (9) 
nan

>  <PDBbind_-Logkd/Ki>  (9) 
nan

>  <PDBbind_Kd/Ki>  (9) 
nan

>  <PDBbind_Kd_Or_Ki_Or_Ic50>  (9) 
nan

>  <PDBbind_Relation>  (9) 
nan

>  <PDBbind_Value>  (9) 
nan

>  <PDBbind_Unit>  (9) 
nan

>  <PDBbind_Standard_Value>  (9) 
nan

>  <PDBbind_Standard_Unit>  (9) 
nan

$$$$

     RDKit          2D

 20 21  0  0  0  0  0  0  0  0999 V2000
    7.5000   -0.0000    0.0000 C   0  0  0  0  0  0  0  0  0  0  0  0
    6.7500   -1.2990    0.0000 C   0  0  0  0  0  0  0  0  0  0  0  0
    5.2500   -1.2990    0.0000 C   0  0  0  0  0  0  0  0  0  0  0  0
    4.5000   -2.5981    0.0000 N   0  0  0  0  0  0  0  0  0  0  0  0
    5.2500   -3.8971    0.0000 C   0  0  0  0  0  0  0  0  0  0  0  0
    6.7500   -3.8971    0.0000 C   0  0  0  0  0  0  0  0  0  0  0  0
    7.5000   -5.1962    0.0000 N   0  0  0  0  0  4  0  0  0  0  0  0
    3.0000   -2.5981    0.0000 S   0  0  0  0  0  0  0  0  0  0  0  0
    3.0000   -4.0981    0.0000 O   0  0  0  0  0  0  0  0  0  0  0  0
    3.0000   -1.0981    0.0000 O   0  0  0  0  0  0  0  0  0  0  0  0
    1.5000   -2.5981    0.0000 C   0  0  0  0  0  0  0  0  0  0  0  0
    0.7500   -3.8971    0.0000 C   0  0  0  0  0  0  0  0  0  0  0  0
   -0.7500   -3.8971    0.0000 C   0  0  0  0  0  0  0  0  0  0  0  0
   -1.5000   -2.5981    0.0000 C   0  0  0  0  0  0  0  0  0  0  0  0
   -0.7500   -1.2990    0.0000 C   0  0  0  0  0  0  0  0  0  0  0  0
    0.7500   -1.2990    0.0000 C   0  0  0  0  0  0  0  0  0  0  0  0
    1.5000    0.0000    0.0000 C   0  0  0  0  0  0  0  0  0  0  0  0
    0.7500    1.2990    0.0000 C   0  0  0  0  0  0  0  0  0  0  0  0
   -0.7500    1.2990    0.0000 N   0  0  0  0  0  0  0  0  0  0  0  0
   -1.5000    0.0000    0.0000 C   0  0  0  0  0  0  0  0  0  0  0  0
  1  2  1  0
  2  3  1  0
  3  4  1  0
  4  5  1  0
  5  6  1  0
  6  7  1  0
  4  8  1  0
  8  9  2  0
  8 10  2  0
  8 11  1  0
 11 12  2  0
 12 13  1  0
 13 14  2  0
 14 15  1  0
 15 16  2  0
 16 17  1  0
 17 18  2  0
 18 19  1  0
 19 20  2  0
 16 11  1  0
 20 15  1  0
M  CHG  1   7   1
M  END
>  <Structure>  (10) 
5LCR

>  <Dataset>  (10) 
PDB

>  <Chain>  (10) 
A

>  <Spatial_Label>  (10) 
DFGin

>  <Dihedral_Label>  (10) 
ABAminus

>  <C_Helix_Label>  (10) 
Chelix-in

>  <Lig_ID>  (10) 
6TX

>  <Lig_Entity_ID>  (10) 
5LCR_3

>  <Lig_Name>  (10) 
2-[isoquinolin-5-ylsulfonyl(propyl)amino]ethylazanium

>  <Lig_Formula>  (10) 
C14H20N3O2S

>  <Lig_SMILES>  (10) 
CCCN(CC[NH3+])S(=O)(=O)c1cccc2c1ccnc2

>  <Lig_MW>  (10) 
294.393

>  <Lig_ChEMBL_ID>  (10) 
nan

>  <Lig_DrugBank_ID>  (10) 
nan

>  <Occurence>  (10) 
2

>  <Lig_SMILES_Uncharged>  (10) 
CCCN(CCN)S(=O)(=O)c1cccc2cnccc12

>  <Lig_Conformer>  (10) 
['NaN']

>  <Lig_Of_Interest>  (10) 
['Y']

>  <Lig_Completeness>  (10) 
[1.0]

>  <Lig_Occupancy>  (10) 
[1.0]

>  <Lig_RSCC>  (10) 
[0.971]

>  <Lig_RSR>  (10) 
[0.082]

>  <Lig_RMSZ_Bonds>  (10) 
[0.29]

>  <Lig_RMSZ_Angles>  (10) 
[0.55]

>  <Lig_Alt_Conf>  (10) 
0

>  <Title>  (10) 
Cocrystal structure of cAMP-dependent Protein Kinase (PKA) in complex with open-chain Fasudil-derivative (Ligand 04)

>  <Nonpolymer_Entity_Count>  (10) 
7

>  <Protein_Entity_Count>  (10) 
2

>  <Exp_Method>  (10) 
X-Ray Diffraction

>  <Deposit_Date>  (10) 
2016-06-22

>  <Resolution>  (10) 
1.565

>  <DOI>  (10) 
nan

>  <Source_Organism>  (10) 
Cricetulus griseus

>  <R_Free>  (10) 
0.1965

>  <Keywords>  (10) 
Transferase

>  <REMARK_280>  (10) 
 Crystal Solvent Content, Vs (%): 53.80 Matthews Coefficient, Vm (Angstroms**3/Da): 2.18 Crystallization Conditions: Drop: 10 Mg/Ml Pka (0.240 Mm) 30 Mm Mbt (Mes/Bis-Tris Puffer pH 6.9) 1 Mm Dtt 0.1 Mm Edta 75 Mm Licl 0.03 Mm Mega 8 0.07Mm Pki (Sigma: P7739) 1.2 Mm Ligand Solved In Dmso (100 Mm Stock) Reservoir: 14% Methanol 0.003 Ml Drop Volume, 0.4 Ml Reservoir Volume, Vapor Diffusion, Hanging Drop, Temperature 277.15K 

>  <REMARK_610>  (10) 
nan

>  <pH>  (10) 
6.9

>  <Cryst_Technique>  (10) 
nan

>  <Sequence>  (10) 
GHMGNAAAAKKGSEQESVKEFLAKAKEEFLKKWESPSQNTAQLDHFDRIKTLGTGSFGRVMLVKHKETGNHYAMKILDKQKVVKLKQIEHTLNEKRILQAVNFPFLVKLEFSFKDNSNLYMVMEYVPGGEMFSHLRRIGRFSEPHARFYAAQIVLTFEYLHSLDLIYRDLKPENLLIDQQGYIQVTDFGFAKRVKGRTWTLCGTPEYLAPEIILSKGYNKAVDWWALGVLIYEMAAGYPPFFADQPIQIYEKIVSGKVRFPSHFSSDLKDLLRNLLQVDLTKRFGNLKNGVNDIKNHKWFATTDWIAIYQRKVEAPFIPKFKGPGDTSNFDDYEEEEIRVSINEKCGKEFTEF

>  <Sequence_Length>  (10) 
353

>  <Mutation_Count>  (10) 
0

>  <Gene_Name>  (10) 
PKACA

>  <MW>  (10) 
41.114

>  <Name>  (10) 
cAMP-Dependent Protein Kinase Catalytic Subunit Alpha

>  <Mutations>  (10) 
nan

>  <EC_Number>  (10) 
2.7.11.11

>  <Peptidic_Inhibitor>  (10) 
True

>  <Lig_Missing_Atoms>  (10) 
['No']

>  <PDBbind_Resolution>  (10) 
nan

>  <PDBbind_Release_Year>  (10) 
nan

>  <PDBbind_Comment>  (10) 
nan

>  <PDBbind_Uniprot_Id>  (10) 
nan

>  <PDBbind_Protein_Name>  (10) 
nan

>  <PDBbind_-Logkd/Ki>  (10) 
nan

>  <PDBbind_Kd/Ki>  (10) 
nan

>  <PDBbind_Kd_Or_Ki_Or_Ic50>  (10) 
nan

>  <PDBbind_Relation>  (10) 
nan

>  <PDBbind_Value>  (10) 
nan

>  <PDBbind_Unit>  (10) 
nan

>  <PDBbind_Standard_Value>  (10) 
nan

>  <PDBbind_Standard_Unit>  (10) 
nan

$$$$

     RDKit          2D

 20 22  0  0  0  0  0  0  0  0999 V2000
    4.5000    0.0000    0.0000 C   0  0  0  0  0  0  0  0  0  0  0  0
    5.2500   -1.2990    0.0000 C   0  0  0  0  0  0  0  0  0  0  0  0
    6.7500   -1.2990    0.0000 C   0  0  0  0  0  0  0  0  0  0  0  0
    7.5000   -2.5981    0.0000 N   0  0  0  0  0  0  0  0  0  0  0  0
    6.7500   -3.8971    0.0000 C   0  0  0  0  0  0  0  0  0  0  0  0
    5.2500   -3.8971    0.0000 C   0  0  0  0  0  0  0  0  0  0  0  0
    4.5000   -2.5981    0.0000 N   0  0  0  0  0  0  0  0  0  0  0  0
    3.0000   -2.5981    0.0000 S   0  0  0  0  0  0  0  0  0  0  0  0
    3.0000   -4.0981    0.0000 O   0  0  0  0  0  0  0  0  0  0  0  0
    3.0000   -1.0981    0.0000 O   0  0  0  0  0  0  0  0  0  0  0  0
    1.5000   -2.5981    0.0000 C   0  0  0  0  0  0  0  0  0  0  0  0
    0.7500   -3.8971    0.0000 C   0  0  0  0  0  0  0  0  0  0  0  0
   -0.7500   -3.8971    0.0000 C   0  0  0  0  0  0  0  0  0  0  0  0
   -1.5000   -2.5981    0.0000 C   0  0  0  0  0  0  0  0  0  0  0  0
   -0.7500   -1.2990    0.0000 C   0  0  0  0  0  0  0  0  0  0  0  0
    0.7500   -1.2990    0.0000 C   0  0  0  0  0  0  0  0  0  0  0  0
    1.5000    0.0000    0.0000 C   0  0  0  0  0  0  0  0  0  0  0  0
    0.7500    1.2990    0.0000 C   0  0  0  0  0  0  0  0  0  0  0  0
   -0.7500    1.2990    0.0000 N   0  0  0  0  0  0  0  0  0  0  0  0
   -1.5000    0.0000    0.0000 C   0  0  0  0  0  0  0  0  0  0  0  0
  2  1  1  6
  2  3  1  0
  3  4  1  0
  4  5  1  0
  5  6  1  0
  6  7  1  0
  7  8  1  0
  8  9  2  0
  8 10  2  0
  8 11  1  0
 11 12  2  0
 12 13  1  0
 13 14  2  0
 14 15  1  0
 15 16  2  0
 16 17  1  0
 17 18  2  0
 18 19  1  0
 19 20  2  0
  7  2  1  0
 16 11  1  0
 20 15  1  0
M  END
>  <Structure>  (11) 
5LCT

>  <Dataset>  (11) 
PDB

>  <Chain>  (11) 
A

>  <Spatial_Label>  (11) 
DFGin

>  <Dihedral_Label>  (11) 
ABAminus

>  <C_Helix_Label>  (11) 
Chelix-in

>  <Lig_ID>  (11) 
6TY

>  <Lig_Entity_ID>  (11) 
5LCT_3

>  <Lig_Name>  (11) 
5-[(2~{R})-2-methylpiperazin-1-yl]sulfonylisoquinoline

>  <Lig_Formula>  (11) 
C14H17N3O2S

>  <Lig_SMILES>  (11) 
C[C@@H]1CNCCN1S(=O)(=O)c2cccc3c2ccnc3

>  <Lig_MW>  (11) 
291.369

>  <Lig_ChEMBL_ID>  (11) 
['CHEMBL1318551']

>  <Lig_DrugBank_ID>  (11) 
nan

>  <Occurence>  (11) 
1

>  <Lig_SMILES_Uncharged>  (11) 
C[C@@H]1CNCCN1S(=O)(=O)c1cccc2cnccc12

>  <Lig_Conformer>  (11) 
['NaN']

>  <Lig_Of_Interest>  (11) 
['Y']

>  <Lig_Completeness>  (11) 
[1.0]

>  <Lig_Occupancy>  (11) 
[1.0]

>  <Lig_RSCC>  (11) 
[0.969]

>  <Lig_RSR>  (11) 
[0.081]

>  <Lig_RMSZ_Bonds>  (11) 
[0.34]

>  <Lig_RMSZ_Angles>  (11) 
[0.56]

>  <Lig_Alt_Conf>  (11) 
0

>  <Title>  (11) 
Cocrystal structure of cAMP-dependent Protein Kinase (PKA) in complex with a R-methyl-piperazine substituted Fasudil-derivative (Ligand 02)

>  <Nonpolymer_Entity_Count>  (11) 
4

>  <Protein_Entity_Count>  (11) 
2

>  <Exp_Method>  (11) 
X-Ray Diffraction

>  <Deposit_Date>  (11) 
2016-06-22

>  <Resolution>  (11) 
1.615

>  <DOI>  (11) 
nan

>  <Source_Organism>  (11) 
Cricetulus griseus

>  <R_Free>  (11) 
0.1742

>  <Keywords>  (11) 
Transferase

>  <REMARK_280>  (11) 
 Crystal Solvent Content, Vs (%): 55.36 Matthews Coefficient, Vm (Angstroms**3/Da): 2.15 Crystallization Conditions: Drop: 10 Mg/Ml Pka (0.240 Mm) 30 Mm Mbt (Mes/Bis-Tris Puffer pH 6.9) 1 Mm Dtt 0.1 Mm Edta 75 Mm Licl 0.03 Mm Mega 8 0.07Mm Pki (Sigma: P7739) 1.2 Mm Ligand Solved In Dmso (50 Mm Stock) Reservoir: 19% Methanol 0.003 Ml Drop Volume, 0.4 Ml Reservoir Volume, Vapor Diffusion, Hanging Drop, Temperature 277.15K 

>  <REMARK_610>  (11) 
nan

>  <pH>  (11) 
6.9

>  <Cryst_Technique>  (11) 
nan

>  <Sequence>  (11) 
GHMGNAAAAKKGSEQESVKEFLAKAKEEFLKKWESPSQNTAQLDHFDRIKTLGTGSFGRVMLVKHKETGNHYAMKILDKQKVVKLKQIEHTLNEKRILQAVNFPFLVKLEFSFKDNSNLYMVMEYVPGGEMFSHLRRIGRFSEPHARFYAAQIVLTFEYLHSLDLIYRDLKPENLLIDQQGYIQVTDFGFAKRVKGRTWTLCGTPEYLAPEIILSKGYNKAVDWWALGVLIYEMAAGYPPFFADQPIQIYEKIVSGKVRFPSHFSSDLKDLLRNLLQVDLTKRFGNLKNGVNDIKNHKWFATTDWIAIYQRKVEAPFIPKFKGPGDTSNFDDYEEEEIRVSINEKCGKEFTEF

>  <Sequence_Length>  (11) 
353

>  <Mutation_Count>  (11) 
0

>  <Gene_Name>  (11) 
PKACA

>  <MW>  (11) 
41.114

>  <Name>  (11) 
cAMP-Dependent Protein Kinase Catalytic Subunit Alpha

>  <Mutations>  (11) 
nan

>  <EC_Number>  (11) 
2.7.11.11

>  <Peptidic_Inhibitor>  (11) 
True

>  <Lig_Missing_Atoms>  (11) 
['No']

>  <PDBbind_Resolution>  (11) 
nan

>  <PDBbind_Release_Year>  (11) 
nan

>  <PDBbind_Comment>  (11) 
nan

>  <PDBbind_Uniprot_Id>  (11) 
nan

>  <PDBbind_Protein_Name>  (11) 
nan

>  <PDBbind_-Logkd/Ki>  (11) 
nan

>  <PDBbind_Kd/Ki>  (11) 
nan

>  <PDBbind_Kd_Or_Ki_Or_Ic50>  (11) 
nan

>  <PDBbind_Relation>  (11) 
nan

>  <PDBbind_Value>  (11) 
nan

>  <PDBbind_Unit>  (11) 
nan

>  <PDBbind_Standard_Value>  (11) 
nan

>  <PDBbind_Standard_Unit>  (11) 
nan

$$$$

     RDKit          2D

 20 22  0  0  0  0  0  0  0  0999 V2000
    4.5000    0.0000    0.0000 C   0  0  0  0  0  0  0  0  0  0  0  0
    5.2500   -1.2990    0.0000 C   0  0  0  0  0  0  0  0  0  0  0  0
    6.7500   -1.2990    0.0000 C   0  0  0  0  0  0  0  0  0  0  0  0
    7.5000   -2.5981    0.0000 N   0  0  0  0  0  0  0  0  0  0  0  0
    6.7500   -3.8971    0.0000 C   0  0  0  0  0  0  0  0  0  0  0  0
    5.2500   -3.8971    0.0000 C   0  0  0  0  0  0  0  0  0  0  0  0
    4.5000   -2.5981    0.0000 N   0  0  0  0  0  0  0  0  0  0  0  0
    3.0000   -2.5981    0.0000 S   0  0  0  0  0  0  0  0  0  0  0  0
    3.0000   -4.0981    0.0000 O   0  0  0  0  0  0  0  0  0  0  0  0
    3.0000   -1.0981    0.0000 O   0  0  0  0  0  0  0  0  0  0  0  0
    1.5000   -2.5981    0.0000 C   0  0  0  0  0  0  0  0  0  0  0  0
    0.7500   -3.8971    0.0000 C   0  0  0  0  0  0  0  0  0  0  0  0
   -0.7500   -3.8971    0.0000 C   0  0  0  0  0  0  0  0  0  0  0  0
   -1.5000   -2.5981    0.0000 C   0  0  0  0  0  0  0  0  0  0  0  0
   -0.7500   -1.2990    0.0000 C   0  0  0  0  0  0  0  0  0  0  0  0
    0.7500   -1.2990    0.0000 C   0  0  0  0  0  0  0  0  0  0  0  0
    1.5000    0.0000    0.0000 C   0  0  0  0  0  0  0  0  0  0  0  0
    0.7500    1.2990    0.0000 C   0  0  0  0  0  0  0  0  0  0  0  0
   -0.7500    1.2990    0.0000 N   0  0  0  0  0  0  0  0  0  0  0  0
   -1.5000    0.0000    0.0000 C   0  0  0  0  0  0  0  0  0  0  0  0
  2  1  1  1
  2  3  1  0
  3  4  1  0
  4  5  1  0
  5  6  1  0
  6  7  1  0
  7  8  1  0
  8  9  2  0
  8 10  2  0
  8 11  1  0
 11 12  2  0
 12 13  1  0
 13 14  2  0
 14 15  1  0
 15 16  2  0
 16 17  1  0
 17 18  2  0
 18 19  1  0
 19 20  2  0
  7  2  1  0
 16 11  1  0
 20 15  1  0
M  END
>  <Structure>  (12) 
5LCU

>  <Dataset>  (12) 
PDB

>  <Chain>  (12) 
A

>  <Spatial_Label>  (12) 
DFGin

>  <Dihedral_Label>  (12) 
ABAminus

>  <C_Helix_Label>  (12) 
Chelix-in

>  <Lig_ID>  (12) 
IQP

>  <Lig_Entity_ID>  (12) 
5LCU_3

>  <Lig_Name>  (12) 
1-(5-ISOQUINOLINESULFONYL)-2-METHYLPIPERAZINE

>  <Lig_Formula>  (12) 
C14H17N3O2S

>  <Lig_SMILES>  (12) 
C[C@H]1CNCC[N@]1S(=O)(=O)c2cccc3c2ccnc3

>  <Lig_MW>  (12) 
291.369

>  <Lig_ChEMBL_ID>  (12) 
['CHEMBL1233654']

>  <Lig_DrugBank_ID>  (12) 
['DB07996']

>  <Occurence>  (12) 
2

>  <Lig_SMILES_Uncharged>  (12) 
C[C@H]1CNCCN1S(=O)(=O)c1cccc2cnccc12

>  <Lig_Conformer>  (12) 
['NaN']

>  <Lig_Of_Interest>  (12) 
['Y']

>  <Lig_Completeness>  (12) 
[1.0]

>  <Lig_Occupancy>  (12) 
[1.0]

>  <Lig_RSCC>  (12) 
[0.986]

>  <Lig_RSR>  (12) 
[0.068]

>  <Lig_RMSZ_Bonds>  (12) 
[0.3]

>  <Lig_RMSZ_Angles>  (12) 
[0.54]

>  <Lig_Alt_Conf>  (12) 
0

>  <Title>  (12) 
Cocrystal structure of cAMP-dependent Protein Kinase (PKA) in complex with a S-methyl-piperazine substituted Fasudil-derivative (Ligand 01)

>  <Nonpolymer_Entity_Count>  (12) 
5

>  <Protein_Entity_Count>  (12) 
2

>  <Exp_Method>  (12) 
X-Ray Diffraction

>  <Deposit_Date>  (12) 
2016-06-22

>  <Resolution>  (12) 
1.579

>  <DOI>  (12) 
nan

>  <Source_Organism>  (12) 
Cricetulus griseus

>  <R_Free>  (12) 
0.1915

>  <Keywords>  (12) 
Transferase

>  <REMARK_280>  (12) 
 Crystal Solvent Content, Vs (%): 54.34 Matthews Coefficient, Vm (Angstroms**3/Da): 2.18 Crystallization Conditions: Drop: 10 Mg/Ml Pka (0.240 Mm) 30 Mm Mbt (Mes/Bis-Tris Puffer pH 6.9) 1 Mm Dtt 0.1 Mm Edta 75 Mm Licl 0.03 Mm Mega 8 0.07Mm Pki (Sigma: P7739) 1.2 Mm Ligand Solved In Dmso (50 Mm Stock) Reservoir: 16% Methanol 0.003 Ml Drop Volume, 0.4 Ml Reservoir Volume, Vapor Diffusion, Hanging Drop, Temperature 277.15K 

>  <REMARK_610>  (12) 
nan

>  <pH>  (12) 
6.9

>  <Cryst_Technique>  (12) 
nan

>  <Sequence>  (12) 
GHMGNAAAAKKGSEQESVKEFLAKAKEEFLKKWESPSQNTAQLDHFDRIKTLGTGSFGRVMLVKHKETGNHYAMKILDKQKVVKLKQIEHTLNEKRILQAVNFPFLVKLEFSFKDNSNLYMVMEYVPGGEMFSHLRRIGRFSEPHARFYAAQIVLTFEYLHSLDLIYRDLKPENLLIDQQGYIQVTDFGFAKRVKGRTWTLCGTPEYLAPEIILSKGYNKAVDWWALGVLIYEMAAGYPPFFADQPIQIYEKIVSGKVRFPSHFSSDLKDLLRNLLQVDLTKRFGNLKNGVNDIKNHKWFATTDWIAIYQRKVEAPFIPKFKGPGDTSNFDDYEEEEIRVSINEKCGKEFTEF

>  <Sequence_Length>  (12) 
353

>  <Mutation_Count>  (12) 
0

>  <Gene_Name>  (12) 
PKACA

>  <MW>  (12) 
41.114

>  <Name>  (12) 
cAMP-Dependent Protein Kinase Catalytic Subunit Alpha

>  <Mutations>  (12) 
nan

>  <EC_Number>  (12) 
2.7.11.11

>  <Peptidic_Inhibitor>  (12) 
True

>  <Lig_Missing_Atoms>  (12) 
['No']

>  <PDBbind_Resolution>  (12) 
nan

>  <PDBbind_Release_Year>  (12) 
nan

>  <PDBbind_Comment>  (12) 
nan

>  <PDBbind_Uniprot_Id>  (12) 
nan

>  <PDBbind_Protein_Name>  (12) 
nan

>  <PDBbind_-Logkd/Ki>  (12) 
nan

>  <PDBbind_Kd/Ki>  (12) 
nan

>  <PDBbind_Kd_Or_Ki_Or_Ic50>  (12) 
nan

>  <PDBbind_Relation>  (12) 
nan

>  <PDBbind_Value>  (12) 
nan

>  <PDBbind_Unit>  (12) 
nan

>  <PDBbind_Standard_Value>  (12) 
nan

>  <PDBbind_Standard_Unit>  (12) 
nan

$$$$

     RDKit          2D

 22 24  0  0  0  0  0  0  0  0999 V2000
    3.0000    0.0000    0.0000 C   0  0  0  0  0  0  0  0  0  0  0  0
    1.5000    0.0000    0.0000 C   0  0  0  0  0  0  0  0  0  0  0  0
    0.7500   -1.2990    0.0000 C   0  0  0  0  0  0  0  0  0  0  0  0
   -0.7500   -1.2990    0.0000 N   0  0  0  0  0  0  0  0  0  0  0  0
   -1.5000    0.0000    0.0000 C   0  0  0  0  0  0  0  0  0  0  0  0
   -0.7500    1.2990    0.0000 C   0  0  0  0  0  0  0  0  0  0  0  0
    0.7500    1.2990    0.0000 C   0  0  0  0  0  0  0  0  0  0  0  0
    1.5000    2.5981    0.0000 C   0  0  0  0  0  0  0  0  0  0  0  0
    0.7500    3.8971    0.0000 C   0  0  0  0  0  0  0  0  0  0  0  0
   -0.7500    3.8971    0.0000 C   0  0  0  0  0  0  0  0  0  0  0  0
   -1.5000    2.5981    0.0000 C   0  0  0  0  0  0  0  0  0  0  0  0
    3.0000    2.5981    0.0000 S   0  0  0  0  0  0  0  0  0  0  0  0
    3.0000    4.0981    0.0000 O   0  0  0  0  0  0  0  0  0  0  0  0
    3.0000    1.0981    0.0000 O   0  0  0  0  0  0  0  0  0  0  0  0
    4.5000    2.5981    0.0000 N   0  0  0  0  0  0  0  0  0  0  0  0
    5.1508    3.9495    0.0000 C   0  0  0  0  0  0  0  0  0  0  0  0
    6.6132    4.2833    0.0000 C   0  0  0  0  0  0  0  0  0  0  0  0
    7.7860    3.3481    0.0000 C   0  0  0  0  0  0  0  0  0  0  0  0
    7.7860    1.8481    0.0000 N   0  0  0  0  0  0  0  0  0  0  0  0
    6.6132    0.9128    0.0000 C   0  0  0  0  0  0  0  0  0  0  0  0
    5.1508    1.2466    0.0000 C   0  0  0  0  0  0  0  0  0  0  0  0
    4.2156    0.0739    0.0000 C   0  0  0  0  0  0  0  0  0  0  0  0
  1  2  1  0
  2  3  2  0
  3  4  1  0
  4  5  2  0
  5  6  1  0
  6  7  2  0
  7  8  1  0
  8  9  2  0
  9 10  1  0
 10 11  2  0
  8 12  1  0
 12 13  2  0
 12 14  2  0
 12 15  1  0
 15 16  1  0
 16 17  1  0
 17 18  1  0
 18 19  1  0
 19 20  1  0
 20 21  1  0
 21 22  1  6
  7  2  1  0
 11  6  1  0
 21 15  1  0
M  END
>  <Structure>  (13) 
5M6V

>  <Dataset>  (13) 
PDB

>  <Chain>  (13) 
A

>  <Spatial_Label>  (13) 
DFGin

>  <Dihedral_Label>  (13) 
ABAminus

>  <C_Helix_Label>  (13) 
Chelix-in

>  <Lig_ID>  (13) 
H52

>  <Lig_Entity_ID>  (13) 
5M6V_3

>  <Lig_Name>  (13) 
(S)-2-METHYL-1-[(4-METHYL-5-ISOQUINOLINE)SULFONYL]-HOMOPIPERAZINE

>  <Lig_Formula>  (13) 
C16H21N3O2S

>  <Lig_SMILES>  (13) 
Cc1cncc2c1c(ccc2)S(=O)(=O)[N@]3CCCNC[C@@H]3C

>  <Lig_MW>  (13) 
319.422

>  <Lig_ChEMBL_ID>  (13) 
['CHEMBL406821']

>  <Lig_DrugBank_ID>  (13) 
['DB07876']

>  <Occurence>  (13) 
4

>  <Lig_SMILES_Uncharged>  (13) 
Cc1cncc2cccc(S(=O)(=O)N3CCCNC[C@@H]3C)c12

>  <Lig_Conformer>  (13) 
['A', 'B']

>  <Lig_Of_Interest>  (13) 
['Y', 'Y']

>  <Lig_Completeness>  (13) 
[1.0, 1.0]

>  <Lig_Occupancy>  (13) 
[1.0, 1.0]

>  <Lig_RSCC>  (13) 
[0.975, 0.975]

>  <Lig_RSR>  (13) 
[0.096, 0.096]

>  <Lig_RMSZ_Bonds>  (13) 
[0.53, 0.59]

>  <Lig_RMSZ_Angles>  (13) 
[0.74, 0.67]

>  <Lig_Alt_Conf>  (13) 
2

>  <Title>  (13) 
Cocrystal structure of cAMP-dependent Protein Kinase (PKA) in complex with a double methylated Fasudil-derivative

>  <Nonpolymer_Entity_Count>  (13) 
1

>  <Protein_Entity_Count>  (13) 
2

>  <Exp_Method>  (13) 
X-Ray Diffraction

>  <Deposit_Date>  (13) 
2016-10-26

>  <Resolution>  (13) 
1.418

>  <DOI>  (13) 
nan

>  <Source_Organism>  (13) 
Cricetulus griseus

>  <R_Free>  (13) 
0.174

>  <Keywords>  (13) 
Transferase

>  <REMARK_280>  (13) 
 Crystal Solvent Content, Vs (%): 54.27 Matthews Coefficient, Vm (Angstroms**3/Da): 2.15 Crystallization Conditions: Drop: 10 Mg/Ml Pka (0.240 Mm) 30 Mm Mbt (Mes/Bis-Tris Puffer pH 6.9) 1 Mm Dtt 0.1 Mm Edta 75 Mm Licl 0.03 Mm Mega 8 0.07Mm Pki (Sigma: P7739) 1.2 Mm Ligand Solved In Dmso (50 Mm Stock) Reservoir: 18% Methanol 0.003 Ml Drop Volume, 0.4 Ml Reservoir Volume, Vapor Diffusion, Hanging Drop, Temperature 277.15K 

>  <REMARK_610>  (13) 
nan

>  <pH>  (13) 
6.9

>  <Cryst_Technique>  (13) 
nan

>  <Sequence>  (13) 
GHMGNAAAAKKGSEQESVKEFLAKAKEEFLKKWESPSQNTAQLDHFDRIKTLGTGSFGRVMLVKHKETGNHYAMKILDKQKVVKLKQIEHTLNEKRILQAVNFPFLVKLEFSFKDNSNLYMVMEYVPGGEMFSHLRRIGRFSEPHARFYAAQIVLTFEYLHSLDLIYRDLKPENLLIDQQGYIQVTDFGFAKRVKGRTWTLCGTPEYLAPEIILSKGYNKAVDWWALGVLIYEMAAGYPPFFADQPIQIYEKIVSGKVRFPSHFSSDLKDLLRNLLQVDLTKRFGNLKNGVNDIKNHKWFATTDWIAIYQRKVEAPFIPKFKGPGDTSNFDDYEEEEIRVSINEKCGKEFTEF

>  <Sequence_Length>  (13) 
353

>  <Mutation_Count>  (13) 
0

>  <Gene_Name>  (13) 
PKACA

>  <MW>  (13) 
41.114

>  <Name>  (13) 
cAMP-Dependent Protein Kinase Catalytic Subunit Alpha

>  <Mutations>  (13) 
nan

>  <EC_Number>  (13) 
2.7.11.11

>  <Peptidic_Inhibitor>  (13) 
True

>  <Lig_Missing_Atoms>  (13) 
['No', 'No']

>  <PDBbind_Resolution>  (13) 
nan

>  <PDBbind_Release_Year>  (13) 
nan

>  <PDBbind_Comment>  (13) 
nan

>  <PDBbind_Uniprot_Id>  (13) 
nan

>  <PDBbind_Protein_Name>  (13) 
nan

>  <PDBbind_-Logkd/Ki>  (13) 
nan

>  <PDBbind_Kd/Ki>  (13) 
nan

>  <PDBbind_Kd_Or_Ki_Or_Ic50>  (13) 
nan

>  <PDBbind_Relation>  (13) 
nan

>  <PDBbind_Value>  (13) 
nan

>  <PDBbind_Unit>  (13) 
nan

>  <PDBbind_Standard_Value>  (13) 
nan

>  <PDBbind_Standard_Unit>  (13) 
nan

$$$$

     RDKit          2D

 21 23  0  0  0  0  0  0  0  0999 V2000
    3.0000    0.0000    0.0000 C   0  0  0  0  0  0  0  0  0  0  0  0
    1.5000    0.0000    0.0000 C   0  0  0  0  0  0  0  0  0  0  0  0
    0.7500   -1.2990    0.0000 C   0  0  0  0  0  0  0  0  0  0  0  0
   -0.7500   -1.2990    0.0000 N   0  0  0  0  0  0  0  0  0  0  0  0
   -1.5000    0.0000    0.0000 C   0  0  0  0  0  0  0  0  0  0  0  0
   -0.7500    1.2990    0.0000 C   0  0  0  0  0  0  0  0  0  0  0  0
    0.7500    1.2990    0.0000 C   0  0  0  0  0  0  0  0  0  0  0  0
    1.5000    2.5981    0.0000 C   0  0  0  0  0  0  0  0  0  0  0  0
    0.7500    3.8971    0.0000 C   0  0  0  0  0  0  0  0  0  0  0  0
   -0.7500    3.8971    0.0000 C   0  0  0  0  0  0  0  0  0  0  0  0
   -1.5000    2.5981    0.0000 C   0  0  0  0  0  0  0  0  0  0  0  0
    3.0000    2.5981    0.0000 S   0  0  0  0  0  0  0  0  0  0  0  0
    3.0000    4.0981    0.0000 O   0  0  0  0  0  0  0  0  0  0  0  0
    3.0000    1.0981    0.0000 O   0  0  0  0  0  0  0  0  0  0  0  0
    4.5000    2.5981    0.0000 N   0  0  0  0  0  0  0  0  0  0  0  0
    5.1508    3.9495    0.0000 C   0  0  0  0  0  0  0  0  0  0  0  0
    6.6132    4.2833    0.0000 C   0  0  0  0  0  0  0  0  0  0  0  0
    7.7860    3.3481    0.0000 C   0  0  0  0  0  0  0  0  0  0  0  0
    7.7860    1.8481    0.0000 N   0  0  0  0  0  0  0  0  0  0  0  0
    6.6132    0.9128    0.0000 C   0  0  0  0  0  0  0  0  0  0  0  0
    5.1508    1.2466    0.0000 C   0  0  0  0  0  0  0  0  0  0  0  0
  1  2  1  0
  2  3  2  0
  3  4  1  0
  4  5  2  0
  5  6  1  0
  6  7  2  0
  7  8  1  0
  8  9  2  0
  9 10  1  0
 10 11  2  0
  8 12  1  0
 12 13  2  0
 12 14  2  0
 12 15  1  0
 15 16  1  0
 16 17  1  0
 17 18  1  0
 18 19  1  0
 19 20  1  0
 20 21  1  0
  7  2  1  0
 11  6  1  0
 21 15  1  0
M  END
>  <Structure>  (14) 
5M6Y

>  <Dataset>  (14) 
PDB

>  <Chain>  (14) 
A

>  <Spatial_Label>  (14) 
DFGin

>  <Dihedral_Label>  (14) 
ABAminus

>  <C_Helix_Label>  (14) 
Chelix-in

>  <Lig_ID>  (14) 
7KB

>  <Lig_Entity_ID>  (14) 
5M6Y_3

>  <Lig_Name>  (14) 
5-(1,4-diazepan-1-ylsulfonyl)-4-methyl-isoquinoline

>  <Lig_Formula>  (14) 
C15H19N3O2S

>  <Lig_SMILES>  (14) 
Cc1cncc2c1c(ccc2)S(=O)(=O)N3CCCNCC3

>  <Lig_MW>  (14) 
305.395

>  <Lig_ChEMBL_ID>  (14) 
nan

>  <Lig_DrugBank_ID>  (14) 
nan

>  <Occurence>  (14) 
2

>  <Lig_SMILES_Uncharged>  (14) 
Cc1cncc2cccc(S(=O)(=O)N3CCCNCC3)c12

>  <Lig_Conformer>  (14) 
['NaN']

>  <Lig_Of_Interest>  (14) 
['Y']

>  <Lig_Completeness>  (14) 
[1.0]

>  <Lig_Occupancy>  (14) 
[1.0]

>  <Lig_RSCC>  (14) 
[0.973]

>  <Lig_RSR>  (14) 
[0.079]

>  <Lig_RMSZ_Bonds>  (14) 
[0.31]

>  <Lig_RMSZ_Angles>  (14) 
[0.71]

>  <Lig_Alt_Conf>  (14) 
0

>  <Title>  (14) 
Cocrystal structure of cAMP-dependent Protein Kinase (PKA) in complex with a methylisoquinoline Fasudil-derivative

>  <Nonpolymer_Entity_Count>  (14) 
2

>  <Protein_Entity_Count>  (14) 
2

>  <Exp_Method>  (14) 
X-Ray Diffraction

>  <Deposit_Date>  (14) 
2016-10-26

>  <Resolution>  (14) 
1.367

>  <DOI>  (14) 
nan

>  <Source_Organism>  (14) 
Cricetulus griseus

>  <R_Free>  (14) 
0.1663

>  <Keywords>  (14) 
Transferase

>  <REMARK_280>  (14) 
 Crystal Solvent Content, Vs (%): 54.56 Matthews Coefficient, Vm (Angstroms**3/Da): 2.15 Crystallization Conditions: Drop: 10 Mg/Ml Pka (0.240 Mm) 30 Mm Mbt (Mes/Bis-Tris Puffer pH 6.9) 1 Mm Dtt 0.1 Mm Edta 75 Mm Licl 0.03 Mm Mega 8 0.07Mm Pki (Sigma: P7739) 1.2 Mm Ligand Solved In Dmso (50 Mm Stock) Reservoir: 20% Methanol 0.003 Ml Drop Volume, 0.4 Ml Reservoir Volume, Vapor Diffusion, Hanging Drop, Temperature 277.15K 

>  <REMARK_610>  (14) 
nan

>  <pH>  (14) 
6.9

>  <Cryst_Technique>  (14) 
nan

>  <Sequence>  (14) 
GHMGNAAAAKKGSEQESVKEFLAKAKEEFLKKWESPSQNTAQLDHFDRIKTLGTGSFGRVMLVKHKETGNHYAMKILDKQKVVKLKQIEHTLNEKRILQAVNFPFLVKLEFSFKDNSNLYMVMEYVPGGEMFSHLRRIGRFSEPHARFYAAQIVLTFEYLHSLDLIYRDLKPENLLIDQQGYIQVTDFGFAKRVKGRTWTLCGTPEYLAPEIILSKGYNKAVDWWALGVLIYEMAAGYPPFFADQPIQIYEKIVSGKVRFPSHFSSDLKDLLRNLLQVDLTKRFGNLKNGVNDIKNHKWFATTDWIAIYQRKVEAPFIPKFKGPGDTSNFDDYEEEEIRVSINEKCGKEFTEF

>  <Sequence_Length>  (14) 
353

>  <Mutation_Count>  (14) 
0

>  <Gene_Name>  (14) 
PKACA

>  <MW>  (14) 
41.114

>  <Name>  (14) 
cAMP-Dependent Protein Kinase Catalytic Subunit Alpha

>  <Mutations>  (14) 
nan

>  <EC_Number>  (14) 
2.7.11.11

>  <Peptidic_Inhibitor>  (14) 
True

>  <Lig_Missing_Atoms>  (14) 
['No']

>  <PDBbind_Resolution>  (14) 
nan

>  <PDBbind_Release_Year>  (14) 
nan

>  <PDBbind_Comment>  (14) 
nan

>  <PDBbind_Uniprot_Id>  (14) 
nan

>  <PDBbind_Protein_Name>  (14) 
nan

>  <PDBbind_-Logkd/Ki>  (14) 
nan

>  <PDBbind_Kd/Ki>  (14) 
nan

>  <PDBbind_Kd_Or_Ki_Or_Ic50>  (14) 
nan

>  <PDBbind_Relation>  (14) 
nan

>  <PDBbind_Value>  (14) 
nan

>  <PDBbind_Unit>  (14) 
nan

>  <PDBbind_Standard_Value>  (14) 
nan

>  <PDBbind_Standard_Unit>  (14) 
nan

$$$$

     RDKit          2D

 21 23  0  0  0  0  0  0  0  0999 V2000
    4.2156   -5.1223    0.0000 C   0  0  0  0  0  0  0  0  0  0  0  0
    5.1508   -3.9495    0.0000 C   0  0  0  0  0  0  0  0  0  0  0  0
    6.6132   -4.2833    0.0000 C   0  0  0  0  0  0  0  0  0  0  0  0
    7.7860   -3.3481    0.0000 N   0  0  0  0  0  4  0  0  0  0  0  0
    7.7860   -1.8481    0.0000 C   0  0  0  0  0  0  0  0  0  0  0  0
    6.6132   -0.9128    0.0000 C   0  0  0  0  0  0  0  0  0  0  0  0
    5.1508   -1.2466    0.0000 C   0  0  0  0  0  0  0  0  0  0  0  0
    4.5000   -2.5981    0.0000 N   0  0  0  0  0  0  0  0  0  0  0  0
    3.0000   -2.5981    0.0000 S   0  0  0  0  0  0  0  0  0  0  0  0
    3.0000   -4.0981    0.0000 O   0  0  0  0  0  0  0  0  0  0  0  0
    3.0000   -1.0981    0.0000 O   0  0  0  0  0  0  0  0  0  0  0  0
    1.5000   -2.5981    0.0000 C   0  0  0  0  0  0  0  0  0  0  0  0
    0.7500   -3.8971    0.0000 C   0  0  0  0  0  0  0  0  0  0  0  0
   -0.7500   -3.8971    0.0000 C   0  0  0  0  0  0  0  0  0  0  0  0
   -1.5000   -2.5981    0.0000 C   0  0  0  0  0  0  0  0  0  0  0  0
   -0.7500   -1.2990    0.0000 C   0  0  0  0  0  0  0  0  0  0  0  0
    0.7500   -1.2990    0.0000 C   0  0  0  0  0  0  0  0  0  0  0  0
    1.5000    0.0000    0.0000 C   0  0  0  0  0  0  0  0  0  0  0  0
    0.7500    1.2990    0.0000 C   0  0  0  0  0  0  0  0  0  0  0  0
   -0.7500    1.2990    0.0000 N   0  0  0  0  0  0  0  0  0  0  0  0
   -1.5000    0.0000    0.0000 C   0  0  0  0  0  0  0  0  0  0  0  0
  2  1  1  1
  2  3  1  0
  3  4  1  0
  4  5  1  0
  5  6  1  0
  6  7  1  0
  7  8  1  0
  8  9  1  0
  9 10  2  0
  9 11  2  0
  9 12  1  0
 12 13  2  0
 13 14  1  0
 14 15  2  0
 15 16  1  0
 16 17  2  0
 17 18  1  0
 18 19  2  0
 19 20  1  0
 20 21  2  0
  8  2  1  0
 17 12  1  0
 21 16  1  0
M  CHG  1   4   1
M  END
>  <Structure>  (15) 
5M71

>  <Dataset>  (15) 
PDB

>  <Chain>  (15) 
A

>  <Spatial_Label>  (15) 
DFGin

>  <Dihedral_Label>  (15) 
ABAminus

>  <C_Helix_Label>  (15) 
Chelix-in

>  <Lig_ID>  (15) 
7K7

>  <Lig_Entity_ID>  (15) 
5M71_3

>  <Lig_Name>  (15) 
5-[[(2~{R})-2-methyl-1,4-diazepan-4-ium-1-yl]sulfonyl]isoquinoline

>  <Lig_Formula>  (15) 
C15H20N3O2S

>  <Lig_SMILES>  (15) 
C[C@@H]1C[NH2+]CCCN1S(=O)(=O)c2cccc3c2ccnc3

>  <Lig_MW>  (15) 
306.403

>  <Lig_ChEMBL_ID>  (15) 
nan

>  <Lig_DrugBank_ID>  (15) 
nan

>  <Occurence>  (15) 
1

>  <Lig_SMILES_Uncharged>  (15) 
C[C@@H]1CNCCCN1S(=O)(=O)c1cccc2cnccc12

>  <Lig_Conformer>  (15) 
['NaN']

>  <Lig_Of_Interest>  (15) 
['Y']

>  <Lig_Completeness>  (15) 
[1.0]

>  <Lig_Occupancy>  (15) 
[1.0]

>  <Lig_RSCC>  (15) 
[0.972]

>  <Lig_RSR>  (15) 
[0.077]

>  <Lig_RMSZ_Bonds>  (15) 
[0.62]

>  <Lig_RMSZ_Angles>  (15) 
[0.46]

>  <Lig_Alt_Conf>  (15) 
0

>  <Title>  (15) 
Cocrystal structure of cAMP-dependent Protein Kinase (PKA) in complex with an (R)-methyl substitued Fasudil-derivative.

>  <Nonpolymer_Entity_Count>  (15) 
2

>  <Protein_Entity_Count>  (15) 
2

>  <Exp_Method>  (15) 
X-Ray Diffraction

>  <Deposit_Date>  (15) 
2016-10-26

>  <Resolution>  (15) 
1.488

>  <DOI>  (15) 
nan

>  <Source_Organism>  (15) 
Cricetulus griseus

>  <R_Free>  (15) 
0.1761

>  <Keywords>  (15) 
Transferase

>  <REMARK_280>  (15) 
 Crystal Solvent Content, Vs (%): 54.71 Matthews Coefficient, Vm (Angstroms**3/Da): 2.15 Crystallization Conditions: Drop: 10 Mg/Ml Pka (0.240 Mm) 30 Mm Mbt (Mes/Bis-Tris Puffer pH 6.9) 1 Mm Dtt 0.1 Mm Edta 75 Mm Licl 0.03 Mm Mega 8 0.07Mm Pki (Sigma: P7739) 1.2 Mm Ligand Solved In Dmso (50 Mm Stock) Reservoir: 19% Methanol 0.003 Ml Drop Volume, 0.4 Ml Reservoir Volume, Vapor Diffusion, Hanging Drop, Temperature 277.15K 

>  <REMARK_610>  (15) 
nan

>  <pH>  (15) 
6.9

>  <Cryst_Technique>  (15) 
nan

>  <Sequence>  (15) 
GHMGNAAAAKKGSEQESVKEFLAKAKEEFLKKWESPSQNTAQLDHFDRIKTLGTGSFGRVMLVKHKETGNHYAMKILDKQKVVKLKQIEHTLNEKRILQAVNFPFLVKLEFSFKDNSNLYMVMEYVPGGEMFSHLRRIGRFSEPHARFYAAQIVLTFEYLHSLDLIYRDLKPENLLIDQQGYIQVTDFGFAKRVKGRTWTLCGTPEYLAPEIILSKGYNKAVDWWALGVLIYEMAAGYPPFFADQPIQIYEKIVSGKVRFPSHFSSDLKDLLRNLLQVDLTKRFGNLKNGVNDIKNHKWFATTDWIAIYQRKVEAPFIPKFKGPGDTSNFDDYEEEEIRVSINEKCGKEFTEF

>  <Sequence_Length>  (15) 
353

>  <Mutation_Count>  (15) 
0

>  <Gene_Name>  (15) 
PKACA

>  <MW>  (15) 
41.114

>  <Name>  (15) 
cAMP-Dependent Protein Kinase Catalytic Subunit Alpha

>  <Mutations>  (15) 
nan

>  <EC_Number>  (15) 
2.7.11.11

>  <Peptidic_Inhibitor>  (15) 
True

>  <Lig_Missing_Atoms>  (15) 
['No']

>  <PDBbind_Resolution>  (15) 
nan

>  <PDBbind_Release_Year>  (15) 
nan

>  <PDBbind_Comment>  (15) 
nan

>  <PDBbind_Uniprot_Id>  (15) 
nan

>  <PDBbind_Protein_Name>  (15) 
nan

>  <PDBbind_-Logkd/Ki>  (15) 
nan

>  <PDBbind_Kd/Ki>  (15) 
nan

>  <PDBbind_Kd_Or_Ki_Or_Ic50>  (15) 
nan

>  <PDBbind_Relation>  (15) 
nan

>  <PDBbind_Value>  (15) 
nan

>  <PDBbind_Unit>  (15) 
nan

>  <PDBbind_Standard_Value>  (15) 
nan

>  <PDBbind_Standard_Unit>  (15) 
nan

$$$$

     RDKit          2D

 21 23  0  0  0  0  0  0  0  0999 V2000
    4.2156   -5.1223    0.0000 C   0  0  0  0  0  0  0  0  0  0  0  0
    5.1508   -3.9495    0.0000 C   0  0  0  0  0  0  0  0  0  0  0  0
    6.6132   -4.2833    0.0000 C   0  0  0  0  0  0  0  0  0  0  0  0
    7.7860   -3.3481    0.0000 N   0  0  0  0  0  0  0  0  0  0  0  0
    7.7860   -1.8481    0.0000 C   0  0  0  0  0  0  0  0  0  0  0  0
    6.6132   -0.9128    0.0000 C   0  0  0  0  0  0  0  0  0  0  0  0
    5.1508   -1.2466    0.0000 C   0  0  0  0  0  0  0  0  0  0  0  0
    4.5000   -2.5981    0.0000 N   0  0  0  0  0  0  0  0  0  0  0  0
    3.0000   -2.5981    0.0000 S   0  0  0  0  0  0  0  0  0  0  0  0
    3.0000   -4.0981    0.0000 O   0  0  0  0  0  0  0  0  0  0  0  0
    3.0000   -1.0981    0.0000 O   0  0  0  0  0  0  0  0  0  0  0  0
    1.5000   -2.5981    0.0000 C   0  0  0  0  0  0  0  0  0  0  0  0
    0.7500   -3.8971    0.0000 C   0  0  0  0  0  0  0  0  0  0  0  0
   -0.7500   -3.8971    0.0000 C   0  0  0  0  0  0  0  0  0  0  0  0
   -1.5000   -2.5981    0.0000 C   0  0  0  0  0  0  0  0  0  0  0  0
   -0.7500   -1.2990    0.0000 C   0  0  0  0  0  0  0  0  0  0  0  0
    0.7500   -1.2990    0.0000 C   0  0  0  0  0  0  0  0  0  0  0  0
    1.5000    0.0000    0.0000 C   0  0  0  0  0  0  0  0  0  0  0  0
    0.7500    1.2990    0.0000 C   0  0  0  0  0  0  0  0  0  0  0  0
   -0.7500    1.2990    0.0000 N   0  0  0  0  0  0  0  0  0  0  0  0
   -1.5000    0.0000    0.0000 C   0  0  0  0  0  0  0  0  0  0  0  0
  2  1  1  6
  2  3  1  0
  3  4  1  0
  4  5  1  0
  5  6  1  0
  6  7  1  0
  7  8  1  0
  8  9  1  0
  9 10  2  0
  9 11  2  0
  9 12  1  0
 12 13  2  0
 13 14  1  0
 14 15  2  0
 15 16  1  0
 16 17  2  0
 17 18  1  0
 18 19  2  0
 19 20  1  0
 20 21  2  0
  8  2  1  0
 17 12  1  0
 21 16  1  0
M  END
>  <Structure>  (16) 
5M75

>  <Dataset>  (16) 
PDB

>  <Chain>  (16) 
A

>  <Spatial_Label>  (16) 
DFGin

>  <Dihedral_Label>  (16) 
ABAminus

>  <C_Helix_Label>  (16) 
Chelix-in

>  <Lig_ID>  (16) 
9K6

>  <Lig_Entity_ID>  (16) 
5M75_4

>  <Lig_Name>  (16) 
5-[[(2~{S})-2-methyl-1,4-diazepan-1-yl]sulfonyl]isoquinoline

>  <Lig_Formula>  (16) 
C15H19N3O2S

>  <Lig_SMILES>  (16) 
C[C@H]1CNCCCN1S(=O)(=O)c2cccc3c2ccnc3

>  <Lig_MW>  (16) 
305.395

>  <Lig_ChEMBL_ID>  (16) 
nan

>  <Lig_DrugBank_ID>  (16) 
nan

>  <Occurence>  (16) 
1

>  <Lig_SMILES_Uncharged>  (16) 
C[C@H]1CNCCCN1S(=O)(=O)c1cccc2cnccc12

>  <Lig_Conformer>  (16) 
['NaN']

>  <Lig_Of_Interest>  (16) 
['Y']

>  <Lig_Completeness>  (16) 
[1.0]

>  <Lig_Occupancy>  (16) 
[1.0]

>  <Lig_RSCC>  (16) 
[0.986]

>  <Lig_RSR>  (16) 
[0.072]

>  <Lig_RMSZ_Bonds>  (16) 
[0.31]

>  <Lig_RMSZ_Angles>  (16) 
[0.45]

>  <Lig_Alt_Conf>  (16) 
0

>  <Title>  (16) 
Cocrystal structure of cAMP-dependent Protein Kinase (PKA) in complex with a (S)-methyl substitued Fasudil-derivative

>  <Nonpolymer_Entity_Count>  (16) 
2

>  <Protein_Entity_Count>  (16) 
2

>  <Exp_Method>  (16) 
X-Ray Diffraction

>  <Deposit_Date>  (16) 
2016-10-26

>  <Resolution>  (16) 
1.538

>  <DOI>  (16) 
nan

>  <Source_Organism>  (16) 
Cricetulus griseus

>  <R_Free>  (16) 
0.1739

>  <Keywords>  (16) 
Transferase

>  <REMARK_280>  (16) 
 Crystal Solvent Content, Vs (%): 53.78 Matthews Coefficient, Vm (Angstroms**3/Da): 2.18 Crystallization Conditions: Drop: 10 Mg/Ml Pka (0.240 Mm) 30 Mm Mbt (Mes/Bis-Tris Puffer pH 6.9) 1 Mm Dtt 0.1 Mm Edta 75 Mm Licl 0.03 Mm Mega 8 0.07Mm Pki (Sigma: P7739) 1.2 Mm Ligand Solved In Dmso (50 Mm Stock) Reservoir: 18% Methanol 0.003 Ml Drop Volume, 0.4 Ml Reservoir Volume, Vapor Diffusion, Hanging Drop, Temperature 277.15K 

>  <REMARK_610>  (16) 
nan

>  <pH>  (16) 
6.9

>  <Cryst_Technique>  (16) 
nan

>  <Sequence>  (16) 
GHMGNAAAAKKGSEQESVKEFLAKAKEEFLKKWESPSQNTAQLDHFDRIKTLGTGSFGRVMLVKHKETGNHYAMKILDKQKVVKLKQIEHTLNEKRILQAVNFPFLVKLEFSFKDNSNLYMVMEYVPGGEMFSHLRRIGRFSEPHARFYAAQIVLTFEYLHSLDLIYRDLKPENLLIDQQGYIQVTDFGFAKRVKGRTWTLCGTPEYLAPEIILSKGYNKAVDWWALGVLIYEMAAGYPPFFADQPIQIYEKIVSGKVRFPSHFSSDLKDLLRNLLQVDLTKRFGNLKNGVNDIKNHKWFATTDWIAIYQRKVEAPFIPKFKGPGDTSNFDDYEEEEIRVSINEKCGKEFTEF

>  <Sequence_Length>  (16) 
353

>  <Mutation_Count>  (16) 
0

>  <Gene_Name>  (16) 
PKACA

>  <MW>  (16) 
41.114

>  <Name>  (16) 
cAMP-Dependent Protein Kinase Catalytic Subunit Alpha

>  <Mutations>  (16) 
nan

>  <EC_Number>  (16) 
2.7.11.11

>  <Peptidic_Inhibitor>  (16) 
True

>  <Lig_Missing_Atoms>  (16) 
['No']

>  <PDBbind_Resolution>  (16) 
nan

>  <PDBbind_Release_Year>  (16) 
nan

>  <PDBbind_Comment>  (16) 
nan

>  <PDBbind_Uniprot_Id>  (16) 
nan

>  <PDBbind_Protein_Name>  (16) 
nan

>  <PDBbind_-Logkd/Ki>  (16) 
nan

>  <PDBbind_Kd/Ki>  (16) 
nan

>  <PDBbind_Kd_Or_Ki_Or_Ic50>  (16) 
nan

>  <PDBbind_Relation>  (16) 
nan

>  <PDBbind_Value>  (16) 
nan

>  <PDBbind_Unit>  (16) 
nan

>  <PDBbind_Standard_Value>  (16) 
nan

>  <PDBbind_Standard_Unit>  (16) 
nan

$$$$

     RDKit          2D

 14 15  0  0  0  0  0  0  0  0999 V2000
    1.5000    0.0000    0.0000 C   0  0  0  0  0  0  0  0  0  0  0  0
    0.7500   -1.2990    0.0000 C   0  0  0  0  0  0  0  0  0  0  0  0
   -0.7500   -1.2990    0.0000 C   0  0  0  0  0  0  0  0  0  0  0  0
   -1.5000    0.0000    0.0000 C   0  0  0  0  0  0  0  0  0  0  0  0
   -0.7500    1.2990    0.0000 N   0  0  0  0  0  0  0  0  0  0  0  0
    0.7500    1.2990    0.0000 C   0  0  0  0  0  0  0  0  0  0  0  0
   -1.5000   -2.5981    0.0000 O   0  0  0  0  0  0  0  0  0  0  0  0
   -3.0000   -2.5981    0.0000 C   0  0  0  0  0  0  0  0  0  0  0  0
   -3.8817   -3.8116    0.0000 C   0  0  0  0  0  0  0  0  0  0  0  0
   -5.3083   -3.3481    0.0000 C   0  0  0  0  0  0  0  0  0  0  0  0
   -5.3083   -1.8481    0.0000 C   0  0  0  0  0  0  0  0  0  0  0  0
   -3.8817   -1.3846    0.0000 O   0  0  0  0  0  0  0  0  0  0  0  0
   -6.5218   -0.9664    0.0000 C   0  0  0  0  0  0  0  0  0  0  0  0
   -6.3650    0.5254    0.0000 N   0  0  0  0  0  0  0  0  0  0  0  0
  1  2  2  0
  2  3  1  0
  3  4  2  0
  4  5  1  0
  5  6  2  0
  3  7  1  0
  7  8  1  0
  8  9  2  0
  9 10  1  0
 10 11  2  0
 11 12  1  0
 11 13  1  0
 13 14  1  0
  6  1  1  0
 12  8  1  0
M  END
>  <Structure>  (17) 
5N1D

>  <Dataset>  (17) 
PDB

>  <Chain>  (17) 
A

>  <Spatial_Label>  (17) 
DFGin

>  <Dihedral_Label>  (17) 
ABAminus

>  <C_Helix_Label>  (17) 
Chelix-in

>  <Lig_ID>  (17) 
8FZ

>  <Lig_Entity_ID>  (17) 
5N1D_4

>  <Lig_Name>  (17) 
(5-pyridin-3-yloxyfuran-2-yl)methanamine

>  <Lig_Formula>  (17) 
C10H10N2O2

>  <Lig_SMILES>  (17) 
c1cc(cnc1)Oc2ccc(o2)CN

>  <Lig_MW>  (17) 
190.199

>  <Lig_ChEMBL_ID>  (17) 
nan

>  <Lig_DrugBank_ID>  (17) 
nan

>  <Occurence>  (17) 
1

>  <Lig_SMILES_Uncharged>  (17) 
NCc1ccc(Oc2cccnc2)o1

>  <Lig_Conformer>  (17) 
['NaN']

>  <Lig_Of_Interest>  (17) 
['Y']

>  <Lig_Completeness>  (17) 
[1.0]

>  <Lig_Occupancy>  (17) 
[1.0]

>  <Lig_RSCC>  (17) 
[0.952]

>  <Lig_RSR>  (17) 
[0.087]

>  <Lig_RMSZ_Bonds>  (17) 
[1.24]

>  <Lig_RMSZ_Angles>  (17) 
[0.97]

>  <Lig_Alt_Conf>  (17) 
0

>  <Title>  (17) 
cAMP-dependent Protein Kinase A from Cricetulus griseus in complex with fragment like molecule N-methyl-1-(5-pyridin-3-yloxyfuran-2-yl)methanamine

>  <Nonpolymer_Entity_Count>  (17) 
3

>  <Protein_Entity_Count>  (17) 
2

>  <Exp_Method>  (17) 
X-Ray Diffraction

>  <Cryst_Method>  (17) 
Vapor Diffusion, Sitting Drop; Mes-Bis-Tris
Mega8-Solution
Dtt
Edta
Licl
Methanol

>  <Deposit_Date>  (17) 
2017-02-06

>  <Resolution>  (17) 
1.609

>  <DOI>  (17) 
nan

>  <Source_Organism>  (17) 
Cricetulus griseus

>  <R_Free>  (17) 
0.1857

>  <Keywords>  (17) 
Transferase

>  <REMARK_280>  (17) 
 Crystal Solvent Content, Vs (%): 57.00 Matthews Coefficient, Vm (Angstroms**3/Da): 2.88 Crystallization Conditions: Mes-Bis-Tris Mega8-Solution Dtt Edta Licl Methanol, pH 6.9, Vapor Diffusion, Sitting Drop, Temperature 277K 

>  <REMARK_610>  (17) 
nan

>  <pH>  (17) 
6.9

>  <Cryst_Technique>  (17) 
nan

>  <Sequence>  (17) 
GHMGNAAAAKKGSEQESVKEFLAKAKEEFLKKWESPSQNTAQLDHFDRIKTLGTGSFGRVMLVKHKETGNHYAMKILDKQKVVKLKQIEHTLNEKRILQAVNFPFLVKLEFSFKDNSNLYMVMEYVPGGEMFSHLRRIGRFSEPHARFYAAQIVLTFEYLHSLDLIYRDLKPENLLIDQQGYIQVTDFGFAKRVKGRTWTLCGTPEYLAPEIILSKGYNKAVDWWALGVLIYEMAAGYPPFFADQPIQIYEKIVSGKVRFPSHFSSDLKDLLRNLLQVDLTKRFGNLKNGVNDIKNHKWFATTDWIAIYQRKVEAPFIPKFKGPGDTSNFDDYEEEEIRVSINEKCGKEFTEF

>  <Sequence_Length>  (17) 
353

>  <Mutation_Count>  (17) 
0

>  <Gene_Name>  (17) 
PKACA

>  <MW>  (17) 
41.114

>  <Name>  (17) 
cAMP-Dependent Protein Kinase Catalytic Subunit Alpha

>  <Mutations>  (17) 
nan

>  <EC_Number>  (17) 
2.7.11.11

>  <Peptidic_Inhibitor>  (17) 
True

>  <Lig_Missing_Atoms>  (17) 
['No']

>  <PDBbind_Resolution>  (17) 
nan

>  <PDBbind_Release_Year>  (17) 
nan

>  <PDBbind_Comment>  (17) 
nan

>  <PDBbind_Uniprot_Id>  (17) 
nan

>  <PDBbind_Protein_Name>  (17) 
nan

>  <PDBbind_-Logkd/Ki>  (17) 
nan

>  <PDBbind_Kd/Ki>  (17) 
nan

>  <PDBbind_Kd_Or_Ki_Or_Ic50>  (17) 
nan

>  <PDBbind_Relation>  (17) 
nan

>  <PDBbind_Value>  (17) 
nan

>  <PDBbind_Unit>  (17) 
nan

>  <PDBbind_Standard_Value>  (17) 
nan

>  <PDBbind_Standard_Unit>  (17) 
nan

$$$$

     RDKit          2D

 13 13  0  0  0  0  0  0  0  0999 V2000
    1.5000    0.0000    0.0000 C   0  0  0  0  0  0  0  0  0  0  0  0
    0.7500   -1.2990    0.0000 C   0  0  0  0  0  0  0  0  0  0  0  0
   -0.7500   -1.2990    0.0000 C   0  0  0  0  0  0  0  0  0  0  0  0
   -1.5000    0.0000    0.0000 C   0  0  0  0  0  0  0  0  0  0  0  0
   -0.7500    1.2990    0.0000 C   0  0  0  0  0  0  0  0  0  0  0  0
    0.7500    1.2990    0.0000 C   0  0  0  0  0  0  0  0  0  0  0  0
    1.5000    2.5981    0.0000 C   0  0  0  0  0  0  0  0  0  0  0  0
    0.7500    3.8971    0.0000 N   0  0  0  0  0  4  0  0  0  0  0  0
    3.0000    2.5981    0.0000 N   0  0  0  0  0  0  0  0  0  0  0  0
   -1.5000   -2.5981    0.0000 C   0  0  0  0  0  0  0  0  0  0  0  0
   -2.2500   -3.8971    0.0000 F   0  0  0  0  0  0  0  0  0  0  0  0
   -2.7990   -1.8481    0.0000 F   0  0  0  0  0  0  0  0  0  0  0  0
   -0.2010   -3.3481    0.0000 F   0  0  0  0  0  0  0  0  0  0  0  0
  1  2  2  0
  2  3  1  0
  3  4  2  0
  4  5  1  0
  5  6  2  0
  6  7  1  0
  7  8  2  0
  7  9  1  0
  3 10  1  0
 10 11  1  0
 10 12  1  0
 10 13  1  0
  6  1  1  0
M  CHG  1   8   1
M  END
>  <Structure>  (18) 
5N3D

>  <Dataset>  (18) 
PDB

>  <Chain>  (18) 
A

>  <Spatial_Label>  (18) 
DFGin

>  <Dihedral_Label>  (18) 
ABAminus

>  <C_Helix_Label>  (18) 
Chelix-in

>  <Lig_ID>  (18) 
8NE

>  <Lig_Entity_ID>  (18) 
5N3D_3

>  <Lig_Name>  (18) 
[azanyl-[4-(trifluoromethyl)phenyl]methylidene]azanium

>  <Lig_Formula>  (18) 
C8H8F3N2

>  <Lig_SMILES>  (18) 
c1cc(ccc1C(=[NH2+])N)C(F)(F)F

>  <Lig_MW>  (18) 
189.158

>  <Lig_ChEMBL_ID>  (18) 
nan

>  <Lig_DrugBank_ID>  (18) 
nan

>  <Occurence>  (18) 
1

>  <Lig_SMILES_Uncharged>  (18) 
N=C(N)c1ccc(C(F)(F)F)cc1

>  <Lig_Conformer>  (18) 
['NaN']

>  <Lig_Of_Interest>  (18) 
['Y']

>  <Lig_Completeness>  (18) 
[1.0]

>  <Lig_Occupancy>  (18) 
[0.88]

>  <Lig_RSCC>  (18) 
[0.851]

>  <Lig_RSR>  (18) 
[0.168]

>  <Lig_RMSZ_Bonds>  (18) 
[0.41]

>  <Lig_RMSZ_Angles>  (18) 
[0.38]

>  <Lig_Alt_Conf>  (18) 
0

>  <Title>  (18) 
cAMP-dependent Protein Kinase A from Cricetulus griseus in complex with fragment like molecule 4-(trifluoromethyl)benzenecarboximidamide

>  <Nonpolymer_Entity_Count>  (18) 
2

>  <Protein_Entity_Count>  (18) 
2

>  <Exp_Method>  (18) 
X-Ray Diffraction

>  <Cryst_Method>  (18) 
Vapor Diffusion, Sitting Drop; Mes-Bis-Tris
Mega8-Solution
Dtt
Edta
Licl
Methanol

>  <Deposit_Date>  (18) 
2017-02-08

>  <Resolution>  (18) 
1.77

>  <DOI>  (18) 
https://doi.org/10.1002/anie.202011295

>  <Source_Organism>  (18) 
Cricetulus griseus

>  <R_Free>  (18) 
0.1931

>  <Keywords>  (18) 
Transferase

>  <REMARK_280>  (18) 
 Crystal Solvent Content, Vs (%): 56.00 Matthews Coefficient, Vm (Angstroms**3/Da): 2.82 Crystallization Conditions: Mes-Bis-Tris Mega8-Solution Dtt Edta Licl Methanol, pH 6.9, Vapor Diffusion, Sitting Drop, Temperature 277K 

>  <REMARK_610>  (18) 
nan

>  <pH>  (18) 
6.9

>  <Cryst_Technique>  (18) 
soaked

>  <Sequence>  (18) 
GHMGNAAAAKKGSEQESVKEFLAKAKEEFLKKWESPSQNTAQLDHFDRIKTLGTGSFGRVMLVKHKETGNHYAMKILDKQKVVKLKQIEHTLNEKRILQAVNFPFLVKLEFSFKDNSNLYMVMEYVPGGEMFSHLRRIGRFSEPHARFYAAQIVLTFEYLHSLDLIYRDLKPENLLIDQQGYIQVTDFGFAKRVKGRTWTLCGTPEYLAPEIILSKGYNKAVDWWALGVLIYEMAAGYPPFFADQPIQIYEKIVSGKVRFPSHFSSDLKDLLRNLLQVDLTKRFGNLKNGVNDIKNHKWFATTDWIAIYQRKVEAPFIPKFKGPGDTSNFDDYEEEEIRVSINEKCGKEFTEF

>  <Sequence_Length>  (18) 
353

>  <Mutation_Count>  (18) 
0

>  <Gene_Name>  (18) 
PKACA

>  <MW>  (18) 
41.194

>  <Name>  (18) 
cAMP-Dependent Protein Kinase Catalytic Subunit Alpha

>  <Mutations>  (18) 
nan

>  <EC_Number>  (18) 
2.7.11.11

>  <Peptidic_Inhibitor>  (18) 
True

>  <Lig_Missing_Atoms>  (18) 
['No']

>  <PDBbind_Resolution>  (18) 
nan

>  <PDBbind_Release_Year>  (18) 
nan

>  <PDBbind_Comment>  (18) 
nan

>  <PDBbind_Uniprot_Id>  (18) 
nan

>  <PDBbind_Protein_Name>  (18) 
nan

>  <PDBbind_-Logkd/Ki>  (18) 
nan

>  <PDBbind_Kd/Ki>  (18) 
nan

>  <PDBbind_Kd_Or_Ki_Or_Ic50>  (18) 
nan

>  <PDBbind_Relation>  (18) 
nan

>  <PDBbind_Value>  (18) 
nan

>  <PDBbind_Unit>  (18) 
nan

>  <PDBbind_Standard_Value>  (18) 
nan

>  <PDBbind_Standard_Unit>  (18) 
nan

$$$$

     RDKit          2D

 20 22  0  0  0  0  0  0  0  0999 V2000
    0.7500   -3.8971    0.0000 C   0  0  0  0  0  0  0  0  0  0  0  0
    1.5000   -2.5981    0.0000 C   0  0  0  0  0  0  0  0  0  0  0  0
    0.7500   -1.2990    0.0000 C   0  0  0  0  0  0  0  0  0  0  0  0
    1.5000    0.0000    0.0000 C   0  0  0  0  0  0  0  0  0  0  0  0
    0.7500    1.2990    0.0000 N   0  0  0  0  0  0  0  0  0  0  0  0
   -0.7500    1.2990    0.0000 C   0  0  0  0  0  0  0  0  0  0  0  0
   -1.5000    0.0000    0.0000 C   0  0  0  0  0  0  0  0  0  0  0  0
   -0.7500   -1.2990    0.0000 C   0  0  0  0  0  0  0  0  0  0  0  0
   -1.5000   -2.5981    0.0000 C   0  0  0  0  0  0  0  0  0  0  0  0
   -0.7500   -3.8971    0.0000 C   0  0  0  0  0  0  0  0  0  0  0  0
   -3.0000   -2.5981    0.0000 S   0  0  0  0  0  0  0  0  0  0  0  0
   -3.0000   -4.0981    0.0000 O   0  0  0  0  0  0  0  0  0  0  0  0
   -3.0000   -1.0981    0.0000 O   0  0  0  0  0  0  0  0  0  0  0  0
   -4.5000   -2.5981    0.0000 N   0  0  0  0  0  0  0  0  0  0  0  0
   -5.1508   -3.9495    0.0000 C   0  0  0  0  0  0  0  0  0  0  0  0
   -6.6132   -4.2833    0.0000 C   0  0  0  0  0  0  0  0  0  0  0  0
   -7.7860   -3.3481    0.0000 C   0  0  0  0  0  0  0  0  0  0  0  0
   -7.7860   -1.8481    0.0000 N   0  0  0  0  0  0  0  0  0  0  0  0
   -6.6132   -0.9128    0.0000 C   0  0  0  0  0  0  0  0  0  0  0  0
   -5.1508   -1.2466    0.0000 C   0  0  0  0  0  0  0  0  0  0  0  0
  1  2  2  0
  2  3  1  0
  3  4  2  0
  4  5  1  0
  5  6  2  0
  6  7  1  0
  7  8  2  0
  8  9  1  0
  9 10  2  0
  9 11  1  0
 11 12  2  0
 11 13  2  0
 11 14  1  0
 14 15  1  0
 15 16  1  0
 16 17  1  0
 17 18  1  0
 18 19  1  0
 19 20  1  0
 10  1  1  0
  8  3  1  0
 20 14  1  0
M  END
>  <Structure>  (19) 
5NW8

>  <Dataset>  (19) 
PDB

>  <Chain>  (19) 
A

>  <Spatial_Label>  (19) 
DFGin

>  <Dihedral_Label>  (19) 
ABAminus

>  <C_Helix_Label>  (19) 
Chelix-in

>  <Lig_ID>  (19) 
M77

>  <Lig_Entity_ID>  (19) 
5NW8_4

>  <Lig_Name>  (19) 
5-(1,4-DIAZEPAN-1-SULFONYL)ISOQUINOLINE

>  <Lig_Formula>  (19) 
C14H17N3O2S

>  <Lig_SMILES>  (19) 
c1cc2cnccc2c(c1)S(=O)(=O)N3CCCNCC3

>  <Lig_MW>  (19) 
291.369

>  <Lig_ChEMBL_ID>  (19) 
['CHEMBL38380']

>  <Lig_DrugBank_ID>  (19) 
['DB08162']

>  <Occurence>  (19) 
11

>  <Lig_SMILES_Uncharged>  (19) 
O=S(=O)(c1cccc2cnccc12)N1CCCNCC1

>  <Lig_Conformer>  (19) 
['NaN']

>  <Lig_Of_Interest>  (19) 
['Y']

>  <Lig_Completeness>  (19) 
[1.0]

>  <Lig_Occupancy>  (19) 
[1.0]

>  <Lig_RSCC>  (19) 
[0.972]

>  <Lig_RSR>  (19) 
[0.07]

>  <Lig_RMSZ_Bonds>  (19) 
[0.28]

>  <Lig_RMSZ_Angles>  (19) 
[0.51]

>  <Lig_Alt_Conf>  (19) 
0

>  <Title>  (19) 
Crystal Structure of the Protein-Kinase A catalytic subunit from Criteculus Griseus in complex with compounds RKp032 and Fasudil

>  <Nonpolymer_Entity_Count>  (19) 
3

>  <Protein_Entity_Count>  (19) 
2

>  <Exp_Method>  (19) 
X-Ray Diffraction

>  <Cryst_Method>  (19) 
Vapor Diffusion, Sitting Drop; 5 Mm Mes-Bis-Tris, 75 Mm Lithium Chloride, 1 Mm Dtt, 0.1 Mm Sodium Edta, 0.25 Mm Mega 8, 0.7 Mm Peptidic Ligand, 5 Mm Fasudil X Hcl, 16 % V/V Methanol/Water In Reservoir

>  <Deposit_Date>  (19) 
2017-05-05

>  <Resolution>  (19) 
2.086

>  <DOI>  (19) 
https://doi.org/10.1021/acsomega.8b02364

>  <Source_Organism>  (19) 
Cricetulus griseus

>  <R_Free>  (19) 
0.2118

>  <Keywords>  (19) 
Transferase

>  <REMARK_280>  (19) 
 Crystal Solvent Content, Vs (%): 51.96 Matthews Coefficient, Vm (Angstroms**3/Da): 2.56 Crystallization Conditions: 5 Mm Mes-Bis-Tris, 75 Mm Lithium Chloride, 1 Mm Dtt, 0.1 Mm Sodium Edta, 0.25 Mm Mega 8, 0.7 Mm Peptidic Ligand, 5 Mm Fasudil X Hcl, 16 % V/V Methanol/Water In Reservoir, pH 6.9, Vapor Diffusion, Sitting Drop, Temperature 277.15K 

>  <REMARK_610>  (19) 
nan

>  <pH>  (19) 
6.9

>  <Cryst_Technique>  (19) 
co-crystallized

>  <Sequence>  (19) 
MGNAAAAKKGSEQESVKEFLAKAKEEFLKKWESPSQNTAQLDHFDRIKTLGTGSFGRVMLVKHKETGNHYAMKILDKQKVVKLKQIEHTLNEKRILQAVNFPFLVKLEFSFKDNSNLYMVMEYVPGGEMFSHLRRIGRFSEPHARFYAAQIVLTFEYLHSLDLIYRDLKPENLLIDQQGYIQVTDFGFAKRVKGRTWTLCGTPEYLAPEIILSKGYNKAVDWWALGVLIYEMAAGYPPFFADQPIQIYEKIVSGKVRFPSHFSSDLKDLLRNLLQVDLTKRFGNLKNGVNDIKNHKWFATTDWIAIYQRKVEAPFIPKFKGPGDTSNFDDYEEEEIRVSINEKCGKEFTEF

>  <Sequence_Length>  (19) 
351

>  <Mutation_Count>  (19) 
0

>  <Gene_Name>  (19) 
PKACA

>  <MW>  (19) 
40.999

>  <Name>  (19) 
cAMP-Dependent Protein Kinase Catalytic Subunit Alpha

>  <Mutations>  (19) 
nan

>  <EC_Number>  (19) 
2.7.11.11

>  <Peptidic_Inhibitor>  (19) 
True

>  <Lig_Missing_Atoms>  (19) 
['No']

>  <PDBbind_Resolution>  (19) 
nan

>  <PDBbind_Release_Year>  (19) 
nan

>  <PDBbind_Comment>  (19) 
nan

>  <PDBbind_Uniprot_Id>  (19) 
nan

>  <PDBbind_Protein_Name>  (19) 
nan

>  <PDBbind_-Logkd/Ki>  (19) 
nan

>  <PDBbind_Kd/Ki>  (19) 
nan

>  <PDBbind_Kd_Or_Ki_Or_Ic50>  (19) 
nan

>  <PDBbind_Relation>  (19) 
nan

>  <PDBbind_Value>  (19) 
nan

>  <PDBbind_Unit>  (19) 
nan

>  <PDBbind_Standard_Value>  (19) 
nan

>  <PDBbind_Standard_Unit>  (19) 
nan

$$$$

     RDKit          2D

 20 22  0  0  0  0  0  0  0  0999 V2000
    0.7500   -3.8971    0.0000 C   0  0  0  0  0  0  0  0  0  0  0  0
    1.5000   -2.5981    0.0000 C   0  0  0  0  0  0  0  0  0  0  0  0
    0.7500   -1.2990    0.0000 C   0  0  0  0  0  0  0  0  0  0  0  0
    1.5000    0.0000    0.0000 C   0  0  0  0  0  0  0  0  0  0  0  0
    0.7500    1.2990    0.0000 N   0  0  0  0  0  0  0  0  0  0  0  0
   -0.7500    1.2990    0.0000 C   0  0  0  0  0  0  0  0  0  0  0  0
   -1.5000    0.0000    0.0000 C   0  0  0  0  0  0  0  0  0  0  0  0
   -0.7500   -1.2990    0.0000 C   0  0  0  0  0  0  0  0  0  0  0  0
   -1.5000   -2.5981    0.0000 C   0  0  0  0  0  0  0  0  0  0  0  0
   -0.7500   -3.8971    0.0000 C   0  0  0  0  0  0  0  0  0  0  0  0
   -3.0000   -2.5981    0.0000 S   0  0  0  0  0  0  0  0  0  0  0  0
   -3.0000   -4.0981    0.0000 O   0  0  0  0  0  0  0  0  0  0  0  0
   -3.0000   -1.0981    0.0000 O   0  0  0  0  0  0  0  0  0  0  0  0
   -4.5000   -2.5981    0.0000 N   0  0  0  0  0  0  0  0  0  0  0  0
   -5.1508   -3.9495    0.0000 C   0  0  0  0  0  0  0  0  0  0  0  0
   -6.6132   -4.2833    0.0000 C   0  0  0  0  0  0  0  0  0  0  0  0
   -7.7860   -3.3481    0.0000 C   0  0  0  0  0  0  0  0  0  0  0  0
   -7.7860   -1.8481    0.0000 N   0  0  0  0  0  0  0  0  0  0  0  0
   -6.6132   -0.9128    0.0000 C   0  0  0  0  0  0  0  0  0  0  0  0
   -5.1508   -1.2466    0.0000 C   0  0  0  0  0  0  0  0  0  0  0  0
  1  2  2  0
  2  3  1  0
  3  4  2  0
  4  5  1  0
  5  6  2  0
  6  7  1  0
  7  8  2  0
  8  9  1  0
  9 10  2  0
  9 11  1  0
 11 12  2  0
 11 13  2  0
 11 14  1  0
 14 15  1  0
 15 16  1  0
 16 17  1  0
 17 18  1  0
 18 19  1  0
 19 20  1  0
 10  1  1  0
  8  3  1  0
 20 14  1  0
M  END
>  <Structure>  (20) 
5O0E

>  <Dataset>  (20) 
PDB

>  <Chain>  (20) 
A

>  <Spatial_Label>  (20) 
DFGin

>  <Dihedral_Label>  (20) 
ABAminus

>  <C_Helix_Label>  (20) 
Chelix-in

>  <Lig_ID>  (20) 
M77

>  <Lig_Entity_ID>  (20) 
5O0E_3

>  <Lig_Name>  (20) 
5-(1,4-DIAZEPAN-1-SULFONYL)ISOQUINOLINE

>  <Lig_Formula>  (20) 
C14H17N3O2S

>  <Lig_SMILES>  (20) 
c1cc2cnccc2c(c1)S(=O)(=O)N3CCCNCC3

>  <Lig_MW>  (20) 
291.369

>  <Lig_ChEMBL_ID>  (20) 
['CHEMBL38380']

>  <Lig_DrugBank_ID>  (20) 
['DB08162']

>  <Occurence>  (20) 
11

>  <Lig_SMILES_Uncharged>  (20) 
O=S(=O)(c1cccc2cnccc12)N1CCCNCC1

>  <Lig_Conformer>  (20) 
['NaN']

>  <Lig_Of_Interest>  (20) 
['Y']

>  <Lig_Completeness>  (20) 
[1.0]

>  <Lig_Occupancy>  (20) 
[1.0]

>  <Lig_RSCC>  (20) 
[0.995]

>  <Lig_RSR>  (20) 
[0.028]

>  <Lig_RMSZ_Bonds>  (20) 
[0.25]

>  <Lig_RMSZ_Angles>  (20) 
[0.51]

>  <Lig_Alt_Conf>  (20) 
0

>  <Title>  (20) 
Crystal Structure of the Protein-Kinase A catalytic subunit from Criteculus Griseus in complex with compounds RKp120 and Fasudil

>  <Nonpolymer_Entity_Count>  (20) 
2

>  <Protein_Entity_Count>  (20) 
2

>  <Exp_Method>  (20) 
X-Ray Diffraction

>  <Cryst_Method>  (20) 
Vapor Diffusion, Sitting Drop; 5 Mm Mes-Bis-Tris, 75 Mm Lithium Chloride, 1 Mm Dtt, 0.1 Mm Sodium Edta, 0.25 Mm Mega 8, 0.7 Mm Peptidic Ligand, 5 Mm Fasudil X Hcl, 20 % V/V Methanol/Water In Reservoir

>  <Deposit_Date>  (20) 
2017-05-16

>  <Resolution>  (20) 
1.5

>  <DOI>  (20) 
https://doi.org/10.1021/acsomega.8b02364

>  <Source_Organism>  (20) 
Cricetulus griseus

>  <R_Free>  (20) 
0.1699

>  <Keywords>  (20) 
Transferase

>  <REMARK_280>  (20) 
 Crystal Solvent Content, Vs (%): 56.82 Matthews Coefficient, Vm (Angstroms**3/Da): 2.85 Crystallization Conditions: 5 Mm Mes-Bis-Tris, 75 Mm Lithium Chloride, 1 Mm Dtt, 0.1 Mm Sodium Edta, 0.25 Mm Mega 8, 0.7 Mm Peptidic Ligand, 5 Mm Fasudil X Hcl, 20 % V/V Methanol/Water In Reservoir, pH 6.9, Vapor Diffusion, Sitting Drop, Temperature 277.15K 

>  <REMARK_610>  (20) 
nan

>  <pH>  (20) 
6.9

>  <Cryst_Technique>  (20) 
co-crystallized

>  <Sequence>  (20) 
GHMGNAAAAKKGSEQESVKEFLAKAKEEFLKKWESPSQNTAQLDHFDRIKTLGTGSFGRVMLVKHKETGNHYAMKILDKQKVVKLKQIEHTLNEKRILQAVNFPFLVKLEFSFKDNSNLYMVMEYVPGGEMFSHLRRIGRFSEPHARFYAAQIVLTFEYLHSLDLIYRDLKPENLLIDQQGYIQVTDFGFAKRVKGRTWTLCGTPEYLAPEIILSKGYNKAVDWWALGVLIYEMAAGYPPFFADQPIQIYEKIVSGKVRFPSHFSSDLKDLLRNLLQVDLTKRFGNLKNGVNDIKNHKWFATTDWIAIYQRKVEAPFIPKFKGPGDTSNFDDYEEEEIRVSINEKCGKEFTEF

>  <Sequence_Length>  (20) 
353

>  <Mutation_Count>  (20) 
0

>  <Gene_Name>  (20) 
PKACA

>  <MW>  (20) 
41.194

>  <Name>  (20) 
cAMP-Dependent Protein Kinase Catalytic Subunit Alpha

>  <Mutations>  (20) 
nan

>  <EC_Number>  (20) 
2.7.11.11

>  <Peptidic_Inhibitor>  (20) 
True

>  <Lig_Missing_Atoms>  (20) 
['No']

>  <PDBbind_Resolution>  (20) 
nan

>  <PDBbind_Release_Year>  (20) 
nan

>  <PDBbind_Comment>  (20) 
nan

>  <PDBbind_Uniprot_Id>  (20) 
nan

>  <PDBbind_Protein_Name>  (20) 
nan

>  <PDBbind_-Logkd/Ki>  (20) 
nan

>  <PDBbind_Kd/Ki>  (20) 
nan

>  <PDBbind_Kd_Or_Ki_Or_Ic50>  (20) 
nan

>  <PDBbind_Relation>  (20) 
nan

>  <PDBbind_Value>  (20) 
nan

>  <PDBbind_Unit>  (20) 
nan

>  <PDBbind_Standard_Value>  (20) 
nan

>  <PDBbind_Standard_Unit>  (20) 
nan

$$$$

     RDKit          2D

 30 33  0  0  0  0  0  0  0  0999 V2000
   11.8403    0.1044    0.0000 B   0  0  0  0  0  0  0  0  0  0  0  0
   11.7282   -1.3914    0.0000 C   0  0  0  0  0  0  0  0  0  0  0  0
   12.9676   -2.2364    0.0000 C   0  0  0  0  0  0  0  0  0  0  0  0
   12.8555   -3.7322    0.0000 C   0  0  0  0  0  0  0  0  0  0  0  0
   11.5040   -4.3830    0.0000 C   0  0  0  0  0  0  0  0  0  0  0  0
   10.2647   -3.5380    0.0000 C   0  0  0  0  0  0  0  0  0  0  0  0
   10.3768   -2.0422    0.0000 C   0  0  0  0  0  0  0  0  0  0  0  0
    9.1374   -1.1973    0.0000 C   0  0  0  0  0  0  0  0  0  0  0  0
    7.7860   -1.8481    0.0000 N   0  0  0  0  0  0  0  0  0  0  0  0
    7.7860   -3.3481    0.0000 C   0  0  0  0  0  0  0  0  0  0  0  0
    6.6132   -4.2833    0.0000 C   0  0  0  0  0  0  0  0  0  0  0  0
    5.1508   -3.9495    0.0000 C   0  0  0  0  0  0  0  0  0  0  0  0
    4.5000   -2.5981    0.0000 N   0  0  0  0  0  0  0  0  0  0  0  0
    5.1508   -1.2466    0.0000 C   0  0  0  0  0  0  0  0  0  0  0  0
    6.6132   -0.9128    0.0000 C   0  0  0  0  0  0  0  0  0  0  0  0
    3.0000   -2.5981    0.0000 S   0  0  0  0  0  0  0  0  0  0  0  0
    3.0000   -4.0981    0.0000 O   0  0  0  0  0  0  0  0  0  0  0  0
    3.0000   -1.0981    0.0000 O   0  0  0  0  0  0  0  0  0  0  0  0
    1.5000   -2.5981    0.0000 C   0  0  0  0  0  0  0  0  0  0  0  0
    0.7500   -3.8971    0.0000 C   0  0  0  0  0  0  0  0  0  0  0  0
   -0.7500   -3.8971    0.0000 C   0  0  0  0  0  0  0  0  0  0  0  0
   -1.5000   -2.5981    0.0000 C   0  0  0  0  0  0  0  0  0  0  0  0
   -0.7500   -1.2990    0.0000 C   0  0  0  0  0  0  0  0  0  0  0  0
    0.7500   -1.2990    0.0000 C   0  0  0  0  0  0  0  0  0  0  0  0
    1.5000    0.0000    0.0000 C   0  0  0  0  0  0  0  0  0  0  0  0
    0.7500    1.2990    0.0000 C   0  0  0  0  0  0  0  0  0  0  0  0
   -0.7500    1.2990    0.0000 N   0  0  0  0  0  0  0  0  0  0  0  0
   -1.5000    0.0000    0.0000 C   0  0  0  0  0  0  0  0  0  0  0  0
   13.1918    0.7552    0.0000 O   0  0  0  0  0  0  0  0  0  0  0  0
   10.6010    0.9494    0.0000 O   0  0  0  0  0  0  0  0  0  0  0  0
  1  2  1  0
  2  3  2  0
  3  4  1  0
  4  5  2  0
  5  6  1  0
  6  7  2  0
  7  8  1  0
  8  9  1  0
  9 10  1  0
 10 11  1  0
 11 12  1  0
 12 13  1  0
 13 14  1  0
 14 15  1  0
 13 16  1  0
 16 17  2  0
 16 18  2  0
 16 19  1  0
 19 20  2  0
 20 21  1  0
 21 22  2  0
 22 23  1  0
 23 24  2  0
 24 25  1  0
 25 26  2  0
 26 27  1  0
 27 28  2  0
  1 29  1  0
  1 30  1  0
  7  2  1  0
 15  9  1  0
 24 19  1  0
 28 23  1  0
M  END
>  <Structure>  (21) 
5O5M

>  <Dataset>  (21) 
PDB

>  <Chain>  (21) 
A

>  <Spatial_Label>  (21) 
DFGin

>  <Dihedral_Label>  (21) 
ABAminus

>  <C_Helix_Label>  (21) 
Chelix-in

>  <Lig_ID>  (21) 
9LQ

>  <Lig_Entity_ID>  (21) 
5O5M_3

>  <Lig_Name>  (21) 
[2-[(4-isoquinolin-5-ylsulfonyl-1,4-diazepan-1-yl)methyl]phenyl]boronic acid

>  <Lig_Formula>  (21) 
C21H24BN3O4S

>  <Lig_SMILES>  (21) 
B(c1ccccc1CN2CCCN(CC2)S(=O)(=O)c3cccc4c3ccnc4)(O)O

>  <Lig_MW>  (21) 
425.309

>  <Lig_ChEMBL_ID>  (21) 
nan

>  <Lig_DrugBank_ID>  (21) 
nan

>  <Occurence>  (21) 
6

>  <Lig_SMILES_Uncharged>  (21) 
O=S(=O)(c1cccc2cnccc12)N1CCCN(Cc2ccccc2B(O)O)CC1

>  <Lig_Conformer>  (21) 
['NaN']

>  <Lig_Of_Interest>  (21) 
['Y']

>  <Lig_Completeness>  (21) 
[1.0]

>  <Lig_Occupancy>  (21) 
[1.0]

>  <Lig_RSCC>  (21) 
[0.937]

>  <Lig_RSR>  (21) 
[0.107]

>  <Lig_RMSZ_Bonds>  (21) 
[0.41]

>  <Lig_RMSZ_Angles>  (21) 
[0.91]

>  <Lig_Alt_Conf>  (21) 
0

>  <Title>  (21) 
Crystal Structure of the Protein-Kinase A catalytic subunit from Criteculus Griseus in complex with compounds RKp120 and RKp117

>  <Nonpolymer_Entity_Count>  (21) 
2

>  <Protein_Entity_Count>  (21) 
2

>  <Exp_Method>  (21) 
X-Ray Diffraction

>  <Cryst_Method>  (21) 
Vapor Diffusion, Sitting Drop; 5 Mm Mes-Bis-Tris, 75 Mm Lithium Chloride, 1 Mm Dtt, 0.1 Mm Sodium Edta, 0.25 Mm Mega 8, 0.7 Mm Peptidic Ligand, 5 Mm Rkp117, 15 % V/V Methanol/Water In Reservoir

>  <Deposit_Date>  (21) 
2017-06-02

>  <Resolution>  (21) 
1.583

>  <DOI>  (21) 
https://doi.org/10.1021/acsomega.8b02364

>  <Source_Organism>  (21) 
Cricetulus griseus

>  <R_Free>  (21) 
0.1824

>  <Keywords>  (21) 
Transferase

>  <REMARK_280>  (21) 
 Crystal Solvent Content, Vs (%): 50.96 Matthews Coefficient, Vm (Angstroms**3/Da): 2.51 Crystallization Conditions: 5 Mm Mes-Bis-Tris, 75 Mm Lithium Chloride, 1 Mm Dtt, 0.1 Mm Sodium Edta, 0.25 Mm Mega 8, 0.7 Mm Peptidic Ligand, 5 Mm Rkp117, 15 % V/V Methanol/Water In Reservoir, pH 6.9, Vapor Diffusion, Sitting Drop, Temperature 277.15K 

>  <REMARK_610>  (21) 
nan

>  <pH>  (21) 
6.9

>  <Cryst_Technique>  (21) 
co-crystallized

>  <Sequence>  (21) 
GHMGNAAAAKKGSEQESVKEFLAKAKEEFLKKWESPSQNTAQLDHFDRIKTLGTGSFGRVMLVKHKETGNHYAMKILDKQKVVKLKQIEHTLNEKRILQAVNFPFLVKLEFSFKDNSNLYMVMEYVPGGEMFSHLRRIGRFSEPHARFYAAQIVLTFEYLHSLDLIYRDLKPENLLIDQQGYIQVTDFGFAKRVKGRTWTLCGTPEYLAPEIILSKGYNKAVDWWALGVLIYEMAAGYPPFFADQPIQIYEKIVSGKVRFPSHFSSDLKDLLRNLLQVDLTKRFGNLKNGVNDIKNHKWFATTDWIAIYQRKVEAPFIPKFKGPGDTSNFDDYEEEEIRVSINEKCGKEFTEF

>  <Sequence_Length>  (21) 
353

>  <Mutation_Count>  (21) 
0

>  <Gene_Name>  (21) 
PKACA

>  <MW>  (21) 
41.194

>  <Name>  (21) 
cAMP-Dependent Protein Kinase Catalytic Subunit Alpha

>  <Mutations>  (21) 
nan

>  <EC_Number>  (21) 
2.7.11.11

>  <Peptidic_Inhibitor>  (21) 
True

>  <Lig_Missing_Atoms>  (21) 
['No']

>  <PDBbind_Resolution>  (21) 
nan

>  <PDBbind_Release_Year>  (21) 
nan

>  <PDBbind_Comment>  (21) 
nan

>  <PDBbind_Uniprot_Id>  (21) 
nan

>  <PDBbind_Protein_Name>  (21) 
nan

>  <PDBbind_-Logkd/Ki>  (21) 
nan

>  <PDBbind_Kd/Ki>  (21) 
nan

>  <PDBbind_Kd_Or_Ki_Or_Ic50>  (21) 
nan

>  <PDBbind_Relation>  (21) 
nan

>  <PDBbind_Value>  (21) 
nan

>  <PDBbind_Unit>  (21) 
nan

>  <PDBbind_Standard_Value>  (21) 
nan

>  <PDBbind_Standard_Unit>  (21) 
nan

$$$$

     RDKit          2D

 20 22  0  0  0  0  0  0  0  0999 V2000
    0.7500   -3.8971    0.0000 C   0  0  0  0  0  0  0  0  0  0  0  0
    1.5000   -2.5981    0.0000 C   0  0  0  0  0  0  0  0  0  0  0  0
    0.7500   -1.2990    0.0000 C   0  0  0  0  0  0  0  0  0  0  0  0
    1.5000    0.0000    0.0000 C   0  0  0  0  0  0  0  0  0  0  0  0
    0.7500    1.2990    0.0000 N   0  0  0  0  0  0  0  0  0  0  0  0
   -0.7500    1.2990    0.0000 C   0  0  0  0  0  0  0  0  0  0  0  0
   -1.5000    0.0000    0.0000 C   0  0  0  0  0  0  0  0  0  0  0  0
   -0.7500   -1.2990    0.0000 C   0  0  0  0  0  0  0  0  0  0  0  0
   -1.5000   -2.5981    0.0000 C   0  0  0  0  0  0  0  0  0  0  0  0
   -0.7500   -3.8971    0.0000 C   0  0  0  0  0  0  0  0  0  0  0  0
   -3.0000   -2.5981    0.0000 S   0  0  0  0  0  0  0  0  0  0  0  0
   -3.0000   -4.0981    0.0000 O   0  0  0  0  0  0  0  0  0  0  0  0
   -3.0000   -1.0981    0.0000 O   0  0  0  0  0  0  0  0  0  0  0  0
   -4.5000   -2.5981    0.0000 N   0  0  0  0  0  0  0  0  0  0  0  0
   -5.1508   -3.9495    0.0000 C   0  0  0  0  0  0  0  0  0  0  0  0
   -6.6132   -4.2833    0.0000 C   0  0  0  0  0  0  0  0  0  0  0  0
   -7.7860   -3.3481    0.0000 C   0  0  0  0  0  0  0  0  0  0  0  0
   -7.7860   -1.8481    0.0000 N   0  0  0  0  0  0  0  0  0  0  0  0
   -6.6132   -0.9128    0.0000 C   0  0  0  0  0  0  0  0  0  0  0  0
   -5.1508   -1.2466    0.0000 C   0  0  0  0  0  0  0  0  0  0  0  0
  1  2  2  0
  2  3  1  0
  3  4  2  0
  4  5  1  0
  5  6  2  0
  6  7  1  0
  7  8  2  0
  8  9  1  0
  9 10  2  0
  9 11  1  0
 11 12  2  0
 11 13  2  0
 11 14  1  0
 14 15  1  0
 15 16  1  0
 16 17  1  0
 17 18  1  0
 18 19  1  0
 19 20  1  0
 10  1  1  0
  8  3  1  0
 20 14  1  0
M  END
>  <Structure>  (22) 
5OK3

>  <Dataset>  (22) 
PDB

>  <Chain>  (22) 
A

>  <Spatial_Label>  (22) 
DFGin

>  <Dihedral_Label>  (22) 
ABAminus

>  <C_Helix_Label>  (22) 
Chelix-in

>  <Lig_ID>  (22) 
M77

>  <Lig_Entity_ID>  (22) 
5OK3_3

>  <Lig_Name>  (22) 
5-(1,4-DIAZEPAN-1-SULFONYL)ISOQUINOLINE

>  <Lig_Formula>  (22) 
C14H17N3O2S

>  <Lig_SMILES>  (22) 
c1cc2cnccc2c(c1)S(=O)(=O)N3CCCNCC3

>  <Lig_MW>  (22) 
291.369

>  <Lig_ChEMBL_ID>  (22) 
['CHEMBL38380']

>  <Lig_DrugBank_ID>  (22) 
['DB08162']

>  <Occurence>  (22) 
11

>  <Lig_SMILES_Uncharged>  (22) 
O=S(=O)(c1cccc2cnccc12)N1CCCNCC1

>  <Lig_Conformer>  (22) 
['NaN']

>  <Lig_Of_Interest>  (22) 
['Y']

>  <Lig_Completeness>  (22) 
[1.0]

>  <Lig_Occupancy>  (22) 
[1.0]

>  <Lig_RSCC>  (22) 
[0.982]

>  <Lig_RSR>  (22) 
[0.074]

>  <Lig_RMSZ_Bonds>  (22) 
[0.23]

>  <Lig_RMSZ_Angles>  (22) 
[0.47]

>  <Lig_Alt_Conf>  (22) 
0

>  <Title>  (22) 
Crystal Structure of the Protein-Kinase A catalytic subunit from Criteculus Griseus in complex with compounds RKp241 and Fasudil

>  <Nonpolymer_Entity_Count>  (22) 
1

>  <Protein_Entity_Count>  (22) 
2

>  <Exp_Method>  (22) 
X-Ray Diffraction

>  <Cryst_Method>  (22) 
Vapor Diffusion, Sitting Drop; 5 Mm Mes-Bis-Tris, 75 Mm Lithium Chloride,1 Mm Dtt, 0.1 Mm Sodium Edta, 0,25 Mm Mega 8, 0.7 Mm Peptidic Ligand, 5 Mm Fasudil X Hcl, 20 % V/V Methanol/Water In Reservoir

>  <Deposit_Date>  (22) 
2017-07-25

>  <Resolution>  (22) 
1.588

>  <DOI>  (22) 
https://doi.org/10.1002/cmdc.201800779

>  <Source_Organism>  (22) 
Cricetulus griseus

>  <R_Free>  (22) 
0.1716

>  <Keywords>  (22) 
Transferase

>  <REMARK_280>  (22) 
 Crystal Solvent Content, Vs (%): 57.64 Matthews Coefficient, Vm (Angstroms**3/Da): 2.90 Crystallization Conditions: 5 Mm Mes-Bis-Tris, 75 Mm Lithium Chloride,1 Mm Dtt, 0.1 Mm Sodium Edta, 0,25 Mm Mega 8, 0.7 Mm Peptidic Ligand, 5 Mm Fasudil X Hcl, 20 % V/V Methanol/Water In Reservoir, pH 6.9, Vapor Diffusion, Sitting Drop, Temperature 277.15K 

>  <REMARK_610>  (22) 
nan

>  <pH>  (22) 
6.9

>  <Cryst_Technique>  (22) 
co-crystallized

>  <Sequence>  (22) 
GHMGNAAAAKKGSEQESVKEFLAKAKEEFLKKWESPSQNTAQLDHFDRIKTLGTGSFGRVMLVKHKETGNHYAMKILDKQKVVKLKQIEHTLNEKRILQAVNFPFLVKLEFSFKDNSNLYMVMEYVPGGEMFSHLRRIGRFSEPHARFYAAQIVLTFEYLHSLDLIYRDLKPENLLIDQQGYIQVTDFGFAKRVKGRTWTLCGTPEYLAPEIILSKGYNKAVDWWALGVLIYEMAAGYPPFFADQPIQIYEKIVSGKVRFPSHFSSDLKDLLRNLLQVDLTKRFGNLKNGVNDIKNHKWFATTDWIAIYQRKVEAPFIPKFKGPGDTSNFDDYEEEEIRVSINEKCGKEFTEF

>  <Sequence_Length>  (22) 
353

>  <Mutation_Count>  (22) 
0

>  <Gene_Name>  (22) 
PKACA

>  <MW>  (22) 
41.194

>  <Name>  (22) 
cAMP-Dependent Protein Kinase Catalytic Subunit Alpha

>  <Mutations>  (22) 
nan

>  <EC_Number>  (22) 
2.7.11.11

>  <Peptidic_Inhibitor>  (22) 
True

>  <Lig_Missing_Atoms>  (22) 
['No']

>  <PDBbind_Resolution>  (22) 
nan

>  <PDBbind_Release_Year>  (22) 
nan

>  <PDBbind_Comment>  (22) 
nan

>  <PDBbind_Uniprot_Id>  (22) 
nan

>  <PDBbind_Protein_Name>  (22) 
nan

>  <PDBbind_-Logkd/Ki>  (22) 
nan

>  <PDBbind_Kd/Ki>  (22) 
nan

>  <PDBbind_Kd_Or_Ki_Or_Ic50>  (22) 
nan

>  <PDBbind_Relation>  (22) 
nan

>  <PDBbind_Value>  (22) 
nan

>  <PDBbind_Unit>  (22) 
nan

>  <PDBbind_Standard_Value>  (22) 
nan

>  <PDBbind_Standard_Unit>  (22) 
nan

$$$$

     RDKit          2D

 30 33  0  0  0  0  0  0  0  0999 V2000
   11.8403    0.1044    0.0000 B   0  0  0  0  0  0  0  0  0  0  0  0
   11.7282   -1.3914    0.0000 C   0  0  0  0  0  0  0  0  0  0  0  0
   12.9676   -2.2364    0.0000 C   0  0  0  0  0  0  0  0  0  0  0  0
   12.8555   -3.7322    0.0000 C   0  0  0  0  0  0  0  0  0  0  0  0
   11.5040   -4.3830    0.0000 C   0  0  0  0  0  0  0  0  0  0  0  0
   10.2647   -3.5380    0.0000 C   0  0  0  0  0  0  0  0  0  0  0  0
   10.3768   -2.0422    0.0000 C   0  0  0  0  0  0  0  0  0  0  0  0
    9.1374   -1.1973    0.0000 C   0  0  0  0  0  0  0  0  0  0  0  0
    7.7860   -1.8481    0.0000 N   0  0  0  0  0  0  0  0  0  0  0  0
    7.7860   -3.3481    0.0000 C   0  0  0  0  0  0  0  0  0  0  0  0
    6.6132   -4.2833    0.0000 C   0  0  0  0  0  0  0  0  0  0  0  0
    5.1508   -3.9495    0.0000 C   0  0  0  0  0  0  0  0  0  0  0  0
    4.5000   -2.5981    0.0000 N   0  0  0  0  0  0  0  0  0  0  0  0
    5.1508   -1.2466    0.0000 C   0  0  0  0  0  0  0  0  0  0  0  0
    6.6132   -0.9128    0.0000 C   0  0  0  0  0  0  0  0  0  0  0  0
    3.0000   -2.5981    0.0000 S   0  0  0  0  0  0  0  0  0  0  0  0
    3.0000   -4.0981    0.0000 O   0  0  0  0  0  0  0  0  0  0  0  0
    3.0000   -1.0981    0.0000 O   0  0  0  0  0  0  0  0  0  0  0  0
    1.5000   -2.5981    0.0000 C   0  0  0  0  0  0  0  0  0  0  0  0
    0.7500   -3.8971    0.0000 C   0  0  0  0  0  0  0  0  0  0  0  0
   -0.7500   -3.8971    0.0000 C   0  0  0  0  0  0  0  0  0  0  0  0
   -1.5000   -2.5981    0.0000 C   0  0  0  0  0  0  0  0  0  0  0  0
   -0.7500   -1.2990    0.0000 C   0  0  0  0  0  0  0  0  0  0  0  0
    0.7500   -1.2990    0.0000 C   0  0  0  0  0  0  0  0  0  0  0  0
    1.5000    0.0000    0.0000 C   0  0  0  0  0  0  0  0  0  0  0  0
    0.7500    1.2990    0.0000 C   0  0  0  0  0  0  0  0  0  0  0  0
   -0.7500    1.2990    0.0000 N   0  0  0  0  0  0  0  0  0  0  0  0
   -1.5000    0.0000    0.0000 C   0  0  0  0  0  0  0  0  0  0  0  0
   13.1918    0.7552    0.0000 O   0  0  0  0  0  0  0  0  0  0  0  0
   10.6010    0.9494    0.0000 O   0  0  0  0  0  0  0  0  0  0  0  0
  1  2  1  0
  2  3  2  0
  3  4  1  0
  4  5  2  0
  5  6  1  0
  6  7  2  0
  7  8  1  0
  8  9  1  0
  9 10  1  0
 10 11  1  0
 11 12  1  0
 12 13  1  0
 13 14  1  0
 14 15  1  0
 13 16  1  0
 16 17  2  0
 16 18  2  0
 16 19  1  0
 19 20  2  0
 20 21  1  0
 21 22  2  0
 22 23  1  0
 23 24  2  0
 24 25  1  0
 25 26  2  0
 26 27  1  0
 27 28  2  0
  1 29  1  0
  1 30  1  0
  7  2  1  0
 15  9  1  0
 24 19  1  0
 28 23  1  0
M  END
>  <Structure>  (23) 
5OL3

>  <Dataset>  (23) 
PDB

>  <Chain>  (23) 
A

>  <Spatial_Label>  (23) 
DFGin

>  <Dihedral_Label>  (23) 
ABAminus

>  <C_Helix_Label>  (23) 
Chelix-in

>  <Lig_ID>  (23) 
9LQ

>  <Lig_Entity_ID>  (23) 
5OL3_3

>  <Lig_Name>  (23) 
[2-[(4-isoquinolin-5-ylsulfonyl-1,4-diazepan-1-yl)methyl]phenyl]boronic acid

>  <Lig_Formula>  (23) 
C21H24BN3O4S

>  <Lig_SMILES>  (23) 
B(c1ccccc1CN2CCCN(CC2)S(=O)(=O)c3cccc4c3ccnc4)(O)O

>  <Lig_MW>  (23) 
425.309

>  <Lig_ChEMBL_ID>  (23) 
nan

>  <Lig_DrugBank_ID>  (23) 
nan

>  <Occurence>  (23) 
6

>  <Lig_SMILES_Uncharged>  (23) 
O=S(=O)(c1cccc2cnccc12)N1CCCN(Cc2ccccc2B(O)O)CC1

>  <Lig_Conformer>  (23) 
['NaN']

>  <Lig_Of_Interest>  (23) 
['Y']

>  <Lig_Completeness>  (23) 
[1.0]

>  <Lig_Occupancy>  (23) 
[1.0]

>  <Lig_RSCC>  (23) 
[0.96]

>  <Lig_RSR>  (23) 
[0.088]

>  <Lig_RMSZ_Bonds>  (23) 
[0.33]

>  <Lig_RMSZ_Angles>  (23) 
[0.8]

>  <Lig_Alt_Conf>  (23) 
0

>  <Title>  (23) 
Crystal Structure of the Protein-Kinase A catalytic subunit from Criteculus Griseus in complex with compounds RKp013 and RKp117

>  <Nonpolymer_Entity_Count>  (23) 
3

>  <Protein_Entity_Count>  (23) 
2

>  <Exp_Method>  (23) 
X-Ray Diffraction

>  <Cryst_Method>  (23) 
Vapor Diffusion, Sitting Drop; 100 Mm Mes-Bis-Tris, 75 Mm Lithium Chloride, 1 Mm Dtt, 0.1 Mm Sodium Edta, 0.25 Mm Mega 8, 0.7 Mm Peptidic Ligand, 5 Mm Rkp117, 17 % V/V Methanol/Water In Reservoir

>  <Deposit_Date>  (23) 
2017-07-26

>  <Resolution>  (23) 
1.58

>  <DOI>  (23) 
https://doi.org/10.1021/acsomega.8b02364

>  <Source_Organism>  (23) 
Cricetulus griseus

>  <R_Free>  (23) 
0.1986

>  <Keywords>  (23) 
Transferase

>  <REMARK_280>  (23) 
 Crystal Solvent Content, Vs (%): 51.84 Matthews Coefficient, Vm (Angstroms**3/Da): 2.55 Crystallization Conditions: 100 Mm Mes-Bis-Tris, 75 Mm Lithium Chloride, 1 Mm Dtt, 0.1 Mm Sodium Edta, 0.25 Mm Mega 8, 0.7 Mm Peptidic Ligand, 5 Mm Rkp117, 17 % V/V Methanol/Water In Reservoir, pH 6.9, Vapor Diffusion, Sitting Drop, Temperature 277.15K 

>  <REMARK_610>  (23) 
nan

>  <pH>  (23) 
6.9

>  <Cryst_Technique>  (23) 
co-crystallized

>  <Sequence>  (23) 
GHMGNAAAAKKGSEQESVKEFLAKAKEEFLKKWESPSQNTAQLDHFDRIKTLGTGSFGRVMLVKHKETGNHYAMKILDKQKVVKLKQIEHTLNEKRILQAVNFPFLVKLEFSFKDNSNLYMVMEYVPGGEMFSHLRRIGRFSEPHARFYAAQIVLTFEYLHSLDLIYRDLKPENLLIDQQGYIQVTDFGFAKRVKGRTWTLCGTPEYLAPEIILSKGYNKAVDWWALGVLIYEMAAGYPPFFADQPIQIYEKIVSGKVRFPSHFSSDLKDLLRNLLQVDLTKRFGNLKNGVNDIKNHKWFATTDWIAIYQRKVEAPFIPKFKGPGDTSNFDDYEEEEIRVSINEKCGKEFTEF

>  <Sequence_Length>  (23) 
353

>  <Mutation_Count>  (23) 
0

>  <Gene_Name>  (23) 
PKACA

>  <MW>  (23) 
41.194

>  <Name>  (23) 
cAMP-Dependent Protein Kinase Catalytic Subunit Alpha

>  <Mutations>  (23) 
nan

>  <EC_Number>  (23) 
2.7.11.11

>  <Peptidic_Inhibitor>  (23) 
True

>  <Lig_Missing_Atoms>  (23) 
['No']

>  <PDBbind_Resolution>  (23) 
nan

>  <PDBbind_Release_Year>  (23) 
nan

>  <PDBbind_Comment>  (23) 
nan

>  <PDBbind_Uniprot_Id>  (23) 
nan

>  <PDBbind_Protein_Name>  (23) 
nan

>  <PDBbind_-Logkd/Ki>  (23) 
nan

>  <PDBbind_Kd/Ki>  (23) 
nan

>  <PDBbind_Kd_Or_Ki_Or_Ic50>  (23) 
nan

>  <PDBbind_Relation>  (23) 
nan

>  <PDBbind_Value>  (23) 
nan

>  <PDBbind_Unit>  (23) 
nan

>  <PDBbind_Standard_Value>  (23) 
nan

>  <PDBbind_Standard_Unit>  (23) 
nan

$$$$

     RDKit          2D

 30 33  0  0  0  0  0  0  0  0999 V2000
   11.8403    0.1044    0.0000 B   0  0  0  0  0  0  0  0  0  0  0  0
   11.7282   -1.3914    0.0000 C   0  0  0  0  0  0  0  0  0  0  0  0
   12.9676   -2.2364    0.0000 C   0  0  0  0  0  0  0  0  0  0  0  0
   12.8555   -3.7322    0.0000 C   0  0  0  0  0  0  0  0  0  0  0  0
   11.5040   -4.3830    0.0000 C   0  0  0  0  0  0  0  0  0  0  0  0
   10.2647   -3.5380    0.0000 C   0  0  0  0  0  0  0  0  0  0  0  0
   10.3768   -2.0422    0.0000 C   0  0  0  0  0  0  0  0  0  0  0  0
    9.1374   -1.1973    0.0000 C   0  0  0  0  0  0  0  0  0  0  0  0
    7.7860   -1.8481    0.0000 N   0  0  0  0  0  0  0  0  0  0  0  0
    7.7860   -3.3481    0.0000 C   0  0  0  0  0  0  0  0  0  0  0  0
    6.6132   -4.2833    0.0000 C   0  0  0  0  0  0  0  0  0  0  0  0
    5.1508   -3.9495    0.0000 C   0  0  0  0  0  0  0  0  0  0  0  0
    4.5000   -2.5981    0.0000 N   0  0  0  0  0  0  0  0  0  0  0  0
    5.1508   -1.2466    0.0000 C   0  0  0  0  0  0  0  0  0  0  0  0
    6.6132   -0.9128    0.0000 C   0  0  0  0  0  0  0  0  0  0  0  0
    3.0000   -2.5981    0.0000 S   0  0  0  0  0  0  0  0  0  0  0  0
    3.0000   -4.0981    0.0000 O   0  0  0  0  0  0  0  0  0  0  0  0
    3.0000   -1.0981    0.0000 O   0  0  0  0  0  0  0  0  0  0  0  0
    1.5000   -2.5981    0.0000 C   0  0  0  0  0  0  0  0  0  0  0  0
    0.7500   -3.8971    0.0000 C   0  0  0  0  0  0  0  0  0  0  0  0
   -0.7500   -3.8971    0.0000 C   0  0  0  0  0  0  0  0  0  0  0  0
   -1.5000   -2.5981    0.0000 C   0  0  0  0  0  0  0  0  0  0  0  0
   -0.7500   -1.2990    0.0000 C   0  0  0  0  0  0  0  0  0  0  0  0
    0.7500   -1.2990    0.0000 C   0  0  0  0  0  0  0  0  0  0  0  0
    1.5000    0.0000    0.0000 C   0  0  0  0  0  0  0  0  0  0  0  0
    0.7500    1.2990    0.0000 C   0  0  0  0  0  0  0  0  0  0  0  0
   -0.7500    1.2990    0.0000 N   0  0  0  0  0  0  0  0  0  0  0  0
   -1.5000    0.0000    0.0000 C   0  0  0  0  0  0  0  0  0  0  0  0
   13.1918    0.7552    0.0000 O   0  0  0  0  0  0  0  0  0  0  0  0
   10.6010    0.9494    0.0000 O   0  0  0  0  0  0  0  0  0  0  0  0
  1  2  1  0
  2  3  2  0
  3  4  1  0
  4  5  2  0
  5  6  1  0
  6  7  2  0
  7  8  1  0
  8  9  1  0
  9 10  1  0
 10 11  1  0
 11 12  1  0
 12 13  1  0
 13 14  1  0
 14 15  1  0
 13 16  1  0
 16 17  2  0
 16 18  2  0
 16 19  1  0
 19 20  2  0
 20 21  1  0
 21 22  2  0
 22 23  1  0
 23 24  2  0
 24 25  1  0
 25 26  2  0
 26 27  1  0
 27 28  2  0
  1 29  1  0
  1 30  1  0
  7  2  1  0
 15  9  1  0
 24 19  1  0
 28 23  1  0
M  END
>  <Structure>  (24) 
5OT3

>  <Dataset>  (24) 
PDB

>  <Chain>  (24) 
A

>  <Spatial_Label>  (24) 
DFGin

>  <Dihedral_Label>  (24) 
ABAminus

>  <C_Helix_Label>  (24) 
Chelix-in

>  <Lig_ID>  (24) 
9LQ

>  <Lig_Entity_ID>  (24) 
5OT3_3

>  <Lig_Name>  (24) 
[2-[(4-isoquinolin-5-ylsulfonyl-1,4-diazepan-1-yl)methyl]phenyl]boronic acid

>  <Lig_Formula>  (24) 
C21H24BN3O4S

>  <Lig_SMILES>  (24) 
B(c1ccccc1CN2CCCN(CC2)S(=O)(=O)c3cccc4c3ccnc4)(O)O

>  <Lig_MW>  (24) 
425.309

>  <Lig_ChEMBL_ID>  (24) 
nan

>  <Lig_DrugBank_ID>  (24) 
nan

>  <Occurence>  (24) 
6

>  <Lig_SMILES_Uncharged>  (24) 
O=S(=O)(c1cccc2cnccc12)N1CCCN(Cc2ccccc2B(O)O)CC1

>  <Lig_Conformer>  (24) 
['NaN']

>  <Lig_Of_Interest>  (24) 
['Y']

>  <Lig_Completeness>  (24) 
[1.0]

>  <Lig_Occupancy>  (24) 
[1.0]

>  <Lig_RSCC>  (24) 
[0.931]

>  <Lig_RSR>  (24) 
[0.101]

>  <Lig_RMSZ_Bonds>  (24) 
[0.51]

>  <Lig_RMSZ_Angles>  (24) 
[1.23]

>  <Lig_Alt_Conf>  (24) 
0

>  <Title>  (24) 
Crystal Structure of the Protein-Kinase A catalytic subunit from Criteculus Griseus in complex with compounds RKp191 and RKp117

>  <Nonpolymer_Entity_Count>  (24) 
4

>  <Protein_Entity_Count>  (24) 
2

>  <Exp_Method>  (24) 
X-Ray Diffraction

>  <Cryst_Method>  (24) 
Vapor Diffusion, Sitting Drop; 100 Mm Mes-Bis-Tris, 75 Mm Lithium Chloride, 1 Mm Dtt, 0.1 Mm Sodium Edta, 0.25 Mm Mega 8, 0.7 Mm Peptidic Ligand, 5 Mm Rkp117, 20 % V/V Methanol/Water In Reservoir

>  <Deposit_Date>  (24) 
2017-08-19

>  <Resolution>  (24) 
2.04

>  <DOI>  (24) 
https://doi.org/10.1021/acsomega.8b02364

>  <Source_Organism>  (24) 
Cricetulus griseus

>  <R_Free>  (24) 
0.2275

>  <Keywords>  (24) 
Transferase

>  <REMARK_280>  (24) 
 Crystal Solvent Content, Vs (%): 49.07 Matthews Coefficient, Vm (Angstroms**3/Da): 2.41 Crystallization Conditions: 100 Mm Mes-Bis-Tris, 75 Mm Lithium Chloride, 1 Mm Dtt, 0.1 Mm Sodium Edta, 0.25 Mm Mega 8, 0.7 Mm Peptidic Ligand, 5 Mm Rkp117, 20 % V/V Methanol/Water In Reservoir, pH 6.9, Vapor Diffusion, Sitting Drop, Temperature 277.15K 

>  <REMARK_610>  (24) 
  RIP D 101 

>  <pH>  (24) 
6.9

>  <Cryst_Technique>  (24) 
co-crystallized

>  <Sequence>  (24) 
GHMGNAAAAKKGSEQESVKEFLAKAKEEFLKKWESPSQNTAQLDHFDRIKTLGTGSFGRVMLVKHKETGNHYAMKILDKQKVVKLKQIEHTLNEKRILQAVNFPFLVKLEFSFKDNSNLYMVMEYVPGGEMFSHLRRIGRFSEPHARFYAAQIVLTFEYLHSLDLIYRDLKPENLLIDQQGYIQVTDFGFAKRVKGRTWTLCGTPEYLAPEIILSKGYNKAVDWWALGVLIYEMAAGYPPFFADQPIQIYEKIVSGKVRFPSHFSSDLKDLLRNLLQVDLTKRFGNLKNGVNDIKNHKWFATTDWIAIYQRKVEAPFIPKFKGPGDTSNFDDYEEEEIRVSINEKCGKEFTEF

>  <Sequence_Length>  (24) 
353

>  <Mutation_Count>  (24) 
0

>  <Gene_Name>  (24) 
PKACA

>  <MW>  (24) 
41.194

>  <Name>  (24) 
cAMP-Dependent Protein Kinase Catalytic Subunit Alpha

>  <Mutations>  (24) 
nan

>  <EC_Number>  (24) 
2.7.11.11

>  <Peptidic_Inhibitor>  (24) 
True

>  <Lig_Missing_Atoms>  (24) 
['No']

>  <PDBbind_Resolution>  (24) 
nan

>  <PDBbind_Release_Year>  (24) 
nan

>  <PDBbind_Comment>  (24) 
nan

>  <PDBbind_Uniprot_Id>  (24) 
nan

>  <PDBbind_Protein_Name>  (24) 
nan

>  <PDBbind_-Logkd/Ki>  (24) 
nan

>  <PDBbind_Kd/Ki>  (24) 
nan

>  <PDBbind_Kd_Or_Ki_Or_Ic50>  (24) 
nan

>  <PDBbind_Relation>  (24) 
nan

>  <PDBbind_Value>  (24) 
nan

>  <PDBbind_Unit>  (24) 
nan

>  <PDBbind_Standard_Value>  (24) 
nan

>  <PDBbind_Standard_Unit>  (24) 
nan

$$$$

     RDKit          2D

 27 29  0  0  0  0  0  0  0  0999 V2000
    7.5000    2.5981    0.0000 B   0  0  0  0  0  0  0  0  0  0  0  0
    9.0000    2.5981    0.0000 C   0  0  0  0  0  0  0  0  0  0  0  0
    9.7500    3.8971    0.0000 C   0  0  0  0  0  0  0  0  0  0  0  0
   11.2500    3.8971    0.0000 C   0  0  0  0  0  0  0  0  0  0  0  0
   12.0000    2.5981    0.0000 C   0  0  0  0  0  0  0  0  0  0  0  0
   11.2500    1.2990    0.0000 C   0  0  0  0  0  0  0  0  0  0  0  0
    9.7500    1.2990    0.0000 C   0  0  0  0  0  0  0  0  0  0  0  0
    9.0000    0.0000    0.0000 C   0  0  0  0  0  0  0  0  0  0  0  0
    7.5000    0.0000    0.0000 N   0  0  0  0  0  0  0  0  0  0  0  0
    6.7500   -1.2990    0.0000 C   0  0  0  0  0  0  0  0  0  0  0  0
    5.2500   -1.2990    0.0000 C   0  0  0  0  0  0  0  0  0  0  0  0
    4.5000   -2.5981    0.0000 N   0  0  0  0  0  0  0  0  0  0  0  0
    3.0000   -2.5981    0.0000 S   0  0  0  0  0  0  0  0  0  0  0  0
    3.0000   -4.0981    0.0000 O   0  0  0  0  0  0  0  0  0  0  0  0
    3.0000   -1.0981    0.0000 O   0  0  0  0  0  0  0  0  0  0  0  0
    1.5000   -2.5981    0.0000 C   0  0  0  0  0  0  0  0  0  0  0  0
    0.7500   -3.8971    0.0000 C   0  0  0  0  0  0  0  0  0  0  0  0
   -0.7500   -3.8971    0.0000 C   0  0  0  0  0  0  0  0  0  0  0  0
   -1.5000   -2.5981    0.0000 C   0  0  0  0  0  0  0  0  0  0  0  0
   -0.7500   -1.2990    0.0000 C   0  0  0  0  0  0  0  0  0  0  0  0
    0.7500   -1.2990    0.0000 C   0  0  0  0  0  0  0  0  0  0  0  0
    1.5000    0.0000    0.0000 C   0  0  0  0  0  0  0  0  0  0  0  0
    0.7500    1.2990    0.0000 C   0  0  0  0  0  0  0  0  0  0  0  0
   -0.7500    1.2990    0.0000 N   0  0  0  0  0  0  0  0  0  0  0  0
   -1.5000    0.0000    0.0000 C   0  0  0  0  0  0  0  0  0  0  0  0
    6.7500    3.8971    0.0000 O   0  0  0  0  0  0  0  0  0  0  0  0
    6.7500    1.2990    0.0000 O   0  0  0  0  0  0  0  0  0  0  0  0
  1  2  1  0
  2  3  2  0
  3  4  1  0
  4  5  2  0
  5  6  1  0
  6  7  2  0
  7  8  1  0
  8  9  1  0
  9 10  1  0
 10 11  1  0
 11 12  1  0
 12 13  1  0
 13 14  2  0
 13 15  2  0
 13 16  1  0
 16 17  2  0
 17 18  1  0
 18 19  2  0
 19 20  1  0
 20 21  2  0
 21 22  1  0
 22 23  2  0
 23 24  1  0
 24 25  2  0
  1 26  1  0
  1 27  1  0
  7  2  1  0
 21 16  1  0
 25 20  1  0
M  END
>  <Structure>  (25) 
5OTG

>  <Dataset>  (25) 
PDB

>  <Chain>  (25) 
A

>  <Spatial_Label>  (25) 
DFGin

>  <Dihedral_Label>  (25) 
ABAminus

>  <C_Helix_Label>  (25) 
Chelix-in

>  <Lig_ID>  (25) 
AO8

>  <Lig_Entity_ID>  (25) 
5OTG_3

>  <Lig_Name>  (25) 
[2-[[2-(isoquinolin-5-ylsulfonylamino)ethylamino]methyl]phenyl]boronic acid

>  <Lig_Formula>  (25) 
C18H20BN3O4S

>  <Lig_SMILES>  (25) 
B(c1ccccc1CNCCNS(=O)(=O)c2cccc3c2ccnc3)(O)O

>  <Lig_MW>  (25) 
385.245

>  <Lig_ChEMBL_ID>  (25) 
nan

>  <Lig_DrugBank_ID>  (25) 
nan

>  <Occurence>  (25) 
3

>  <Lig_SMILES_Uncharged>  (25) 
O=S(=O)(NCCNCc1ccccc1B(O)O)c1cccc2cnccc12

>  <Lig_Conformer>  (25) 
['NaN']

>  <Lig_Of_Interest>  (25) 
['Y']

>  <Lig_Completeness>  (25) 
[0.8889]

>  <Lig_Occupancy>  (25) 
[1.0]

>  <Lig_RSCC>  (25) 
[0.92]

>  <Lig_RSR>  (25) 
[0.129]

>  <Lig_RMSZ_Bonds>  (25) 
[0.36]

>  <Lig_RMSZ_Angles>  (25) 
[0.5]

>  <Lig_Alt_Conf>  (25) 
0

>  <Title>  (25) 
Crystal Structure of the Protein-Kinase A catalytic subunit from Criteculus Griseus in complex with compounds RKp013 and RKp190

>  <Nonpolymer_Entity_Count>  (25) 
1

>  <Protein_Entity_Count>  (25) 
2

>  <Exp_Method>  (25) 
X-Ray Diffraction

>  <Cryst_Method>  (25) 
Vapor Diffusion, Sitting Drop; 100 Mm Mes-Bis-Tris, 75 Mm Lithium Chloride, 1 Mm Dtt, 0.1 Mm Sodium Edta, 0.25 Mm Mega 8, 0.7 Mm Peptidic Ligand, 5 Mm Rkp190, 18 % V/V Methanol/Water In Reservoir

>  <Deposit_Date>  (25) 
2017-08-21

>  <Resolution>  (25) 
1.73

>  <DOI>  (25) 
nan

>  <Source_Organism>  (25) 
Cricetulus griseus

>  <R_Free>  (25) 
0.2063

>  <Keywords>  (25) 
Transferase

>  <REMARK_280>  (25) 
 Crystal Solvent Content, Vs (%): 58.93 Matthews Coefficient, Vm (Angstroms**3/Da): 2.99 Crystallization Conditions: 100 Mm Mes-Bis-Tris, 75 Mm Lithium Chloride, 1 Mm Dtt, 0.1 Mm Sodium Edta, 0.25 Mm Mega 8, 0.7 Mm Peptidic Ligand, 5 Mm Rkp190, 18 % V/V Methanol/Water In Reservoir, pH 6.9, Vapor Diffusion, Sitting Drop, Temperature 277.15K 

>  <REMARK_610>  (25) 
  AO8 A 401 

>  <pH>  (25) 
6.9

>  <Cryst_Technique>  (25) 
nan

>  <Sequence>  (25) 
GHMGNAAAAKKGSEQESVKEFLAKAKEEFLKKWESPSQNTAQLDHFDRIKTLGTGSFGRVMLVKHKETGNHYAMKILDKQKVVKLKQIEHTLNEKRILQAVNFPFLVKLEFSFKDNSNLYMVMEYVPGGEMFSHLRRIGRFSEPHARFYAAQIVLTFEYLHSLDLIYRDLKPENLLIDQQGYIQVTDFGFAKRVKGRTWTLCGTPEYLAPEIILSKGYNKAVDWWALGVLIYEMAAGYPPFFADQPIQIYEKIVSGKVRFPSHFSSDLKDLLRNLLQVDLTKRFGNLKNGVNDIKNHKWFATTDWIAIYQRKVEAPFIPKFKGPGDTSNFDDYEEEEIRVSINEKCGKEFTEF

>  <Sequence_Length>  (25) 
353

>  <Mutation_Count>  (25) 
0

>  <Gene_Name>  (25) 
PKACA

>  <MW>  (25) 
41.194

>  <Name>  (25) 
cAMP-Dependent Protein Kinase Catalytic Subunit Alpha

>  <Mutations>  (25) 
nan

>  <EC_Number>  (25) 
2.7.11.11

>  <Peptidic_Inhibitor>  (25) 
True

>  <Lig_Missing_Atoms>  (25) 
['No']

>  <PDBbind_Resolution>  (25) 
nan

>  <PDBbind_Release_Year>  (25) 
nan

>  <PDBbind_Comment>  (25) 
nan

>  <PDBbind_Uniprot_Id>  (25) 
nan

>  <PDBbind_Protein_Name>  (25) 
nan

>  <PDBbind_-Logkd/Ki>  (25) 
nan

>  <PDBbind_Kd/Ki>  (25) 
nan

>  <PDBbind_Kd_Or_Ki_Or_Ic50>  (25) 
nan

>  <PDBbind_Relation>  (25) 
nan

>  <PDBbind_Value>  (25) 
nan

>  <PDBbind_Unit>  (25) 
nan

>  <PDBbind_Standard_Value>  (25) 
nan

>  <PDBbind_Standard_Unit>  (25) 
nan

$$$$

     RDKit          2D

 27 29  0  0  0  0  0  0  0  0999 V2000
    7.5000    2.5981    0.0000 B   0  0  0  0  0  0  0  0  0  0  0  0
    9.0000    2.5981    0.0000 C   0  0  0  0  0  0  0  0  0  0  0  0
    9.7500    3.8971    0.0000 C   0  0  0  0  0  0  0  0  0  0  0  0
   11.2500    3.8971    0.0000 C   0  0  0  0  0  0  0  0  0  0  0  0
   12.0000    2.5981    0.0000 C   0  0  0  0  0  0  0  0  0  0  0  0
   11.2500    1.2990    0.0000 C   0  0  0  0  0  0  0  0  0  0  0  0
    9.7500    1.2990    0.0000 C   0  0  0  0  0  0  0  0  0  0  0  0
    9.0000    0.0000    0.0000 C   0  0  0  0  0  0  0  0  0  0  0  0
    7.5000    0.0000    0.0000 N   0  0  0  0  0  0  0  0  0  0  0  0
    6.7500   -1.2990    0.0000 C   0  0  0  0  0  0  0  0  0  0  0  0
    5.2500   -1.2990    0.0000 C   0  0  0  0  0  0  0  0  0  0  0  0
    4.5000   -2.5981    0.0000 N   0  0  0  0  0  0  0  0  0  0  0  0
    3.0000   -2.5981    0.0000 S   0  0  0  0  0  0  0  0  0  0  0  0
    3.0000   -4.0981    0.0000 O   0  0  0  0  0  0  0  0  0  0  0  0
    3.0000   -1.0981    0.0000 O   0  0  0  0  0  0  0  0  0  0  0  0
    1.5000   -2.5981    0.0000 C   0  0  0  0  0  0  0  0  0  0  0  0
    0.7500   -3.8971    0.0000 C   0  0  0  0  0  0  0  0  0  0  0  0
   -0.7500   -3.8971    0.0000 C   0  0  0  0  0  0  0  0  0  0  0  0
   -1.5000   -2.5981    0.0000 C   0  0  0  0  0  0  0  0  0  0  0  0
   -0.7500   -1.2990    0.0000 C   0  0  0  0  0  0  0  0  0  0  0  0
    0.7500   -1.2990    0.0000 C   0  0  0  0  0  0  0  0  0  0  0  0
    1.5000    0.0000    0.0000 C   0  0  0  0  0  0  0  0  0  0  0  0
    0.7500    1.2990    0.0000 C   0  0  0  0  0  0  0  0  0  0  0  0
   -0.7500    1.2990    0.0000 N   0  0  0  0  0  0  0  0  0  0  0  0
   -1.5000    0.0000    0.0000 C   0  0  0  0  0  0  0  0  0  0  0  0
    6.7500    3.8971    0.0000 O   0  0  0  0  0  0  0  0  0  0  0  0
    6.7500    1.2990    0.0000 O   0  0  0  0  0  0  0  0  0  0  0  0
  1  2  1  0
  2  3  2  0
  3  4  1  0
  4  5  2  0
  5  6  1  0
  6  7  2  0
  7  8  1  0
  8  9  1  0
  9 10  1  0
 10 11  1  0
 11 12  1  0
 12 13  1  0
 13 14  2  0
 13 15  2  0
 13 16  1  0
 16 17  2  0
 17 18  1  0
 18 19  2  0
 19 20  1  0
 20 21  2  0
 21 22  1  0
 22 23  2  0
 23 24  1  0
 24 25  2  0
  1 26  1  0
  1 27  1  0
  7  2  1  0
 21 16  1  0
 25 20  1  0
M  END
>  <Structure>  (26) 
5OUC

>  <Dataset>  (26) 
PDB

>  <Chain>  (26) 
A

>  <Spatial_Label>  (26) 
DFGin

>  <Dihedral_Label>  (26) 
ABAminus

>  <C_Helix_Label>  (26) 
Chelix-in

>  <Lig_ID>  (26) 
AO8

>  <Lig_Entity_ID>  (26) 
5OUC_3

>  <Lig_Name>  (26) 
[2-[[2-(isoquinolin-5-ylsulfonylamino)ethylamino]methyl]phenyl]boronic acid

>  <Lig_Formula>  (26) 
C18H20BN3O4S

>  <Lig_SMILES>  (26) 
B(c1ccccc1CNCCNS(=O)(=O)c2cccc3c2ccnc3)(O)O

>  <Lig_MW>  (26) 
385.245

>  <Lig_ChEMBL_ID>  (26) 
nan

>  <Lig_DrugBank_ID>  (26) 
nan

>  <Occurence>  (26) 
3

>  <Lig_SMILES_Uncharged>  (26) 
O=S(=O)(NCCNCc1ccccc1B(O)O)c1cccc2cnccc12

>  <Lig_Conformer>  (26) 
['NaN']

>  <Lig_Of_Interest>  (26) 
['Y']

>  <Lig_Completeness>  (26) 
[0.8889]

>  <Lig_Occupancy>  (26) 
[1.0]

>  <Lig_RSCC>  (26) 
[0.961]

>  <Lig_RSR>  (26) 
[0.103]

>  <Lig_RMSZ_Bonds>  (26) 
[0.39]

>  <Lig_RMSZ_Angles>  (26) 
[0.52]

>  <Lig_Alt_Conf>  (26) 
0

>  <Title>  (26) 
Crystal Structure of the Protein-Kinase A catalytic subunit from Criteculus Griseus in complex with compounds RKp191 and RKp190

>  <Nonpolymer_Entity_Count>  (26) 
3

>  <Protein_Entity_Count>  (26) 
2

>  <Exp_Method>  (26) 
X-Ray Diffraction

>  <Cryst_Method>  (26) 
Vapor Diffusion, Sitting Drop; 100 Mm Mes-Bis-Tris, 75 Mm Lithium Chloride, 1 Mm Dtt, 0.1 Mm Sodium Edta, 0.25 Mm Mega 8, 0.7 Mm Peptidic Ligand, 5 Mm Rkp190, 20 % V/V Methanol/Water In Reservoir

>  <Deposit_Date>  (26) 
2017-08-23

>  <Resolution>  (26) 
1.46

>  <DOI>  (26) 
nan

>  <Source_Organism>  (26) 
Cricetulus griseus

>  <R_Free>  (26) 
0.1749

>  <Keywords>  (26) 
Transferase

>  <REMARK_280>  (26) 
 Crystal Solvent Content, Vs (%): 54.40 Matthews Coefficient, Vm (Angstroms**3/Da): 2.90 Crystallization Conditions: 100 Mm Mes-Bis-Tris, 75 Mm Lithium Chloride, 1 Mm Dtt, 0.1 Mm Sodium Edta, 0.25 Mm Mega 8, 0.7 Mm Peptidic Ligand, 5 Mm Rkp190, 20 % V/V Methanol/Water In Reservoir, pH 6.9, Vapor Diffusion, Sitting Drop, Temperature 277.15K 

>  <REMARK_610>  (26) 
  AO8 A 401 RIP E 101 

>  <pH>  (26) 
6.9

>  <Cryst_Technique>  (26) 
nan

>  <Sequence>  (26) 
GHMGNAAAAKKGSEQESVKEFLAKAKEEFLKKWESPSQNTAQLDHFDRIKTLGTGSFGRVMLVKHKETGNHYAMKILDKQKVVKLKQIEHTLNEKRILQAVNFPFLVKLEFSFKDNSNLYMVMEYVPGGEMFSHLRRIGRFSEPHARFYAAQIVLTFEYLHSLDLIYRDLKPENLLIDQQGYIQVTDFGFAKRVKGRTWTLCGTPEYLAPEIILSKGYNKAVDWWALGVLIYEMAAGYPPFFADQPIQIYEKIVSGKVRFPSHFSSDLKDLLRNLLQVDLTKRFGNLKNGVNDIKNHKWFATTDWIAIYQRKVEAPFIPKFKGPGDTSNFDDYEEEEIRVSINEKCGKEFTEF

>  <Sequence_Length>  (26) 
353

>  <Mutation_Count>  (26) 
0

>  <Gene_Name>  (26) 
PKACA

>  <MW>  (26) 
41.194

>  <Name>  (26) 
cAMP-Dependent Protein Kinase Catalytic Subunit Alpha

>  <Mutations>  (26) 
nan

>  <EC_Number>  (26) 
2.7.11.11

>  <Peptidic_Inhibitor>  (26) 
True

>  <Lig_Missing_Atoms>  (26) 
['No']

>  <PDBbind_Resolution>  (26) 
nan

>  <PDBbind_Release_Year>  (26) 
nan

>  <PDBbind_Comment>  (26) 
nan

>  <PDBbind_Uniprot_Id>  (26) 
nan

>  <PDBbind_Protein_Name>  (26) 
nan

>  <PDBbind_-Logkd/Ki>  (26) 
nan

>  <PDBbind_Kd/Ki>  (26) 
nan

>  <PDBbind_Kd_Or_Ki_Or_Ic50>  (26) 
nan

>  <PDBbind_Relation>  (26) 
nan

>  <PDBbind_Value>  (26) 
nan

>  <PDBbind_Unit>  (26) 
nan

>  <PDBbind_Standard_Value>  (26) 
nan

>  <PDBbind_Standard_Unit>  (26) 
nan

$$$$

     RDKit          2D

 31 35  0  0  0  0  0  0  0  0999 V2000
   -2.5981   -9.6073    0.0000 C   0  0  0  0  0  0  0  0  0  0  0  0
   -2.5981   -8.1073    0.0000 C   0  0  0  0  0  0  0  0  0  0  0  0
   -1.2990   -7.3573    0.0000 C   0  0  0  0  0  0  0  0  0  0  0  0
    0.0000   -8.1073    0.0000 C   0  0  0  0  0  0  0  0  0  0  0  0
    0.0000   -9.6073    0.0000 C   0  0  0  0  0  0  0  0  0  0  0  0
   -1.2990  -10.3573    0.0000 C   0  0  0  0  0  0  0  0  0  0  0  0
    1.2990  -10.3573    0.0000 O   0  0  0  0  0  0  0  0  0  0  0  0
   -1.2990   -5.8573    0.0000 C   0  0  0  0  0  0  0  0  0  0  0  0
    0.0000   -5.1073    0.0000 N   0  0  0  0  0  0  0  0  0  0  0  0
    1.2990   -5.8573    0.0000 C   0  0  0  0  0  0  0  0  0  0  0  0
    1.2990   -7.3573    0.0000 C   0  0  0  0  0  0  0  0  0  0  0  0
    2.5981   -8.1073    0.0000 N   0  0  0  0  0  0  0  0  0  0  0  0
    3.9684   -7.4972    0.0000 C   0  0  0  0  0  0  0  0  0  0  0  0
    4.9721   -8.6119    0.0000 C   0  0  0  0  0  0  0  0  0  0  0  0
    4.2221   -9.9110    0.0000 C   0  0  0  0  0  0  0  0  0  0  0  0
    2.7549   -9.5991    0.0000 C   0  0  0  0  0  0  0  0  0  0  0  0
    0.0000   -3.6073    0.0000 C   0  0  0  0  0  0  0  0  0  0  0  0
    1.2135   -2.7256    0.0000 N   0  0  0  0  0  0  0  0  0  0  0  0
    0.7500   -1.2990    0.0000 C   0  0  0  0  0  0  0  0  0  0  0  0
    1.5000    0.0000    0.0000 C   0  0  0  0  0  0  0  0  0  0  0  0
    0.7500    1.2990    0.0000 C   0  0  0  0  0  0  0  0  0  0  0  0
   -0.7500    1.2990    0.0000 C   0  0  0  0  0  0  0  0  0  0  0  0
   -1.5000    0.0000    0.0000 C   0  0  0  0  0  0  0  0  0  0  0  0
   -0.7500   -1.2990    0.0000 C   0  0  0  0  0  0  0  0  0  0  0  0
   -1.2135   -2.7256    0.0000 S   0  0  0  0  0  0  0  0  0  0  0  0
   -1.5000    2.5981    0.0000 C   0  0  0  0  0  0  0  0  0  0  0  0
   -0.7500    3.8971    0.0000 C   0  0  0  0  0  0  0  0  0  0  0  0
   -1.5000    5.1962    0.0000 C   0  0  0  0  0  0  0  0  0  0  0  0
   -3.0000    5.1962    0.0000 N   0  0  0  0  0  0  0  0  0  0  0  0
   -3.7500    3.8971    0.0000 C   0  0  0  0  0  0  0  0  0  0  0  0
   -3.0000    2.5981    0.0000 C   0  0  0  0  0  0  0  0  0  0  0  0
  1  2  2  0
  2  3  1  0
  3  4  2  0
  4  5  1  0
  5  6  2  0
  5  7  1  0
  3  8  1  0
  8  9  1  0
  9 10  1  0
 10 11  1  0
 11 12  1  0
 12 13  1  0
 13 14  1  0
 14 15  1  0
 15 16  1  0
  9 17  1  0
 17 18  2  0
 18 19  1  0
 19 20  2  0
 20 21  1  0
 21 22  2  0
 22 23  1  0
 23 24  2  0
 24 25  1  0
 22 26  1  0
 26 27  2  0
 27 28  1  0
 28 29  2  0
 29 30  1  0
 30 31  2  0
  6  1  1  0
 16 12  1  0
 25 17  1  0
 24 19  1  0
 31 26  1  0
M  END
>  <Structure>  (27) 
5VIB

>  <Dataset>  (27) 
PDB

>  <Chain>  (27) 
A

>  <Spatial_Label>  (27) 
DFGin

>  <Dihedral_Label>  (27) 
ABAminus

>  <C_Helix_Label>  (27) 
Chelix-in

>  <Lig_ID>  (27) 
9D1

>  <Lig_Entity_ID>  (27) 
5VIB_3

>  <Lig_Name>  (27) 
3-({[6-(pyridin-4-yl)-1,3-benzothiazol-2-yl][2-(pyrrolidin-1-yl)ethyl]amino}methyl)phenol

>  <Lig_Formula>  (27) 
C25H26N4OS

>  <Lig_SMILES>  (27) 
c1cc(cc(c1)O)CN(CCN2CCCC2)c3nc4ccc(cc4s3)c5ccncc5

>  <Lig_MW>  (27) 
430.565

>  <Lig_ChEMBL_ID>  (27) 
nan

>  <Lig_DrugBank_ID>  (27) 
nan

>  <Occurence>  (27) 
1

>  <Lig_SMILES_Uncharged>  (27) 
Oc1cccc(CN(CCN2CCCC2)c2nc3ccc(-c4ccncc4)cc3s2)c1

>  <Lig_Conformer>  (27) 
['NaN']

>  <Lig_Of_Interest>  (27) 
['Y']

>  <Lig_Completeness>  (27) 
[1.0]

>  <Lig_Occupancy>  (27) 
[1.0]

>  <Lig_RSCC>  (27) 
[0.908]

>  <Lig_RSR>  (27) 
[0.143]

>  <Lig_RMSZ_Bonds>  (27) 
[1.53]

>  <Lig_RMSZ_Angles>  (27) 
[1.41]

>  <Lig_Alt_Conf>  (27) 
0

>  <Title>  (27) 
Crystal structure of Protein Kinase A in complex with the PKI peptide and Aminobenzothiazole based inhibitors

>  <Nonpolymer_Entity_Count>  (27) 
1

>  <Protein_Entity_Count>  (27) 
2

>  <Exp_Method>  (27) 
X-Ray Diffraction

>  <Cryst_Method>  (27) 
Vapor Diffusion; 15% Methanol

>  <Deposit_Date>  (27) 
2017-04-14

>  <Resolution>  (27) 
2.37

>  <DOI>  (27) 
https://doi.org/10.1002/cbic.201700547

>  <Source_Organism>  (27) 
Bos taurus

>  <R_Free>  (27) 
0.276

>  <Keywords>  (27) 
Transferase

>  <REMARK_280>  (27) 
 Crystal Solvent Content, Vs (%): 49.07 Matthews Coefficient, Vm (Angstroms**3/Da): 2.42 Crystallization Conditions: 15% Methanol, pH 6.6, Vapor Diffusion, Temperature 277K 

>  <REMARK_610>  (27) 
nan

>  <pH>  (27) 
6.6

>  <Cryst_Technique>  (27) 
nan

>  <Sequence>  (27) 
MGNAAAAKKGSEQESVKEFLAKAKEDFLKKWENPAQNTAHLDQFERIKTLGTGSFGRVMLVKHMETGNHYAMKILDKQKVVKLKQIEHTLNEKRILQAVNFPFLVKLEFSFKDNSNLYMVMEYVPGGEMFSHLRRIGRFSEPHARFYAAQIVLTFEYLHSLDLIYRDLKPENLLIDQQGYIQVTDFGFAKRVKGRTWTLCGTPEYLAPEIILSKGYNKAVDWWALGVLIYEMAAGYPPFFADQPIQIYEKIVSGKVRFPSHFSSDLKDLLRNLLQVDLTKRFGNLKNGVNDIKNHKWFATTDWIAIYQRKVEAPFIPKFKGPGDTSNFDDYEEEEIRVSINEKCGKEFSEF

>  <Sequence_Length>  (27) 
351

>  <Mutation_Count>  (27) 
0

>  <Gene_Name>  (27) 
PKACA

>  <MW>  (27) 
40.758

>  <Name>  (27) 
cAMP-Dependent Protein Kinase Catalytic Subunit Alpha

>  <Mutations>  (27) 
nan

>  <EC_Number>  (27) 
2.7.11.11

>  <Peptidic_Inhibitor>  (27) 
True

>  <Lig_Missing_Atoms>  (27) 
['No']

>  <PDBbind_Resolution>  (27) 
nan

>  <PDBbind_Release_Year>  (27) 
nan

>  <PDBbind_Comment>  (27) 
nan

>  <PDBbind_Uniprot_Id>  (27) 
nan

>  <PDBbind_Protein_Name>  (27) 
nan

>  <PDBbind_-Logkd/Ki>  (27) 
nan

>  <PDBbind_Kd/Ki>  (27) 
nan

>  <PDBbind_Kd_Or_Ki_Or_Ic50>  (27) 
nan

>  <PDBbind_Relation>  (27) 
nan

>  <PDBbind_Value>  (27) 
nan

>  <PDBbind_Unit>  (27) 
nan

>  <PDBbind_Standard_Value>  (27) 
nan

>  <PDBbind_Standard_Unit>  (27) 
nan

$$$$

     RDKit          2D

 24 26  0  0  0  0  0  0  0  0999 V2000
   11.2500    3.8971    0.0000 C   0  0  0  0  0  0  0  0  0  0  0  0
   12.0000    2.5981    0.0000 C   0  0  0  0  0  0  0  0  0  0  0  0
   11.2500    1.2990    0.0000 C   0  0  0  0  0  0  0  0  0  0  0  0
    9.7500    1.2990    0.0000 C   0  0  0  0  0  0  0  0  0  0  0  0
    9.0000    2.5981    0.0000 C   0  0  0  0  0  0  0  0  0  0  0  0
    9.7500    3.8971    0.0000 C   0  0  0  0  0  0  0  0  0  0  0  0
    9.0000    0.0000    0.0000 C   0  0  0  0  0  0  0  0  0  0  0  0
    7.5000    0.0000    0.0000 N   0  0  0  0  0  0  0  0  0  0  0  0
    6.7500   -1.2990    0.0000 C   0  0  0  0  0  0  0  0  0  0  0  0
    5.2500   -1.2990    0.0000 C   0  0  0  0  0  0  0  0  0  0  0  0
    4.5000   -2.5981    0.0000 N   0  0  0  0  0  0  0  0  0  0  0  0
    3.0000   -2.5981    0.0000 S   0  0  0  0  0  0  0  0  0  0  0  0
    3.0000   -4.0981    0.0000 O   0  0  0  0  0  0  0  0  0  0  0  0
    3.0000   -1.0981    0.0000 O   0  0  0  0  0  0  0  0  0  0  0  0
    1.5000   -2.5981    0.0000 C   0  0  0  0  0  0  0  0  0  0  0  0
    0.7500   -3.8971    0.0000 C   0  0  0  0  0  0  0  0  0  0  0  0
   -0.7500   -3.8971    0.0000 C   0  0  0  0  0  0  0  0  0  0  0  0
   -1.5000   -2.5981    0.0000 C   0  0  0  0  0  0  0  0  0  0  0  0
   -0.7500   -1.2990    0.0000 C   0  0  0  0  0  0  0  0  0  0  0  0
    0.7500   -1.2990    0.0000 C   0  0  0  0  0  0  0  0  0  0  0  0
    1.5000    0.0000    0.0000 C   0  0  0  0  0  0  0  0  0  0  0  0
    0.7500    1.2990    0.0000 C   0  0  0  0  0  0  0  0  0  0  0  0
   -0.7500    1.2990    0.0000 N   0  0  0  0  0  0  0  0  0  0  0  0
   -1.5000    0.0000    0.0000 C   0  0  0  0  0  0  0  0  0  0  0  0
  1  2  2  0
  2  3  1  0
  3  4  2  0
  4  5  1  0
  5  6  2  0
  4  7  1  0
  7  8  1  0
  8  9  1  0
  9 10  1  0
 10 11  1  0
 11 12  1  0
 12 13  2  0
 12 14  2  0
 12 15  1  0
 15 16  2  0
 16 17  1  0
 17 18  2  0
 18 19  1  0
 19 20  2  0
 20 21  1  0
 21 22  2  0
 22 23  1  0
 23 24  2  0
  6  1  1  0
 20 15  1  0
 24 19  1  0
M  END
>  <Structure>  (28) 
6EH3

>  <Dataset>  (28) 
PDB

>  <Chain>  (28) 
A

>  <Spatial_Label>  (28) 
DFGin

>  <Dihedral_Label>  (28) 
ABAminus

>  <C_Helix_Label>  (28) 
Chelix-in

>  <Lig_ID>  (28) 
B4Z

>  <Lig_Entity_ID>  (28) 
6EH3_3

>  <Lig_Name>  (28) 
~{N}-[2-[(phenylmethyl)amino]ethyl]isoquinoline-5-sulfonamide

>  <Lig_Formula>  (28) 
C18H19N3O2S

>  <Lig_SMILES>  (28) 
c1ccc(cc1)CNCCNS(=O)(=O)c2cccc3c2ccnc3

>  <Lig_MW>  (28) 
341.427

>  <Lig_ChEMBL_ID>  (28) 
['CHEMBL148132']

>  <Lig_DrugBank_ID>  (28) 
nan

>  <Occurence>  (28) 
1

>  <Lig_SMILES_Uncharged>  (28) 
O=S(=O)(NCCNCc1ccccc1)c1cccc2cnccc12

>  <Lig_Conformer>  (28) 
['NaN']

>  <Lig_Of_Interest>  (28) 
['Y']

>  <Lig_Completeness>  (28) 
[1.0]

>  <Lig_Occupancy>  (28) 
[1.0]

>  <Lig_RSCC>  (28) 
[0.963]

>  <Lig_RSR>  (28) 
[0.081]

>  <Lig_RMSZ_Bonds>  (28) 
[0.38]

>  <Lig_RMSZ_Angles>  (28) 
[0.56]

>  <Lig_Alt_Conf>  (28) 
0

>  <Title>  (28) 
Crystal Structure of the Protein-Kinase A catalytic subunit from Criteculus Griseus in complex with compounds RKp120 and RKp190

>  <Nonpolymer_Entity_Count>  (28) 
1

>  <Protein_Entity_Count>  (28) 
2

>  <Exp_Method>  (28) 
X-Ray Diffraction

>  <Cryst_Method>  (28) 
Vapor Diffusion, Sitting Drop; 100 Mm Mes-Bis-Tris, 75 Mm Lithium Chloride, 1 Mm Dtt, 0.1 Mm Sodium Edta, 0.25 Mm Mega 8, 0.7 Mm Peptidic Ligand, 5 Mm Rkp190, 19% V/V Methanol/Water In Reservoir

>  <Deposit_Date>  (28) 
2017-09-12

>  <Resolution>  (28) 
1.95

>  <DOI>  (28) 
nan

>  <Source_Organism>  (28) 
Cricetulus griseus

>  <R_Free>  (28) 
0.2189

>  <Keywords>  (28) 
Transferase

>  <REMARK_280>  (28) 
 Crystal Solvent Content, Vs (%): 57.83 Matthews Coefficient, Vm (Angstroms**3/Da): 2.92 Crystallization Conditions: 100 Mm Mes-Bis-Tris, 75 Mm Lithium Chloride, 1 Mm Dtt, 0.1 Mm Sodium Edta, 0.25 Mm Mega 8, 0.7 Mm Peptidic Ligand, 5 Mm Rkp190, 19% V/V Methanol/Water In Reservoir, pH 6.9, Vapor Diffusion, Sitting Drop, Temperature 277.15K 

>  <REMARK_610>  (28) 
nan

>  <pH>  (28) 
6.9

>  <Cryst_Technique>  (28) 
nan

>  <Sequence>  (28) 
GHMGNAAAAKKGSEQESVKEFLAKAKEEFLKKWESPSQNTAQLDHFDRIKTLGTGSFGRVMLVKHKETGNHYAMKILDKQKVVKLKQIEHTLNEKRILQAVNFPFLVKLEFSFKDNSNLYMVMEYVPGGEMFSHLRRIGRFSEPHARFYAAQIVLTFEYLHSLDLIYRDLKPENLLIDQQGYIQVTDFGFAKRVKGRTWTLCGTPEYLAPEIILSKGYNKAVDWWALGVLIYEMAAGYPPFFADQPIQIYEKIVSGKVRFPSHFSSDLKDLLRNLLQVDLTKRFGNLKNGVNDIKNHKWFATTDWIAIYQRKVEAPFIPKFKGPGDTSNFDDYEEEEIRVSINEKCGKEFTEF

>  <Sequence_Length>  (28) 
353

>  <Mutation_Count>  (28) 
0

>  <Gene_Name>  (28) 
PKACA

>  <MW>  (28) 
41.194

>  <Name>  (28) 
cAMP-Dependent Protein Kinase Catalytic Subunit Alpha

>  <Mutations>  (28) 
nan

>  <EC_Number>  (28) 
2.7.11.11

>  <Peptidic_Inhibitor>  (28) 
True

>  <Lig_Missing_Atoms>  (28) 
['No']

>  <PDBbind_Resolution>  (28) 
nan

>  <PDBbind_Release_Year>  (28) 
nan

>  <PDBbind_Comment>  (28) 
nan

>  <PDBbind_Uniprot_Id>  (28) 
nan

>  <PDBbind_Protein_Name>  (28) 
nan

>  <PDBbind_-Logkd/Ki>  (28) 
nan

>  <PDBbind_Kd/Ki>  (28) 
nan

>  <PDBbind_Kd_Or_Ki_Or_Ic50>  (28) 
nan

>  <PDBbind_Relation>  (28) 
nan

>  <PDBbind_Value>  (28) 
nan

>  <PDBbind_Unit>  (28) 
nan

>  <PDBbind_Standard_Value>  (28) 
nan

>  <PDBbind_Standard_Unit>  (28) 
nan

$$$$

     RDKit          2D

 31 34  0  0  0  0  0  0  0  0999 V2000
   11.8403    0.1044    0.0000 B   0  0  0  0  0  4  0  0  0  0  0  0
   11.7282   -1.3914    0.0000 C   0  0  0  0  0  0  0  0  0  0  0  0
   12.9676   -2.2364    0.0000 C   0  0  0  0  0  0  0  0  0  0  0  0
   12.8555   -3.7322    0.0000 C   0  0  0  0  0  0  0  0  0  0  0  0
   11.5040   -4.3830    0.0000 C   0  0  0  0  0  0  0  0  0  0  0  0
   10.2647   -3.5380    0.0000 C   0  0  0  0  0  0  0  0  0  0  0  0
   10.3768   -2.0422    0.0000 C   0  0  0  0  0  0  0  0  0  0  0  0
    9.1374   -1.1973    0.0000 C   0  0  0  0  0  0  0  0  0  0  0  0
    7.7860   -1.8481    0.0000 N   0  0  0  0  0  0  0  0  0  0  0  0
    7.7860   -3.3481    0.0000 C   0  0  0  0  0  0  0  0  0  0  0  0
    6.6132   -4.2833    0.0000 C   0  0  0  0  0  0  0  0  0  0  0  0
    5.1508   -3.9495    0.0000 C   0  0  0  0  0  0  0  0  0  0  0  0
    4.5000   -2.5981    0.0000 N   0  0  0  0  0  0  0  0  0  0  0  0
    5.1508   -1.2466    0.0000 C   0  0  0  0  0  0  0  0  0  0  0  0
    6.6132   -0.9128    0.0000 C   0  0  0  0  0  0  0  0  0  0  0  0
    3.0000   -2.5981    0.0000 S   0  0  0  0  0  0  0  0  0  0  0  0
    3.0000   -4.0981    0.0000 O   0  0  0  0  0  0  0  0  0  0  0  0
    3.0000   -1.0981    0.0000 O   0  0  0  0  0  0  0  0  0  0  0  0
    1.5000   -2.5981    0.0000 C   0  0  0  0  0  0  0  0  0  0  0  0
    0.7500   -3.8971    0.0000 C   0  0  0  0  0  0  0  0  0  0  0  0
   -0.7500   -3.8971    0.0000 C   0  0  0  0  0  0  0  0  0  0  0  0
   -1.5000   -2.5981    0.0000 C   0  0  0  0  0  0  0  0  0  0  0  0
   -0.7500   -1.2990    0.0000 C   0  0  0  0  0  0  0  0  0  0  0  0
    0.7500   -1.2990    0.0000 C   0  0  0  0  0  0  0  0  0  0  0  0
    1.5000    0.0000    0.0000 C   0  0  0  0  0  0  0  0  0  0  0  0
    0.7500    1.2990    0.0000 C   0  0  0  0  0  0  0  0  0  0  0  0
   -0.7500    1.2990    0.0000 N   0  0  0  0  0  0  0  0  0  0  0  0
   -1.5000    0.0000    0.0000 C   0  0  0  0  0  0  0  0  0  0  0  0
   11.9524    1.6002    0.0000 O   0  0  0  0  0  0  0  0  0  0  0  0
   13.3361   -0.0077    0.0000 O   0  0  0  0  0  0  0  0  0  0  0  0
   10.3445    0.2165    0.0000 O   0  0  0  0  0  0  0  0  0  0  0  0
  1  2  1  0
  2  3  2  0
  3  4  1  0
  4  5  2  0
  5  6  1  0
  6  7  2  0
  7  8  1  0
  8  9  1  0
  9 10  1  0
 10 11  1  0
 11 12  1  0
 12 13  1  0
 13 14  1  0
 14 15  1  0
 13 16  1  0
 16 17  2  0
 16 18  2  0
 16 19  1  0
 19 20  2  0
 20 21  1  0
 21 22  2  0
 22 23  1  0
 23 24  2  0
 24 25  1  0
 25 26  2  0
 26 27  1  0
 27 28  2  0
  1 29  1  0
  1 30  1  0
  1 31  1  0
  7  2  1  0
 15  9  1  0
 24 19  1  0
 28 23  1  0
M  CHG  1   1  -1
M  END
>  <Structure>  (29) 
6ERT

>  <Dataset>  (29) 
PDB

>  <Chain>  (29) 
A

>  <Spatial_Label>  (29) 
DFGin

>  <Dihedral_Label>  (29) 
ABAminus

>  <C_Helix_Label>  (29) 
Chelix-in

>  <Lig_ID>  (29) 
BVZ

>  <Lig_Entity_ID>  (29) 
6ERT_3

>  <Lig_Name>  (29) 
[2-[(4-isoquinolin-5-ylsulfonyl-1,4-diazepan-1-yl)methyl]phenyl]-tris(oxidanyl)boranuide

>  <Lig_Formula>  (29) 
C21H25BN3O5S

>  <Lig_SMILES>  (29) 
[B-](c1ccccc1CN2CCCN(CC2)S(=O)(=O)c3cccc4c3ccnc4)(O)(O)O

>  <Lig_MW>  (29) 
442.316

>  <Lig_ChEMBL_ID>  (29) 
nan

>  <Lig_DrugBank_ID>  (29) 
nan

>  <Occurence>  (29) 
1

>  <Lig_SMILES_Uncharged>  (29) 
O=S(=O)(c1cccc2cnccc12)N1CCCN(Cc2ccccc2[B-](O)(O)O)CC1

>  <Lig_Conformer>  (29) 
['NaN']

>  <Lig_Of_Interest>  (29) 
['Y']

>  <Lig_Completeness>  (29) 
[1.0]

>  <Lig_Occupancy>  (29) 
[1.0]

>  <Lig_RSCC>  (29) 
[0.958]

>  <Lig_RSR>  (29) 
[0.112]

>  <Lig_RMSZ_Bonds>  (29) 
[2.3]

>  <Lig_RMSZ_Angles>  (29) 
[1.18]

>  <Lig_Alt_Conf>  (29) 
0

>  <Title>  (29) 
Crystal Structure of the Protein-Kinase A catalytic subunit from Criteculus Griseus in complex with compounds RKp193 and RKp117

>  <Nonpolymer_Entity_Count>  (29) 
1

>  <Protein_Entity_Count>  (29) 
2

>  <Exp_Method>  (29) 
X-Ray Diffraction

>  <Cryst_Method>  (29) 
Vapor Diffusion, Sitting Drop; 100 Mm Mes-Bis-Tris, 75 Mm Lithium Chloride, 1 Mm Dtt, 0.1 Mm Sodium Edta, 0.25 Mm Mega 8, 0.7 Mm Peptidic Ligand, 5 Mm Rkp117, 17% V/V Methanol/Water In Reservoir

>  <Deposit_Date>  (29) 
2017-10-19

>  <Resolution>  (29) 
1.8

>  <DOI>  (29) 
https://doi.org/10.1021/acsomega.8b02364

>  <Source_Organism>  (29) 
Cricetulus griseus

>  <R_Free>  (29) 
0.2185

>  <Keywords>  (29) 
Transferase

>  <REMARK_280>  (29) 
 Crystal Solvent Content, Vs (%): 49.27 Matthews Coefficient, Vm (Angstroms**3/Da): 2.42 Crystallization Conditions: 100 Mm Mes-Bis-Tris, 75 Mm Lithium Chloride, 1 Mm Dtt, 0.1 Mm Sodium Edta, 0.25 Mm Mega 8, 0.7 Mm Peptidic Ligand, 5 Mm Rkp117, 17% V/V Methanol/Water In Reservoir, pH 6.9, Vapor Diffusion, Sitting Drop, Temperature 277.15K 

>  <REMARK_610>  (29) 
nan

>  <pH>  (29) 
6.9

>  <Cryst_Technique>  (29) 
co-crystallized

>  <Sequence>  (29) 
GHMGNAAAAKKGSEQESVKEFLAKAKEEFLKKWESPSQNTAQLDHFDRIKTLGTGSFGRVMLVKHKETGNHYAMKILDKQKVVKLKQIEHTLNEKRILQAVNFPFLVKLEFSFKDNSNLYMVMEYVPGGEMFSHLRRIGRFSEPHARFYAAQIVLTFEYLHSLDLIYRDLKPENLLIDQQGYIQVTDFGFAKRVKGRTWTLCGTPEYLAPEIILSKGYNKAVDWWALGVLIYEMAAGYPPFFADQPIQIYEKIVSGKVRFPSHFSSDLKDLLRNLLQVDLTKRFGNLKNGVNDIKNHKWFATTDWIAIYQRKVEAPFIPKFKGPGDTSNFDDYEEEEIRVSINEKCGKEFTEF

>  <Sequence_Length>  (29) 
353

>  <Mutation_Count>  (29) 
0

>  <Gene_Name>  (29) 
PKACA

>  <MW>  (29) 
41.194

>  <Name>  (29) 
cAMP-Dependent Protein Kinase Catalytic Subunit Alpha

>  <Mutations>  (29) 
nan

>  <EC_Number>  (29) 
2.7.11.11

>  <Peptidic_Inhibitor>  (29) 
True

>  <Lig_Missing_Atoms>  (29) 
['No']

>  <PDBbind_Resolution>  (29) 
1.8

>  <PDBbind_Release_Year>  (29) 
2018.0

>  <PDBbind_Comment>  (29) 
[Uncommon element] microscale thermophoresis assay, Kd(BVZ)=5.86+/-2.75uM

>  <PDBbind_Uniprot_Id>  (29) 
P25321

>  <PDBbind_Protein_Name>  (29) 
CAMP-DEPENDENT PROTEIN KINASE CATALYTIC SUBUNIT ALPHA

>  <PDBbind_-Logkd/Ki>  (29) 
5.23

>  <PDBbind_Kd/Ki>  (29) 
Kd=5.86uM

>  <PDBbind_Kd_Or_Ki_Or_Ic50>  (29) 
Kd

>  <PDBbind_Relation>  (29) 
=

>  <PDBbind_Value>  (29) 
5.86

>  <PDBbind_Unit>  (29) 
uM

>  <PDBbind_Standard_Value>  (29) 
5860.0

>  <PDBbind_Standard_Unit>  (29) 
nM

$$$$

     RDKit          2D

 20 22  0  0  0  0  0  0  0  0999 V2000
    0.7500   -3.8971    0.0000 C   0  0  0  0  0  0  0  0  0  0  0  0
    1.5000   -2.5981    0.0000 C   0  0  0  0  0  0  0  0  0  0  0  0
    0.7500   -1.2990    0.0000 C   0  0  0  0  0  0  0  0  0  0  0  0
    1.5000    0.0000    0.0000 C   0  0  0  0  0  0  0  0  0  0  0  0
    0.7500    1.2990    0.0000 N   0  0  0  0  0  0  0  0  0  0  0  0
   -0.7500    1.2990    0.0000 C   0  0  0  0  0  0  0  0  0  0  0  0
   -1.5000    0.0000    0.0000 C   0  0  0  0  0  0  0  0  0  0  0  0
   -0.7500   -1.2990    0.0000 C   0  0  0  0  0  0  0  0  0  0  0  0
   -1.5000   -2.5981    0.0000 C   0  0  0  0  0  0  0  0  0  0  0  0
   -0.7500   -3.8971    0.0000 C   0  0  0  0  0  0  0  0  0  0  0  0
   -3.0000   -2.5981    0.0000 S   0  0  0  0  0  0  0  0  0  0  0  0
   -3.0000   -4.0981    0.0000 O   0  0  0  0  0  0  0  0  0  0  0  0
   -3.0000   -1.0981    0.0000 O   0  0  0  0  0  0  0  0  0  0  0  0
   -4.5000   -2.5981    0.0000 N   0  0  0  0  0  0  0  0  0  0  0  0
   -5.1508   -3.9495    0.0000 C   0  0  0  0  0  0  0  0  0  0  0  0
   -6.6132   -4.2833    0.0000 C   0  0  0  0  0  0  0  0  0  0  0  0
   -7.7860   -3.3481    0.0000 C   0  0  0  0  0  0  0  0  0  0  0  0
   -7.7860   -1.8481    0.0000 N   0  0  0  0  0  0  0  0  0  0  0  0
   -6.6132   -0.9128    0.0000 C   0  0  0  0  0  0  0  0  0  0  0  0
   -5.1508   -1.2466    0.0000 C   0  0  0  0  0  0  0  0  0  0  0  0
  1  2  2  0
  2  3  1  0
  3  4  2  0
  4  5  1  0
  5  6  2  0
  6  7  1  0
  7  8  2  0
  8  9  1  0
  9 10  2  0
  9 11  1  0
 11 12  2  0
 11 13  2  0
 11 14  1  0
 14 15  1  0
 15 16  1  0
 16 17  1  0
 17 18  1  0
 18 19  1  0
 19 20  1  0
 10  1  1  0
  8  3  1  0
 20 14  1  0
M  END
>  <Structure>  (30) 
6ERW

>  <Dataset>  (30) 
PDB

>  <Chain>  (30) 
A

>  <Spatial_Label>  (30) 
DFGin

>  <Dihedral_Label>  (30) 
ABAminus

>  <C_Helix_Label>  (30) 
Chelix-in

>  <Lig_ID>  (30) 
M77

>  <Lig_Entity_ID>  (30) 
6ERW_3

>  <Lig_Name>  (30) 
5-(1,4-DIAZEPAN-1-SULFONYL)ISOQUINOLINE

>  <Lig_Formula>  (30) 
C14H17N3O2S

>  <Lig_SMILES>  (30) 
c1cc2cnccc2c(c1)S(=O)(=O)N3CCCNCC3

>  <Lig_MW>  (30) 
291.369

>  <Lig_ChEMBL_ID>  (30) 
['CHEMBL38380']

>  <Lig_DrugBank_ID>  (30) 
['DB08162']

>  <Occurence>  (30) 
11

>  <Lig_SMILES_Uncharged>  (30) 
O=S(=O)(c1cccc2cnccc12)N1CCCNCC1

>  <Lig_Conformer>  (30) 
['NaN']

>  <Lig_Of_Interest>  (30) 
['Y']

>  <Lig_Completeness>  (30) 
[1.0]

>  <Lig_Occupancy>  (30) 
[1.0]

>  <Lig_RSCC>  (30) 
[0.959]

>  <Lig_RSR>  (30) 
[0.077]

>  <Lig_RMSZ_Bonds>  (30) 
[0.24]

>  <Lig_RMSZ_Angles>  (30) 
[0.41]

>  <Lig_Alt_Conf>  (30) 
0

>  <Title>  (30) 
Crystal Structure of the Protein-Kinase A catalytic subunit from Criteculus Griseus in complex with compounds RKp013 and Fasudil

>  <Nonpolymer_Entity_Count>  (30) 
2

>  <Protein_Entity_Count>  (30) 
2

>  <Exp_Method>  (30) 
X-Ray Diffraction

>  <Cryst_Method>  (30) 
Vapor Diffusion, Sitting Drop; 100 Mm Mes-Bis-Tris, 75 Mm Lithium Chloride, 1 Mm Dtt, 0.1 Mm Sodium Edta, 0.25 Mm Mega 8, 0.7 Mm Peptidic Ligand, 5 Mm Fasudil, 20% V/V Methanol/Water In Reservoir

>  <Deposit_Date>  (30) 
2017-10-19

>  <Resolution>  (30) 
1.89

>  <DOI>  (30) 
https://doi.org/10.1021/acsomega.8b02364

>  <Source_Organism>  (30) 
Cricetulus griseus

>  <R_Free>  (30) 
0.2292

>  <Keywords>  (30) 
Transferase

>  <REMARK_280>  (30) 
 Crystal Solvent Content, Vs (%): 57.25 Matthews Coefficient, Vm (Angstroms**3/Da): 2.88 Crystallization Conditions: 100 Mm Mes-Bis-Tris, 75 Mm Lithium Chloride, 1 Mm Dtt, 0.1 Mm Sodium Edta, 0.25 Mm Mega 8, 0.7 Mm Peptidic Ligand, 5 Mm Fasudil, 20% V/V Methanol/Water In Reservoir, pH 6.9, Vapor Diffusion, Sitting Drop, Temperature 277.15K 

>  <REMARK_610>  (30) 
nan

>  <pH>  (30) 
6.9

>  <Cryst_Technique>  (30) 
co-crystallized

>  <Sequence>  (30) 
GHMGNAAAAKKGSEQESVKEFLAKAKEEFLKKWESPSQNTAQLDHFDRIKTLGTGSFGRVMLVKHKETGNHYAMKILDKQKVVKLKQIEHTLNEKRILQAVNFPFLVKLEFSFKDNSNLYMVMEYVPGGEMFSHLRRIGRFSEPHARFYAAQIVLTFEYLHSLDLIYRDLKPENLLIDQQGYIQVTDFGFAKRVKGRTWTLCGTPEYLAPEIILSKGYNKAVDWWALGVLIYEMAAGYPPFFADQPIQIYEKIVSGKVRFPSHFSSDLKDLLRNLLQVDLTKRFGNLKNGVNDIKNHKWFATTDWIAIYQRKVEAPFIPKFKGPGDTSNFDDYEEEEIRVSINEKCGKEFTEF

>  <Sequence_Length>  (30) 
353

>  <Mutation_Count>  (30) 
0

>  <Gene_Name>  (30) 
PKACA

>  <MW>  (30) 
41.194

>  <Name>  (30) 
cAMP-Dependent Protein Kinase Catalytic Subunit Alpha

>  <Mutations>  (30) 
nan

>  <EC_Number>  (30) 
2.7.11.11

>  <Peptidic_Inhibitor>  (30) 
True

>  <Lig_Missing_Atoms>  (30) 
['No']

>  <PDBbind_Resolution>  (30) 
nan

>  <PDBbind_Release_Year>  (30) 
nan

>  <PDBbind_Comment>  (30) 
nan

>  <PDBbind_Uniprot_Id>  (30) 
nan

>  <PDBbind_Protein_Name>  (30) 
nan

>  <PDBbind_-Logkd/Ki>  (30) 
nan

>  <PDBbind_Kd/Ki>  (30) 
nan

>  <PDBbind_Kd_Or_Ki_Or_Ic50>  (30) 
nan

>  <PDBbind_Relation>  (30) 
nan

>  <PDBbind_Value>  (30) 
nan

>  <PDBbind_Unit>  (30) 
nan

>  <PDBbind_Standard_Value>  (30) 
nan

>  <PDBbind_Standard_Unit>  (30) 
nan

$$$$

     RDKit          2D

 20 22  0  0  0  0  0  0  0  0999 V2000
    0.7500   -3.8971    0.0000 C   0  0  0  0  0  0  0  0  0  0  0  0
    1.5000   -2.5981    0.0000 C   0  0  0  0  0  0  0  0  0  0  0  0
    0.7500   -1.2990    0.0000 C   0  0  0  0  0  0  0  0  0  0  0  0
    1.5000    0.0000    0.0000 C   0  0  0  0  0  0  0  0  0  0  0  0
    0.7500    1.2990    0.0000 N   0  0  0  0  0  0  0  0  0  0  0  0
   -0.7500    1.2990    0.0000 C   0  0  0  0  0  0  0  0  0  0  0  0
   -1.5000    0.0000    0.0000 C   0  0  0  0  0  0  0  0  0  0  0  0
   -0.7500   -1.2990    0.0000 C   0  0  0  0  0  0  0  0  0  0  0  0
   -1.5000   -2.5981    0.0000 C   0  0  0  0  0  0  0  0  0  0  0  0
   -0.7500   -3.8971    0.0000 C   0  0  0  0  0  0  0  0  0  0  0  0
   -3.0000   -2.5981    0.0000 S   0  0  0  0  0  0  0  0  0  0  0  0
   -3.0000   -4.0981    0.0000 O   0  0  0  0  0  0  0  0  0  0  0  0
   -3.0000   -1.0981    0.0000 O   0  0  0  0  0  0  0  0  0  0  0  0
   -4.5000   -2.5981    0.0000 N   0  0  0  0  0  0  0  0  0  0  0  0
   -5.1508   -3.9495    0.0000 C   0  0  0  0  0  0  0  0  0  0  0  0
   -6.6132   -4.2833    0.0000 C   0  0  0  0  0  0  0  0  0  0  0  0
   -7.7860   -3.3481    0.0000 C   0  0  0  0  0  0  0  0  0  0  0  0
   -7.7860   -1.8481    0.0000 N   0  0  0  0  0  0  0  0  0  0  0  0
   -6.6132   -0.9128    0.0000 C   0  0  0  0  0  0  0  0  0  0  0  0
   -5.1508   -1.2466    0.0000 C   0  0  0  0  0  0  0  0  0  0  0  0
  1  2  2  0
  2  3  1  0
  3  4  2  0
  4  5  1  0
  5  6  2  0
  6  7  1  0
  7  8  2  0
  8  9  1  0
  9 10  2  0
  9 11  1  0
 11 12  2  0
 11 13  2  0
 11 14  1  0
 14 15  1  0
 15 16  1  0
 16 17  1  0
 17 18  1  0
 18 19  1  0
 19 20  1  0
 10  1  1  0
  8  3  1  0
 20 14  1  0
M  END
>  <Structure>  (31) 
6I2A

>  <Dataset>  (31) 
PDB

>  <Chain>  (31) 
A

>  <Spatial_Label>  (31) 
DFGin

>  <Dihedral_Label>  (31) 
ABAminus

>  <C_Helix_Label>  (31) 
Chelix-in

>  <Lig_ID>  (31) 
M77

>  <Lig_Entity_ID>  (31) 
6I2A_3

>  <Lig_Name>  (31) 
5-(1,4-DIAZEPAN-1-SULFONYL)ISOQUINOLINE

>  <Lig_Formula>  (31) 
C14H17N3O2S

>  <Lig_SMILES>  (31) 
c1cc2cnccc2c(c1)S(=O)(=O)N3CCCNCC3

>  <Lig_MW>  (31) 
291.369

>  <Lig_ChEMBL_ID>  (31) 
['CHEMBL38380']

>  <Lig_DrugBank_ID>  (31) 
['DB08162']

>  <Occurence>  (31) 
11

>  <Lig_SMILES_Uncharged>  (31) 
O=S(=O)(c1cccc2cnccc12)N1CCCNCC1

>  <Lig_Conformer>  (31) 
['NaN']

>  <Lig_Of_Interest>  (31) 
['Y']

>  <Lig_Completeness>  (31) 
[1.0]

>  <Lig_Occupancy>  (31) 
[1.0]

>  <Lig_RSCC>  (31) 
[0.975]

>  <Lig_RSR>  (31) 
[0.066]

>  <Lig_RMSZ_Bonds>  (31) 
[0.34]

>  <Lig_RMSZ_Angles>  (31) 
[0.71]

>  <Lig_Alt_Conf>  (31) 
0

>  <Title>  (31) 
Crystal Structure of the Protein-Kinase A catalytic subunit from Cricetulus Griseus in complex with compounds RKp153 and Fasudil

>  <Nonpolymer_Entity_Count>  (31) 
2

>  <Protein_Entity_Count>  (31) 
2

>  <Exp_Method>  (31) 
X-Ray Diffraction

>  <Cryst_Method>  (31) 
Vapor Diffusion, Sitting Drop; 100 Mm Mes-Bis-Tris, 75 Mm Lithium Chloride, 1 Mm Dtt, 0.1 Mm Sodium Edta, 0.25 Mm Mega 8, 0.7 Mm Peptidic Ligand, 5 Mm Fasudil, 23% V/V Methanol/Water In Reservoir

>  <Deposit_Date>  (31) 
2018-11-01

>  <Resolution>  (31) 
1.75

>  <DOI>  (31) 
https://doi.org/10.1021/acsomega.8b02364

>  <Source_Organism>  (31) 
Cricetulus griseus

>  <R_Free>  (31) 
0.2068

>  <Keywords>  (31) 
Transferase

>  <REMARK_280>  (31) 
 Crystal Solvent Content, Vs (%): 58.15 Matthews Coefficient, Vm (Angstroms**3/Da): 2.94 Crystallization Conditions: 100 Mm Mes-Bis-Tris, 75 Mm Lithium Chloride, 1 Mm Dtt, 0.1 Mm Sodium Edta, 0.25 Mm Mega 8, 0.7 Mm Peptidic Ligand, 5 Mm Fasudil, 23% V/V Methanol/Water In Reservoir, pH 6.9, Vapor Diffusion, Sitting Drop, Temperature 277.15K 

>  <REMARK_610>  (31) 
nan

>  <pH>  (31) 
6.9

>  <Cryst_Technique>  (31) 
co-crystallized

>  <Sequence>  (31) 
GHMGNAAAAKKGSEQESVKEFLAKAKEEFLKKWESPSQNTAQLDHFDRIKTLGTGSFGRVMLVKHKETGNHYAMKILDKQKVVKLKQIEHTLNEKRILQAVNFPFLVKLEFSFKDNSNLYMVMEYVPGGEMFSHLRRIGRFSEPHARFYAAQIVLTFEYLHSLDLIYRDLKPENLLIDQQGYIQVTDFGFAKRVKGRTWTLCGTPEYLAPEIILSKGYNKAVDWWALGVLIYEMAAGYPPFFADQPIQIYEKIVSGKVRFPSHFSSDLKDLLRNLLQVDLTKRFGNLKNGVNDIKNHKWFATTDWIAIYQRKVEAPFIPKFKGPGDTSNFDDYEEEEIRVSINEKCGKEFTEF

>  <Sequence_Length>  (31) 
353

>  <Mutation_Count>  (31) 
0

>  <Gene_Name>  (31) 
PKACA

>  <MW>  (31) 
41.194

>  <Name>  (31) 
cAMP-Dependent Protein Kinase Catalytic Subunit Alpha

>  <Mutations>  (31) 
nan

>  <EC_Number>  (31) 
2.7.11.11

>  <Peptidic_Inhibitor>  (31) 
True

>  <Lig_Missing_Atoms>  (31) 
['No']

>  <PDBbind_Resolution>  (31) 
nan

>  <PDBbind_Release_Year>  (31) 
nan

>  <PDBbind_Comment>  (31) 
nan

>  <PDBbind_Uniprot_Id>  (31) 
nan

>  <PDBbind_Protein_Name>  (31) 
nan

>  <PDBbind_-Logkd/Ki>  (31) 
nan

>  <PDBbind_Kd/Ki>  (31) 
nan

>  <PDBbind_Kd_Or_Ki_Or_Ic50>  (31) 
nan

>  <PDBbind_Relation>  (31) 
nan

>  <PDBbind_Value>  (31) 
nan

>  <PDBbind_Unit>  (31) 
nan

>  <PDBbind_Standard_Value>  (31) 
nan

>  <PDBbind_Standard_Unit>  (31) 
nan

$$$$

     RDKit          2D

 30 33  0  0  0  0  0  0  0  0999 V2000
   11.8403    0.1044    0.0000 B   0  0  0  0  0  0  0  0  0  0  0  0
   11.7282   -1.3914    0.0000 C   0  0  0  0  0  0  0  0  0  0  0  0
   12.9676   -2.2364    0.0000 C   0  0  0  0  0  0  0  0  0  0  0  0
   12.8555   -3.7322    0.0000 C   0  0  0  0  0  0  0  0  0  0  0  0
   11.5040   -4.3830    0.0000 C   0  0  0  0  0  0  0  0  0  0  0  0
   10.2647   -3.5380    0.0000 C   0  0  0  0  0  0  0  0  0  0  0  0
   10.3768   -2.0422    0.0000 C   0  0  0  0  0  0  0  0  0  0  0  0
    9.1374   -1.1973    0.0000 C   0  0  0  0  0  0  0  0  0  0  0  0
    7.7860   -1.8481    0.0000 N   0  0  0  0  0  0  0  0  0  0  0  0
    7.7860   -3.3481    0.0000 C   0  0  0  0  0  0  0  0  0  0  0  0
    6.6132   -4.2833    0.0000 C   0  0  0  0  0  0  0  0  0  0  0  0
    5.1508   -3.9495    0.0000 C   0  0  0  0  0  0  0  0  0  0  0  0
    4.5000   -2.5981    0.0000 N   0  0  0  0  0  0  0  0  0  0  0  0
    5.1508   -1.2466    0.0000 C   0  0  0  0  0  0  0  0  0  0  0  0
    6.6132   -0.9128    0.0000 C   0  0  0  0  0  0  0  0  0  0  0  0
    3.0000   -2.5981    0.0000 S   0  0  0  0  0  0  0  0  0  0  0  0
    3.0000   -4.0981    0.0000 O   0  0  0  0  0  0  0  0  0  0  0  0
    3.0000   -1.0981    0.0000 O   0  0  0  0  0  0  0  0  0  0  0  0
    1.5000   -2.5981    0.0000 C   0  0  0  0  0  0  0  0  0  0  0  0
    0.7500   -3.8971    0.0000 C   0  0  0  0  0  0  0  0  0  0  0  0
   -0.7500   -3.8971    0.0000 C   0  0  0  0  0  0  0  0  0  0  0  0
   -1.5000   -2.5981    0.0000 C   0  0  0  0  0  0  0  0  0  0  0  0
   -0.7500   -1.2990    0.0000 C   0  0  0  0  0  0  0  0  0  0  0  0
    0.7500   -1.2990    0.0000 C   0  0  0  0  0  0  0  0  0  0  0  0
    1.5000    0.0000    0.0000 C   0  0  0  0  0  0  0  0  0  0  0  0
    0.7500    1.2990    0.0000 C   0  0  0  0  0  0  0  0  0  0  0  0
   -0.7500    1.2990    0.0000 N   0  0  0  0  0  0  0  0  0  0  0  0
   -1.5000    0.0000    0.0000 C   0  0  0  0  0  0  0  0  0  0  0  0
   13.1918    0.7552    0.0000 O   0  0  0  0  0  0  0  0  0  0  0  0
   10.6010    0.9494    0.0000 O   0  0  0  0  0  0  0  0  0  0  0  0
  1  2  1  0
  2  3  2  0
  3  4  1  0
  4  5  2  0
  5  6  1  0
  6  7  2  0
  7  8  1  0
  8  9  1  0
  9 10  1  0
 10 11  1  0
 11 12  1  0
 12 13  1  0
 13 14  1  0
 14 15  1  0
 13 16  1  0
 16 17  2  0
 16 18  2  0
 16 19  1  0
 19 20  2  0
 20 21  1  0
 21 22  2  0
 22 23  1  0
 23 24  2  0
 24 25  1  0
 25 26  2  0
 26 27  1  0
 27 28  2  0
  1 29  1  0
  1 30  1  0
  7  2  1  0
 15  9  1  0
 24 19  1  0
 28 23  1  0
M  END
>  <Structure>  (32) 
6I2B

>  <Dataset>  (32) 
PDB

>  <Chain>  (32) 
A

>  <Spatial_Label>  (32) 
DFGin

>  <Dihedral_Label>  (32) 
ABAminus

>  <C_Helix_Label>  (32) 
Chelix-in

>  <Lig_ID>  (32) 
9LQ

>  <Lig_Entity_ID>  (32) 
6I2B_3

>  <Lig_Name>  (32) 
[2-[(4-isoquinolin-5-ylsulfonyl-1,4-diazepan-1-yl)methyl]phenyl]boronic acid

>  <Lig_Formula>  (32) 
C21H24BN3O4S

>  <Lig_SMILES>  (32) 
B(c1ccccc1CN2CCCN(CC2)S(=O)(=O)c3cccc4c3ccnc4)(O)O

>  <Lig_MW>  (32) 
425.309

>  <Lig_ChEMBL_ID>  (32) 
nan

>  <Lig_DrugBank_ID>  (32) 
nan

>  <Occurence>  (32) 
6

>  <Lig_SMILES_Uncharged>  (32) 
O=S(=O)(c1cccc2cnccc12)N1CCCN(Cc2ccccc2B(O)O)CC1

>  <Lig_Conformer>  (32) 
['NaN', 'NaN']

>  <Lig_Of_Interest>  (32) 
['Y', 'Y']

>  <Lig_Completeness>  (32) 
[1.0, 0.9]

>  <Lig_Occupancy>  (32) 
[1.0, 0.77]

>  <Lig_RSCC>  (32) 
[0.885, 0.891]

>  <Lig_RSR>  (32) 
[0.148, 0.164]

>  <Lig_RMSZ_Bonds>  (32) 
[0.9, 0.4]

>  <Lig_RMSZ_Angles>  (32) 
[1.75, 1.23]

>  <Lig_Alt_Conf>  (32) 
0

>  <Title>  (32) 
Crystal Structure of the Protein-Kinase A catalytic subunit from Cricetulus Griseus in complex with compounds RKp153 and RKp117

>  <Nonpolymer_Entity_Count>  (32) 
3

>  <Protein_Entity_Count>  (32) 
2

>  <Exp_Method>  (32) 
X-Ray Diffraction

>  <Cryst_Method>  (32) 
Vapor Diffusion, Sitting Drop; 100 Mm Mes-Bis-Tris, 75 Mm Lithium Chloride, 1 Mm Dtt, 0.1 Mm Sodium Edta, 0.25 Mm Mega 8, 0.7 Mm Peptidic Ligand, 5 Mm Rkp117, 15% V/V Methanol/Water In Reservoir

>  <Deposit_Date>  (32) 
2018-11-01

>  <Resolution>  (32) 
1.97

>  <DOI>  (32) 
https://doi.org/10.1021/acsomega.8b02364

>  <Source_Organism>  (32) 
Cricetulus griseus

>  <R_Free>  (32) 
0.2477

>  <Keywords>  (32) 
Transferase

>  <REMARK_280>  (32) 
 Crystal Solvent Content, Vs (%): 53.31 Matthews Coefficient, Vm (Angstroms**3/Da): 2.63 Crystallization Conditions: 100 Mm Mes-Bis-Tris, 75 Mm Lithium Chloride, 1 Mm Dtt, 0.1 Mm Sodium Edta, 0.25 Mm Mega 8, 0.7 Mm Peptidic Ligand, 5 Mm Rkp117, 15% V/V Methanol/Water In Reservoir, pH 6.9, Vapor Diffusion, Sitting Drop, Temperature 277.15K 

>  <REMARK_610>  (32) 
  9LQ A 402 RIP D 101 

>  <pH>  (32) 
6.9

>  <Cryst_Technique>  (32) 
co-crystallized

>  <Sequence>  (32) 
GHMGNAAAAKKGSEQESVKEFLAKAKEEFLKKWESPSQNTAQLDHFDRIKTLGTGSFGRVMLVKHKETGNHYAMKILDKQKVVKLKQIEHTLNEKRILQAVNFPFLVKLEFSFKDNSNLYMVMEYVPGGEMFSHLRRIGRFSEPHARFYAAQIVLTFEYLHSLDLIYRDLKPENLLIDQQGYIQVTDFGFAKRVKGRTWTLCGTPEYLAPEIILSKGYNKAVDWWALGVLIYEMAAGYPPFFADQPIQIYEKIVSGKVRFPSHFSSDLKDLLRNLLQVDLTKRFGNLKNGVNDIKNHKWFATTDWIAIYQRKVEAPFIPKFKGPGDTSNFDDYEEEEIRVSINEKCGKEFTEF

>  <Sequence_Length>  (32) 
353

>  <Mutation_Count>  (32) 
0

>  <Gene_Name>  (32) 
PKACA

>  <MW>  (32) 
41.194

>  <Name>  (32) 
cAMP-Dependent Protein Kinase Catalytic Subunit Alpha

>  <Mutations>  (32) 
nan

>  <EC_Number>  (32) 
2.7.11.11

>  <Peptidic_Inhibitor>  (32) 
True

>  <Lig_Missing_Atoms>  (32) 
['No', 'No']

>  <PDBbind_Resolution>  (32) 
nan

>  <PDBbind_Release_Year>  (32) 
nan

>  <PDBbind_Comment>  (32) 
nan

>  <PDBbind_Uniprot_Id>  (32) 
nan

>  <PDBbind_Protein_Name>  (32) 
nan

>  <PDBbind_-Logkd/Ki>  (32) 
nan

>  <PDBbind_Kd/Ki>  (32) 
nan

>  <PDBbind_Kd_Or_Ki_Or_Ic50>  (32) 
nan

>  <PDBbind_Relation>  (32) 
nan

>  <PDBbind_Value>  (32) 
nan

>  <PDBbind_Unit>  (32) 
nan

>  <PDBbind_Standard_Value>  (32) 
nan

>  <PDBbind_Standard_Unit>  (32) 
nan

$$$$

     RDKit          2D

 20 22  0  0  0  0  0  0  0  0999 V2000
    0.7500   -3.8971    0.0000 C   0  0  0  0  0  0  0  0  0  0  0  0
    1.5000   -2.5981    0.0000 C   0  0  0  0  0  0  0  0  0  0  0  0
    0.7500   -1.2990    0.0000 C   0  0  0  0  0  0  0  0  0  0  0  0
    1.5000    0.0000    0.0000 C   0  0  0  0  0  0  0  0  0  0  0  0
    0.7500    1.2990    0.0000 N   0  0  0  0  0  0  0  0  0  0  0  0
   -0.7500    1.2990    0.0000 C   0  0  0  0  0  0  0  0  0  0  0  0
   -1.5000    0.0000    0.0000 C   0  0  0  0  0  0  0  0  0  0  0  0
   -0.7500   -1.2990    0.0000 C   0  0  0  0  0  0  0  0  0  0  0  0
   -1.5000   -2.5981    0.0000 C   0  0  0  0  0  0  0  0  0  0  0  0
   -0.7500   -3.8971    0.0000 C   0  0  0  0  0  0  0  0  0  0  0  0
   -3.0000   -2.5981    0.0000 S   0  0  0  0  0  0  0  0  0  0  0  0
   -3.0000   -4.0981    0.0000 O   0  0  0  0  0  0  0  0  0  0  0  0
   -3.0000   -1.0981    0.0000 O   0  0  0  0  0  0  0  0  0  0  0  0
   -4.5000   -2.5981    0.0000 N   0  0  0  0  0  0  0  0  0  0  0  0
   -5.1508   -3.9495    0.0000 C   0  0  0  0  0  0  0  0  0  0  0  0
   -6.6132   -4.2833    0.0000 C   0  0  0  0  0  0  0  0  0  0  0  0
   -7.7860   -3.3481    0.0000 C   0  0  0  0  0  0  0  0  0  0  0  0
   -7.7860   -1.8481    0.0000 N   0  0  0  0  0  0  0  0  0  0  0  0
   -6.6132   -0.9128    0.0000 C   0  0  0  0  0  0  0  0  0  0  0  0
   -5.1508   -1.2466    0.0000 C   0  0  0  0  0  0  0  0  0  0  0  0
  1  2  2  0
  2  3  1  0
  3  4  2  0
  4  5  1  0
  5  6  2  0
  6  7  1  0
  7  8  2  0
  8  9  1  0
  9 10  2  0
  9 11  1  0
 11 12  2  0
 11 13  2  0
 11 14  1  0
 14 15  1  0
 15 16  1  0
 16 17  1  0
 17 18  1  0
 18 19  1  0
 19 20  1  0
 10  1  1  0
  8  3  1  0
 20 14  1  0
M  END
>  <Structure>  (33) 
6I2C

>  <Dataset>  (33) 
PDB

>  <Chain>  (33) 
A

>  <Spatial_Label>  (33) 
DFGin

>  <Dihedral_Label>  (33) 
ABAminus

>  <C_Helix_Label>  (33) 
Chelix-in

>  <Lig_ID>  (33) 
M77

>  <Lig_Entity_ID>  (33) 
6I2C_3

>  <Lig_Name>  (33) 
5-(1,4-DIAZEPAN-1-SULFONYL)ISOQUINOLINE

>  <Lig_Formula>  (33) 
C14H17N3O2S

>  <Lig_SMILES>  (33) 
c1cc2cnccc2c(c1)S(=O)(=O)N3CCCNCC3

>  <Lig_MW>  (33) 
291.369

>  <Lig_ChEMBL_ID>  (33) 
['CHEMBL38380']

>  <Lig_DrugBank_ID>  (33) 
['DB08162']

>  <Occurence>  (33) 
11

>  <Lig_SMILES_Uncharged>  (33) 
O=S(=O)(c1cccc2cnccc12)N1CCCNCC1

>  <Lig_Conformer>  (33) 
['NaN']

>  <Lig_Of_Interest>  (33) 
['Y']

>  <Lig_Completeness>  (33) 
[1.0]

>  <Lig_Occupancy>  (33) 
[1.0]

>  <Lig_RSCC>  (33) 
[0.974]

>  <Lig_RSR>  (33) 
[0.068]

>  <Lig_RMSZ_Bonds>  (33) 
[0.42]

>  <Lig_RMSZ_Angles>  (33) 
[0.64]

>  <Lig_Alt_Conf>  (33) 
0

>  <Title>  (33) 
Crystal Structure of the Protein-Kinase A catalytic subunit from Cricetulus Griseus in complex with compounds RKp182 and Fasudil

>  <Nonpolymer_Entity_Count>  (33) 
2

>  <Protein_Entity_Count>  (33) 
2

>  <Exp_Method>  (33) 
X-Ray Diffraction

>  <Cryst_Method>  (33) 
Vapor Diffusion, Sitting Drop; 100 Mm Mes-Bis-Tris, 75 Mm Lithium Chloride, 1 Mm Dtt, 0.1 Mm Sodium Edta, 0.25 Mm Mega 8, 0.7 Mm Peptidic Ligand, 5 Mm Fasudil, 16% V/V Methanol/Water In Reservoir

>  <Deposit_Date>  (33) 
2018-11-01

>  <Resolution>  (33) 
1.82

>  <DOI>  (33) 
https://doi.org/10.1021/acsomega.8b02364

>  <Source_Organism>  (33) 
Cricetulus griseus

>  <R_Free>  (33) 
0.2211

>  <Keywords>  (33) 
Transferase

>  <REMARK_280>  (33) 
 Crystal Solvent Content, Vs (%): 51.74 Matthews Coefficient, Vm (Angstroms**3/Da): 2.55 Crystallization Conditions: 100 Mm Mes-Bis-Tris, 75 Mm Lithium Chloride, 1 Mm Dtt, 0.1 Mm Sodium Edta, 0.25 Mm Mega 8, 0.7 Mm Peptidic Ligand, 5 Mm Fasudil, 16% V/V Methanol/Water In Reservoir, pH 6.9, Vapor Diffusion, Sitting Drop, Temperature 277.15K 

>  <REMARK_610>  (33) 
  RIP B 101 

>  <pH>  (33) 
6.9

>  <Cryst_Technique>  (33) 
co-crystallized

>  <Sequence>  (33) 
GHMGNAAAAKKGSEQESVKEFLAKAKEEFLKKWESPSQNTAQLDHFDRIKTLGTGSFGRVMLVKHKETGNHYAMKILDKQKVVKLKQIEHTLNEKRILQAVNFPFLVKLEFSFKDNSNLYMVMEYVPGGEMFSHLRRIGRFSEPHARFYAAQIVLTFEYLHSLDLIYRDLKPENLLIDQQGYIQVTDFGFAKRVKGRTWTLCGTPEYLAPEIILSKGYNKAVDWWALGVLIYEMAAGYPPFFADQPIQIYEKIVSGKVRFPSHFSSDLKDLLRNLLQVDLTKRFGNLKNGVNDIKNHKWFATTDWIAIYQRKVEAPFIPKFKGPGDTSNFDDYEEEEIRVSINEKCGKEFTEF

>  <Sequence_Length>  (33) 
353

>  <Mutation_Count>  (33) 
0

>  <Gene_Name>  (33) 
PKACA

>  <MW>  (33) 
41.194

>  <Name>  (33) 
cAMP-Dependent Protein Kinase Catalytic Subunit Alpha

>  <Mutations>  (33) 
nan

>  <EC_Number>  (33) 
2.7.11.11

>  <Peptidic_Inhibitor>  (33) 
True

>  <Lig_Missing_Atoms>  (33) 
['No']

>  <PDBbind_Resolution>  (33) 
nan

>  <PDBbind_Release_Year>  (33) 
nan

>  <PDBbind_Comment>  (33) 
nan

>  <PDBbind_Uniprot_Id>  (33) 
nan

>  <PDBbind_Protein_Name>  (33) 
nan

>  <PDBbind_-Logkd/Ki>  (33) 
nan

>  <PDBbind_Kd/Ki>  (33) 
nan

>  <PDBbind_Kd_Or_Ki_Or_Ic50>  (33) 
nan

>  <PDBbind_Relation>  (33) 
nan

>  <PDBbind_Value>  (33) 
nan

>  <PDBbind_Unit>  (33) 
nan

>  <PDBbind_Standard_Value>  (33) 
nan

>  <PDBbind_Standard_Unit>  (33) 
nan

$$$$

     RDKit          2D

 30 33  0  0  0  0  0  0  0  0999 V2000
   11.8403    0.1044    0.0000 B   0  0  0  0  0  0  0  0  0  0  0  0
   11.7282   -1.3914    0.0000 C   0  0  0  0  0  0  0  0  0  0  0  0
   12.9676   -2.2364    0.0000 C   0  0  0  0  0  0  0  0  0  0  0  0
   12.8555   -3.7322    0.0000 C   0  0  0  0  0  0  0  0  0  0  0  0
   11.5040   -4.3830    0.0000 C   0  0  0  0  0  0  0  0  0  0  0  0
   10.2647   -3.5380    0.0000 C   0  0  0  0  0  0  0  0  0  0  0  0
   10.3768   -2.0422    0.0000 C   0  0  0  0  0  0  0  0  0  0  0  0
    9.1374   -1.1973    0.0000 C   0  0  0  0  0  0  0  0  0  0  0  0
    7.7860   -1.8481    0.0000 N   0  0  0  0  0  0  0  0  0  0  0  0
    7.7860   -3.3481    0.0000 C   0  0  0  0  0  0  0  0  0  0  0  0
    6.6132   -4.2833    0.0000 C   0  0  0  0  0  0  0  0  0  0  0  0
    5.1508   -3.9495    0.0000 C   0  0  0  0  0  0  0  0  0  0  0  0
    4.5000   -2.5981    0.0000 N   0  0  0  0  0  0  0  0  0  0  0  0
    5.1508   -1.2466    0.0000 C   0  0  0  0  0  0  0  0  0  0  0  0
    6.6132   -0.9128    0.0000 C   0  0  0  0  0  0  0  0  0  0  0  0
    3.0000   -2.5981    0.0000 S   0  0  0  0  0  0  0  0  0  0  0  0
    3.0000   -4.0981    0.0000 O   0  0  0  0  0  0  0  0  0  0  0  0
    3.0000   -1.0981    0.0000 O   0  0  0  0  0  0  0  0  0  0  0  0
    1.5000   -2.5981    0.0000 C   0  0  0  0  0  0  0  0  0  0  0  0
    0.7500   -3.8971    0.0000 C   0  0  0  0  0  0  0  0  0  0  0  0
   -0.7500   -3.8971    0.0000 C   0  0  0  0  0  0  0  0  0  0  0  0
   -1.5000   -2.5981    0.0000 C   0  0  0  0  0  0  0  0  0  0  0  0
   -0.7500   -1.2990    0.0000 C   0  0  0  0  0  0  0  0  0  0  0  0
    0.7500   -1.2990    0.0000 C   0  0  0  0  0  0  0  0  0  0  0  0
    1.5000    0.0000    0.0000 C   0  0  0  0  0  0  0  0  0  0  0  0
    0.7500    1.2990    0.0000 C   0  0  0  0  0  0  0  0  0  0  0  0
   -0.7500    1.2990    0.0000 N   0  0  0  0  0  0  0  0  0  0  0  0
   -1.5000    0.0000    0.0000 C   0  0  0  0  0  0  0  0  0  0  0  0
   13.1918    0.7552    0.0000 O   0  0  0  0  0  0  0  0  0  0  0  0
   10.6010    0.9494    0.0000 O   0  0  0  0  0  0  0  0  0  0  0  0
  1  2  1  0
  2  3  2  0
  3  4  1  0
  4  5  2  0
  5  6  1  0
  6  7  2  0
  7  8  1  0
  8  9  1  0
  9 10  1  0
 10 11  1  0
 11 12  1  0
 12 13  1  0
 13 14  1  0
 14 15  1  0
 13 16  1  0
 16 17  2  0
 16 18  2  0
 16 19  1  0
 19 20  2  0
 20 21  1  0
 21 22  2  0
 22 23  1  0
 23 24  2  0
 24 25  1  0
 25 26  2  0
 26 27  1  0
 27 28  2  0
  1 29  1  0
  1 30  1  0
  7  2  1  0
 15  9  1  0
 24 19  1  0
 28 23  1  0
M  END
>  <Structure>  (34) 
6I2D

>  <Dataset>  (34) 
PDB

>  <Chain>  (34) 
A

>  <Spatial_Label>  (34) 
DFGin

>  <Dihedral_Label>  (34) 
ABAminus

>  <C_Helix_Label>  (34) 
Chelix-in

>  <Lig_ID>  (34) 
9LQ

>  <Lig_Entity_ID>  (34) 
6I2D_3

>  <Lig_Name>  (34) 
[2-[(4-isoquinolin-5-ylsulfonyl-1,4-diazepan-1-yl)methyl]phenyl]boronic acid

>  <Lig_Formula>  (34) 
C21H24BN3O4S

>  <Lig_SMILES>  (34) 
B(c1ccccc1CN2CCCN(CC2)S(=O)(=O)c3cccc4c3ccnc4)(O)O

>  <Lig_MW>  (34) 
425.309

>  <Lig_ChEMBL_ID>  (34) 
nan

>  <Lig_DrugBank_ID>  (34) 
nan

>  <Occurence>  (34) 
6

>  <Lig_SMILES_Uncharged>  (34) 
O=S(=O)(c1cccc2cnccc12)N1CCCN(Cc2ccccc2B(O)O)CC1

>  <Lig_Conformer>  (34) 
['NaN']

>  <Lig_Of_Interest>  (34) 
['Y']

>  <Lig_Completeness>  (34) 
[1.0]

>  <Lig_Occupancy>  (34) 
[1.0]

>  <Lig_RSCC>  (34) 
[0.91]

>  <Lig_RSR>  (34) 
[0.132]

>  <Lig_RMSZ_Bonds>  (34) 
[1.03]

>  <Lig_RMSZ_Angles>  (34) 
[2.61]

>  <Lig_Alt_Conf>  (34) 
0

>  <Title>  (34) 
Crystal Structure of the Protein-Kinase A catalytic subunit from Cricetulus Griseus in complex with compounds RKp182 and RKp117

>  <Nonpolymer_Entity_Count>  (34) 
1

>  <Protein_Entity_Count>  (34) 
2

>  <Exp_Method>  (34) 
X-Ray Diffraction

>  <Cryst_Method>  (34) 
Vapor Diffusion, Sitting Drop; 100 Mm Mes-Bis-Tris, 75 Mm Lithium Chloride, 1 Mm Dtt, 0.1 Mm Sodium Edta, 0.25 Mm Mega 8, 0.7 Mm Peptidic Ligand, 5 Mm Rkp117, 19% V/V Methanol/Water In Reservoir

>  <Deposit_Date>  (34) 
2018-11-01

>  <Resolution>  (34) 
1.91

>  <DOI>  (34) 
https://doi.org/10.1021/acsomega.8b02364

>  <Source_Organism>  (34) 
Cricetulus griseus

>  <R_Free>  (34) 
0.2217

>  <Keywords>  (34) 
Transferase

>  <REMARK_280>  (34) 
 Crystal Solvent Content, Vs (%): 53.57 Matthews Coefficient, Vm (Angstroms**3/Da): 2.65 Crystallization Conditions: 100 Mm Mes-Bis-Tris, 75 Mm Lithium Chloride, 1 Mm Dtt, 0.1 Mm Sodium Edta, 0.25 Mm Mega 8, 0.7 Mm Peptidic Ligand, 5 Mm Rkp117, 19% V/V Methanol/Water In Reservoir, pH 6.9, Vapor Diffusion, Sitting Drop, Temperature 277.15K 

>  <REMARK_610>  (34) 
nan

>  <pH>  (34) 
6.9

>  <Cryst_Technique>  (34) 
co-crystallized

>  <Sequence>  (34) 
GHMGNAAAAKKGSEQESVKEFLAKAKEEFLKKWESPSQNTAQLDHFDRIKTLGTGSFGRVMLVKHKETGNHYAMKILDKQKVVKLKQIEHTLNEKRILQAVNFPFLVKLEFSFKDNSNLYMVMEYVPGGEMFSHLRRIGRFSEPHARFYAAQIVLTFEYLHSLDLIYRDLKPENLLIDQQGYIQVTDFGFAKRVKGRTWTLCGTPEYLAPEIILSKGYNKAVDWWALGVLIYEMAAGYPPFFADQPIQIYEKIVSGKVRFPSHFSSDLKDLLRNLLQVDLTKRFGNLKNGVNDIKNHKWFATTDWIAIYQRKVEAPFIPKFKGPGDTSNFDDYEEEEIRVSINEKCGKEFTEF

>  <Sequence_Length>  (34) 
353

>  <Mutation_Count>  (34) 
0

>  <Gene_Name>  (34) 
PKACA

>  <MW>  (34) 
41.194

>  <Name>  (34) 
cAMP-Dependent Protein Kinase Catalytic Subunit Alpha

>  <Mutations>  (34) 
nan

>  <EC_Number>  (34) 
2.7.11.11

>  <Peptidic_Inhibitor>  (34) 
True

>  <Lig_Missing_Atoms>  (34) 
['No']

>  <PDBbind_Resolution>  (34) 
nan

>  <PDBbind_Release_Year>  (34) 
nan

>  <PDBbind_Comment>  (34) 
nan

>  <PDBbind_Uniprot_Id>  (34) 
nan

>  <PDBbind_Protein_Name>  (34) 
nan

>  <PDBbind_-Logkd/Ki>  (34) 
nan

>  <PDBbind_Kd/Ki>  (34) 
nan

>  <PDBbind_Kd_Or_Ki_Or_Ic50>  (34) 
nan

>  <PDBbind_Relation>  (34) 
nan

>  <PDBbind_Value>  (34) 
nan

>  <PDBbind_Unit>  (34) 
nan

>  <PDBbind_Standard_Value>  (34) 
nan

>  <PDBbind_Standard_Unit>  (34) 
nan

$$$$

     RDKit          2D

 27 29  0  0  0  0  0  0  0  0999 V2000
    7.5000    2.5981    0.0000 B   0  0  0  0  0  0  0  0  0  0  0  0
    9.0000    2.5981    0.0000 C   0  0  0  0  0  0  0  0  0  0  0  0
    9.7500    3.8971    0.0000 C   0  0  0  0  0  0  0  0  0  0  0  0
   11.2500    3.8971    0.0000 C   0  0  0  0  0  0  0  0  0  0  0  0
   12.0000    2.5981    0.0000 C   0  0  0  0  0  0  0  0  0  0  0  0
   11.2500    1.2990    0.0000 C   0  0  0  0  0  0  0  0  0  0  0  0
    9.7500    1.2990    0.0000 C   0  0  0  0  0  0  0  0  0  0  0  0
    9.0000    0.0000    0.0000 C   0  0  0  0  0  0  0  0  0  0  0  0
    7.5000    0.0000    0.0000 N   0  0  0  0  0  0  0  0  0  0  0  0
    6.7500   -1.2990    0.0000 C   0  0  0  0  0  0  0  0  0  0  0  0
    5.2500   -1.2990    0.0000 C   0  0  0  0  0  0  0  0  0  0  0  0
    4.5000   -2.5981    0.0000 N   0  0  0  0  0  0  0  0  0  0  0  0
    3.0000   -2.5981    0.0000 S   0  0  0  0  0  0  0  0  0  0  0  0
    3.0000   -4.0981    0.0000 O   0  0  0  0  0  0  0  0  0  0  0  0
    3.0000   -1.0981    0.0000 O   0  0  0  0  0  0  0  0  0  0  0  0
    1.5000   -2.5981    0.0000 C   0  0  0  0  0  0  0  0  0  0  0  0
    0.7500   -3.8971    0.0000 C   0  0  0  0  0  0  0  0  0  0  0  0
   -0.7500   -3.8971    0.0000 C   0  0  0  0  0  0  0  0  0  0  0  0
   -1.5000   -2.5981    0.0000 C   0  0  0  0  0  0  0  0  0  0  0  0
   -0.7500   -1.2990    0.0000 C   0  0  0  0  0  0  0  0  0  0  0  0
    0.7500   -1.2990    0.0000 C   0  0  0  0  0  0  0  0  0  0  0  0
    1.5000    0.0000    0.0000 C   0  0  0  0  0  0  0  0  0  0  0  0
    0.7500    1.2990    0.0000 C   0  0  0  0  0  0  0  0  0  0  0  0
   -0.7500    1.2990    0.0000 N   0  0  0  0  0  0  0  0  0  0  0  0
   -1.5000    0.0000    0.0000 C   0  0  0  0  0  0  0  0  0  0  0  0
    6.7500    3.8971    0.0000 O   0  0  0  0  0  0  0  0  0  0  0  0
    6.7500    1.2990    0.0000 O   0  0  0  0  0  0  0  0  0  0  0  0
  1  2  1  0
  2  3  2  0
  3  4  1  0
  4  5  2  0
  5  6  1  0
  6  7  2  0
  7  8  1  0
  8  9  1  0
  9 10  1  0
 10 11  1  0
 11 12  1  0
 12 13  1  0
 13 14  2  0
 13 15  2  0
 13 16  1  0
 16 17  2  0
 17 18  1  0
 18 19  2  0
 19 20  1  0
 20 21  2  0
 21 22  1  0
 22 23  2  0
 23 24  1  0
 24 25  2  0
  1 26  1  0
  1 27  1  0
  7  2  1  0
 21 16  1  0
 25 20  1  0
M  END
>  <Structure>  (35) 
6I2H

>  <Dataset>  (35) 
PDB

>  <Chain>  (35) 
A

>  <Spatial_Label>  (35) 
DFGin

>  <Dihedral_Label>  (35) 
ABAminus

>  <C_Helix_Label>  (35) 
Chelix-in

>  <Lig_ID>  (35) 
AO8

>  <Lig_Entity_ID>  (35) 
6I2H_3

>  <Lig_Name>  (35) 
[2-[[2-(isoquinolin-5-ylsulfonylamino)ethylamino]methyl]phenyl]boronic acid

>  <Lig_Formula>  (35) 
C18H20BN3O4S

>  <Lig_SMILES>  (35) 
B(c1ccccc1CNCCNS(=O)(=O)c2cccc3c2ccnc3)(O)O

>  <Lig_MW>  (35) 
385.245

>  <Lig_ChEMBL_ID>  (35) 
nan

>  <Lig_DrugBank_ID>  (35) 
nan

>  <Occurence>  (35) 
3

>  <Lig_SMILES_Uncharged>  (35) 
O=S(=O)(NCCNCc1ccccc1B(O)O)c1cccc2cnccc12

>  <Lig_Conformer>  (35) 
['NaN']

>  <Lig_Of_Interest>  (35) 
['Y']

>  <Lig_Completeness>  (35) 
[0.8889]

>  <Lig_Occupancy>  (35) 
[1.0]

>  <Lig_RSCC>  (35) 
[0.935]

>  <Lig_RSR>  (35) 
[0.116]

>  <Lig_RMSZ_Bonds>  (35) 
[0.39]

>  <Lig_RMSZ_Angles>  (35) 
[0.69]

>  <Lig_Alt_Conf>  (35) 
0

>  <Title>  (35) 
Crystal Structure of the Protein-Kinase A catalytic subunit from Cricetulus Griseus in complex with compounds RKp182 and RKp190

>  <Nonpolymer_Entity_Count>  (35) 
3

>  <Protein_Entity_Count>  (35) 
2

>  <Exp_Method>  (35) 
X-Ray Diffraction

>  <Cryst_Method>  (35) 
Vapor Diffusion, Sitting Drop; 100 Mm Mes-Bis-Tris, 75 Mm Lithium Chloride, 1 Mm Dtt, 0.1 Mm Sodium Edta, 0.25 Mm Mega 8, 0.7 Mm Peptidic Ligand, 5 Mm Rkp190, 20% V/V Methanol/Water In Reservoir

>  <Deposit_Date>  (35) 
2018-11-01

>  <Resolution>  (35) 
1.68

>  <DOI>  (35) 
nan

>  <Source_Organism>  (35) 
Cricetulus griseus

>  <R_Free>  (35) 
0.2018

>  <Keywords>  (35) 
Transferase

>  <REMARK_280>  (35) 
 Crystal Solvent Content, Vs (%): 57.07 Matthews Coefficient, Vm (Angstroms**3/Da): 2.86 Crystallization Conditions: 100 Mm Mes-Bis-Tris, 75 Mm Lithium Chloride, 1 Mm Dtt, 0.1 Mm Sodium Edta, 0.25 Mm Mega 8, 0.7 Mm Peptidic Ligand, 5 Mm Rkp190, 20% V/V Methanol/Water In Reservoir, pH 6.9, Vapor Diffusion, Sitting Drop, Temperature 277.15K 

>  <REMARK_610>  (35) 
  AO8 A 401 

>  <pH>  (35) 
6.9

>  <Cryst_Technique>  (35) 
nan

>  <Sequence>  (35) 
GHMGNAAAAKKGSEQESVKEFLAKAKEEFLKKWESPSQNTAQLDHFDRIKTLGTGSFGRVMLVKHKETGNHYAMKILDKQKVVKLKQIEHTLNEKRILQAVNFPFLVKLEFSFKDNSNLYMVMEYVPGGEMFSHLRRIGRFSEPHARFYAAQIVLTFEYLHSLDLIYRDLKPENLLIDQQGYIQVTDFGFAKRVKGRTWTLCGTPEYLAPEIILSKGYNKAVDWWALGVLIYEMAAGYPPFFADQPIQIYEKIVSGKVRFPSHFSSDLKDLLRNLLQVDLTKRFGNLKNGVNDIKNHKWFATTDWIAIYQRKVEAPFIPKFKGPGDTSNFDDYEEEEIRVSINEKCGKEFTEF

>  <Sequence_Length>  (35) 
353

>  <Mutation_Count>  (35) 
0

>  <Gene_Name>  (35) 
PKACA

>  <MW>  (35) 
41.194

>  <Name>  (35) 
cAMP-Dependent Protein Kinase Catalytic Subunit Alpha

>  <Mutations>  (35) 
nan

>  <EC_Number>  (35) 
2.7.11.11

>  <Peptidic_Inhibitor>  (35) 
True

>  <Lig_Missing_Atoms>  (35) 
['No']

>  <PDBbind_Resolution>  (35) 
nan

>  <PDBbind_Release_Year>  (35) 
nan

>  <PDBbind_Comment>  (35) 
nan

>  <PDBbind_Uniprot_Id>  (35) 
nan

>  <PDBbind_Protein_Name>  (35) 
nan

>  <PDBbind_-Logkd/Ki>  (35) 
nan

>  <PDBbind_Kd/Ki>  (35) 
nan

>  <PDBbind_Kd_Or_Ki_Or_Ic50>  (35) 
nan

>  <PDBbind_Relation>  (35) 
nan

>  <PDBbind_Value>  (35) 
nan

>  <PDBbind_Unit>  (35) 
nan

>  <PDBbind_Standard_Value>  (35) 
nan

>  <PDBbind_Standard_Unit>  (35) 
nan

$$$$

     RDKit          2D

 11 12  0  0  0  0  0  0  0  0999 V2000
    1.5000    0.0000    0.0000 C   0  0  0  0  0  0  0  0  0  0  0  0
    0.7500   -1.2990    0.0000 C   0  0  0  0  0  0  0  0  0  0  0  0
   -0.7500   -1.2990    0.0000 C   0  0  0  0  0  0  0  0  0  0  0  0
   -1.5000    0.0000    0.0000 C   0  0  0  0  0  0  0  0  0  0  0  0
   -0.7500    1.2990    0.0000 C   0  0  0  0  0  0  0  0  0  0  0  0
    0.7500    1.2990    0.0000 C   0  0  0  0  0  0  0  0  0  0  0  0
   -1.5000    2.5981    0.0000 C   0  0  0  0  0  0  0  0  0  0  0  0
   -3.0000    2.5981    0.0000 N   0  0  0  0  0  0  0  0  0  0  0  0
   -3.7500    1.2990    0.0000 C   0  0  0  0  0  0  0  0  0  0  0  0
   -3.0000    0.0000    0.0000 N   0  0  0  0  0  0  0  0  0  0  0  0
   -0.7500    3.8971    0.0000 N   0  0  0  0  0  0  0  0  0  0  0  0
  1  2  2  0
  2  3  1  0
  3  4  2  0
  4  5  1  0
  5  6  2  0
  5  7  1  0
  7  8  2  0
  8  9  1  0
  9 10  2  0
  7 11  1  0
  6  1  1  0
 10  4  1  0
M  END
>  <Structure>  (36) 
6Y0B

>  <Dataset>  (36) 
PDB

>  <Chain>  (36) 
A

>  <Spatial_Label>  (36) 
DFGin

>  <Dihedral_Label>  (36) 
ABAminus

>  <C_Helix_Label>  (36) 
Chelix-in

>  <Lig_ID>  (36) 
1LQ

>  <Lig_Entity_ID>  (36) 
6Y0B_3

>  <Lig_Name>  (36) 
quinazolin-4-amine

>  <Lig_Formula>  (36) 
C8H7N3

>  <Lig_SMILES>  (36) 
c1ccc2c(c1)c(ncn2)N

>  <Lig_MW>  (36) 
145.161

>  <Lig_ChEMBL_ID>  (36) 
['CHEMBL266128']

>  <Lig_DrugBank_ID>  (36) 
nan

>  <Occurence>  (36) 
1

>  <Lig_SMILES_Uncharged>  (36) 
Nc1ncnc2ccccc12

>  <Lig_Conformer>  (36) 
['NaN']

>  <Lig_Of_Interest>  (36) 
['Y']

>  <Lig_Completeness>  (36) 
[1.0]

>  <Lig_Occupancy>  (36) 
[1.0]

>  <Lig_RSCC>  (36) 
[0.959]

>  <Lig_RSR>  (36) 
[0.078]

>  <Lig_RMSZ_Bonds>  (36) 
[0.26]

>  <Lig_RMSZ_Angles>  (36) 
[0.66]

>  <Lig_Alt_Conf>  (36) 
0

>  <Title>  (36) 
Crystal structure of the cAMP-dependent protein kinase A cocrystallized with quinazolin-4-amine and PKI (5-24)

>  <Nonpolymer_Entity_Count>  (36) 
2

>  <Protein_Entity_Count>  (36) 
2

>  <Exp_Method>  (36) 
X-Ray Diffraction

>  <Cryst_Method>  (36) 
Vapor Diffusion, Hanging Drop; 100 Mm Mes-Bis-Tris-Buffer, 1 Mm Dithiothreitol, 0.1 Mm Sodium Edta, 75 Mm Licl, 0.2 Mega 8, 10Mm Quinazolin-4-Amine In Dmso, 0.5 Mm Pki (5-24) And 22 % Methanol (V/V)0.003 Ml Drop Volume, 0.5 Ml Reservoir Volume

>  <Deposit_Date>  (36) 
2020-02-07

>  <Resolution>  (36) 
1.71

>  <DOI>  (36) 
nan

>  <Source_Organism>  (36) 
Cricetulus griseus

>  <R_Free>  (36) 
0.2122

>  <Keywords>  (36) 
Transferase

>  <REMARK_280>  (36) 
 Crystal Solvent Content, Vs (%): 55.81 Matthews Coefficient, Vm (Angstroms**3/Da): 2.78 Crystallization Conditions: 100 Mm Mes-Bis-Tris-Buffer, 1 Mm Dithiothreitol, 0.1 Mm Sodium Edta, 75 Mm Licl, 0.2 Mega 8, 10Mm Quinazolin-4-Amine In Dmso, 0.5 Mm Pki (5-24) And 22 % Methanol (V/V)0.003 Ml Drop Volume, 0.5 Ml Reservoir Volume, pH 6.9, Vapor Diffusion, Hanging Drop, Temperature 277K 

>  <REMARK_610>  (36) 
nan

>  <pH>  (36) 
6.9

>  <Cryst_Technique>  (36) 
nan

>  <Sequence>  (36) 
GHMGNAAAAKKGSEQESVKEFLAKAKEEFLKKWESPSQNTAQLDHFDRIKTLGTGSFGRVMLVKHKETGNHYAMKILDKQKVVKLKQIEHTLNEKRILQAVNFPFLVKLEFSFKDNSNLYMVMEYVPGGEMFSHLRRIGRFSEPHARFYAAQIVLTFEYLHSLDLIYRDLKPENLLIDQQGYIQVTDFGFAKRVKGRTWTLCGTPEYLAPEIILSKGYNKAVDWWALGVLIYEMAAGYPPFFADQPIQIYEKIVSGKVRFPSHFSSDLKDLLRNLLQVDLTKRFGNLKNGVNDIKNHKWFATTDWIAIYQRKVEAPFIPKFKGPGDTSNFDDYEEEEIRVSINEKCGKEFTEF

>  <Sequence_Length>  (36) 
353

>  <Mutation_Count>  (36) 
0

>  <Gene_Name>  (36) 
PKACA

>  <MW>  (36) 
41.114

>  <Name>  (36) 
cAMP-Dependent Protein Kinase Catalytic Subunit Alpha

>  <Mutations>  (36) 
nan

>  <EC_Number>  (36) 
2.7.11.11

>  <Peptidic_Inhibitor>  (36) 
True

>  <Lig_Missing_Atoms>  (36) 
['No']

>  <PDBbind_Resolution>  (36) 
nan

>  <PDBbind_Release_Year>  (36) 
nan

>  <PDBbind_Comment>  (36) 
nan

>  <PDBbind_Uniprot_Id>  (36) 
nan

>  <PDBbind_Protein_Name>  (36) 
nan

>  <PDBbind_-Logkd/Ki>  (36) 
nan

>  <PDBbind_Kd/Ki>  (36) 
nan

>  <PDBbind_Kd_Or_Ki_Or_Ic50>  (36) 
nan

>  <PDBbind_Relation>  (36) 
nan

>  <PDBbind_Value>  (36) 
nan

>  <PDBbind_Unit>  (36) 
nan

>  <PDBbind_Standard_Value>  (36) 
nan

>  <PDBbind_Standard_Unit>  (36) 
nan

$$$$

     RDKit          2D

 21 23  0  0  0  0  0  0  0  0999 V2000
    1.5000    0.0000    0.0000 C   0  0  0  0  0  0  0  0  0  0  0  0
    0.7500   -1.2990    0.0000 C   0  0  0  0  0  0  0  0  0  0  0  0
   -0.7500   -1.2990    0.0000 C   0  0  0  0  0  0  0  0  0  0  0  0
   -1.5000    0.0000    0.0000 C   0  0  0  0  0  0  0  0  0  0  0  0
   -3.0000    0.0000    0.0000 C   0  0  0  0  0  0  0  0  0  0  0  0
   -3.7500   -1.2990    0.0000 C   0  0  0  0  0  0  0  0  0  0  0  0
   -3.0000   -2.5981    0.0000 N   0  0  0  0  0  0  0  0  0  0  0  0
   -1.5000   -2.5981    0.0000 C   0  0  0  0  0  0  0  0  0  0  0  0
   -0.7500   -3.8971    0.0000 N   0  0  0  0  0  0  0  0  0  0  0  0
   -0.7500    1.2990    0.0000 C   0  0  0  0  0  0  0  0  0  0  0  0
    0.7500    1.2990    0.0000 C   0  0  0  0  0  0  0  0  0  0  0  0
   -1.5000    2.5981    0.0000 S   0  0  0  0  0  0  0  0  0  0  0  0
   -0.2010    3.3481    0.0000 O   0  0  0  0  0  0  0  0  0  0  0  0
   -2.7990    1.8481    0.0000 O   0  0  0  0  0  0  0  0  0  0  0  0
   -2.2500    3.8971    0.0000 N   0  0  0  0  0  0  0  0  0  0  0  0
   -3.7458    3.7850    0.0000 C   0  0  0  0  0  0  0  0  0  0  0  0
   -4.7661    4.8846    0.0000 C   0  0  0  0  0  0  0  0  0  0  0  0
   -4.5425    6.3678    0.0000 C   0  0  0  0  0  0  0  0  0  0  0  0
   -3.2435    7.1178    0.0000 N   0  0  0  0  0  0  0  0  0  0  0  0
   -1.8472    6.5698    0.0000 C   0  0  0  0  0  0  0  0  0  0  0  0
   -1.4050    5.1365    0.0000 C   0  0  0  0  0  0  0  0  0  0  0  0
  1  2  2  0
  2  3  1  0
  3  4  2  0
  4  5  1  0
  5  6  2  0
  6  7  1  0
  7  8  2  0
  8  9  1  0
  4 10  1  0
 10 11  2  0
 10 12  1  0
 12 13  2  0
 12 14  2  0
 12 15  1  0
 15 16  1  0
 16 17  1  0
 17 18  1  0
 18 19  1  0
 19 20  1  0
 20 21  1  0
 11  1  1  0
  8  3  1  0
 21 15  1  0
M  END
>  <Structure>  (37) 
6Y2U

>  <Dataset>  (37) 
PDB

>  <Chain>  (37) 
A

>  <Spatial_Label>  (37) 
DFGin

>  <Dihedral_Label>  (37) 
ABAminus

>  <C_Helix_Label>  (37) 
Chelix-in

>  <Lig_ID>  (37) 
LRT

>  <Lig_Entity_ID>  (37) 
6Y2U_3

>  <Lig_Name>  (37) 
5-(1,4-diazepan-1-ylsulfonyl)isoquinolin-1-amine

>  <Lig_Formula>  (37) 
C14H18N4O2S

>  <Lig_SMILES>  (37) 
c1cc2c(ccnc2N)c(c1)S(=O)(=O)N3CCCNCC3

>  <Lig_MW>  (37) 
306.383

>  <Lig_ChEMBL_ID>  (37) 
['CHEMBL1667963']

>  <Lig_DrugBank_ID>  (37) 
nan

>  <Occurence>  (37) 
3

>  <Lig_SMILES_Uncharged>  (37) 
Nc1nccc2c(S(=O)(=O)N3CCCNCC3)cccc12

>  <Lig_Conformer>  (37) 
['A', 'B']

>  <Lig_Of_Interest>  (37) 
['Y', 'Y']

>  <Lig_Completeness>  (37) 
[1.0, 1.0]

>  <Lig_Occupancy>  (37) 
[1.0, 1.0]

>  <Lig_RSCC>  (37) 
[0.953, 0.953]

>  <Lig_RSR>  (37) 
[0.11, 0.11]

>  <Lig_RMSZ_Bonds>  (37) 
[0.18, 0.17]

>  <Lig_RMSZ_Angles>  (37) 
[0.46, 0.38]

>  <Lig_Alt_Conf>  (37) 
2

>  <Title>  (37) 
Crystal structure of the cAMP-dependent protein kinase A cocrystallized with aminofasudil and PKI (5-24)

>  <Nonpolymer_Entity_Count>  (37) 
1

>  <Protein_Entity_Count>  (37) 
2

>  <Exp_Method>  (37) 
X-Ray Diffraction

>  <Cryst_Method>  (37) 
Vapor Diffusion, Hanging Drop; 100 Mm Mes-Bis-Tris-Buffer, 1 Mm Dithiothreitol, 0.1 Mm Sodium Edta, 75 Mm Licl, 0.2 Mega8, 5 Mm Aminofasudil (In Dmso), 0.5 Mm Pki (5-24) And 18-23 % Methanol (V/V)0.004 Ml Drop Volume, 0.5 Ml Reservoir Volume

>  <Deposit_Date>  (37) 
2020-02-17

>  <Resolution>  (37) 
1.93

>  <DOI>  (37) 
nan

>  <Source_Organism>  (37) 
Cricetulus griseus

>  <R_Free>  (37) 
0.2215

>  <Keywords>  (37) 
Transferase

>  <REMARK_280>  (37) 
 Crystal Solvent Content, Vs (%): 52.70 Matthews Coefficient, Vm (Angstroms**3/Da): 2.72 Crystallization Conditions: 100 Mm Mes-Bis-Tris-Buffer, 1 Mm Dithiothreitol, 0.1 Mm Sodium Edta, 75 Mm Licl, 0.2 Mega8, 5 Mm Aminofasudil (In Dmso), 0.5 Mm Pki (5-24) And 18-23 % Methanol (V/V)0.004 Ml Drop Volume, 0.5 Ml Reservoir Volume, pH 6.9, Vapor Diffusion, Hanging Drop, Temperature 277K 

>  <REMARK_610>  (37) 
nan

>  <pH>  (37) 
6.9

>  <Cryst_Technique>  (37) 
nan

>  <Sequence>  (37) 
GHMGNAAAAKKGSEQESVKEFLAKAKEEFLKKWESPSQNTAQLDHFDRIKTLGTGSFGRVMLVKHKETGNHYAMKILDKQKVVKLKQIEHTLNEKRILQAVNFPFLVKLEFSFKDNSNLYMVMEYVPGGEMFSHLRRIGRFSEPHARFYAAQIVLTFEYLHSLDLIYRDLKPENLLIDQQGYIQVTDFGFAKRVKGRTWTLCGTPEYLAPEIILSKGYNKAVDWWALGVLIYEMAAGYPPFFADQPIQIYEKIVSGKVRFPSHFSSDLKDLLRNLLQVDLTKRFGNLKNGVNDIKNHKWFATTDWIAIYQRKVEAPFIPKFKGPGDTSNFDDYEEEEIRVSINEKCGKEFTEF

>  <Sequence_Length>  (37) 
353

>  <Mutation_Count>  (37) 
0

>  <Gene_Name>  (37) 
PKACA

>  <MW>  (37) 
41.114

>  <Name>  (37) 
cAMP-Dependent Protein Kinase Catalytic Subunit Alpha

>  <Mutations>  (37) 
nan

>  <EC_Number>  (37) 
2.7.11.11

>  <Peptidic_Inhibitor>  (37) 
True

>  <Lig_Missing_Atoms>  (37) 
['No', 'No']

>  <PDBbind_Resolution>  (37) 
nan

>  <PDBbind_Release_Year>  (37) 
nan

>  <PDBbind_Comment>  (37) 
nan

>  <PDBbind_Uniprot_Id>  (37) 
nan

>  <PDBbind_Protein_Name>  (37) 
nan

>  <PDBbind_-Logkd/Ki>  (37) 
nan

>  <PDBbind_Kd/Ki>  (37) 
nan

>  <PDBbind_Kd_Or_Ki_Or_Ic50>  (37) 
nan

>  <PDBbind_Relation>  (37) 
nan

>  <PDBbind_Value>  (37) 
nan

>  <PDBbind_Unit>  (37) 
nan

>  <PDBbind_Standard_Value>  (37) 
nan

>  <PDBbind_Standard_Unit>  (37) 
nan

$$$$

     RDKit          2D

 11 12  0  0  0  0  0  0  0  0999 V2000
    1.5000    0.0000    0.0000 C   0  0  0  0  0  0  0  0  0  0  0  0
    0.7500   -1.2990    0.0000 C   0  0  0  0  0  0  0  0  0  0  0  0
   -0.7500   -1.2990    0.0000 C   0  0  0  0  0  0  0  0  0  0  0  0
   -1.5000    0.0000    0.0000 C   0  0  0  0  0  0  0  0  0  0  0  0
   -0.7500    1.2990    0.0000 C   0  0  0  0  0  0  0  0  0  0  0  0
    0.7500    1.2990    0.0000 C   0  0  0  0  0  0  0  0  0  0  0  0
   -1.5000    2.5981    0.0000 C   0  0  0  0  0  0  0  0  0  0  0  0
   -3.0000    2.5981    0.0000 C   0  0  0  0  0  0  0  0  0  0  0  0
   -3.7500    1.2990    0.0000 N   0  0  0  0  0  0  0  0  0  0  0  0
   -3.0000    0.0000    0.0000 C   0  0  0  0  0  0  0  0  0  0  0  0
   -3.7500   -1.2990    0.0000 N   0  0  0  0  0  0  0  0  0  0  0  0
  1  2  2  0
  2  3  1  0
  3  4  2  0
  4  5  1  0
  5  6  2  0
  5  7  1  0
  7  8  2  0
  8  9  1  0
  9 10  2  0
 10 11  1  0
  6  1  1  0
 10  4  1  0
M  END
>  <Structure>  (38) 
7AXW

>  <Dataset>  (38) 
PDB

>  <Chain>  (38) 
A

>  <Spatial_Label>  (38) 
DFGin

>  <Dihedral_Label>  (38) 
ABAminus

>  <C_Helix_Label>  (38) 
Chelix-in

>  <Lig_ID>  (38) 
1SQ

>  <Lig_Entity_ID>  (38) 
7AXW_3

>  <Lig_Name>  (38) 
ISOQUINOLIN-1-AMINE

>  <Lig_Formula>  (38) 
C9H8N2

>  <Lig_SMILES>  (38) 
c1ccc2c(c1)ccnc2N

>  <Lig_MW>  (38) 
144.173

>  <Lig_ChEMBL_ID>  (38) 
['CHEMBL62083']

>  <Lig_DrugBank_ID>  (38) 
nan

>  <Occurence>  (38) 
1

>  <Lig_SMILES_Uncharged>  (38) 
Nc1nccc2ccccc12

>  <Lig_Conformer>  (38) 
['NaN']

>  <Lig_Of_Interest>  (38) 
['Y']

>  <Lig_Completeness>  (38) 
[1.0]

>  <Lig_Occupancy>  (38) 
[1.0]

>  <Lig_RSCC>  (38) 
[0.956]

>  <Lig_RSR>  (38) 
[0.078]

>  <Lig_RMSZ_Bonds>  (38) 
['NaN']

>  <Lig_RMSZ_Angles>  (38) 
['NaN']

>  <Lig_Alt_Conf>  (38) 
0

>  <Title>  (38) 
Crystal structure of the cAMP-dependent protein kinase A cocrystallized with 1-aminoisoquinoline and PKI (5-24)

>  <Nonpolymer_Entity_Count>  (38) 
1

>  <Protein_Entity_Count>  (38) 
2

>  <Exp_Method>  (38) 
X-Ray Diffraction

>  <Cryst_Method>  (38) 
Vapor Diffusion, Hanging Drop; 30Mm Mbt, 1Mm Dtt, 0.1Mm Edta, 75Mm Licl, 0.3Mm Mega8, 0.07Mm Pki, 10Mm Of 1-Aminoisoquinoline (Solved In Dmso, 100Mm) And 20% (V/V) Meoh

>  <Deposit_Date>  (38) 
2020-11-10

>  <Resolution>  (38) 
1.69

>  <DOI>  (38) 
nan

>  <Source_Organism>  (38) 
Cricetulus griseus

>  <R_Free>  (38) 
0.2193

>  <Keywords>  (38) 
Transferase

>  <REMARK_280>  (38) 
 Crystal Solvent Content, Vs (%): 55.60 Matthews Coefficient, Vm (Angstroms**3/Da): 2.77 Crystallization Conditions: 30Mm Mbt, 1Mm Dtt, 0.1Mm Edta, 75Mm Licl, 0.3Mm Mega8, 0.07Mm Pki, 10Mm Of 1-Aminoisoquinoline (Solved In Dmso, 100Mm) And 20% (V/V) Meoh, pH 6.9, Vapor Diffusion, Hanging Drop, Temperature 277K 

>  <REMARK_610>  (38) 
nan

>  <pH>  (38) 
6.9

>  <Cryst_Technique>  (38) 
nan

>  <Sequence>  (38) 
GHMGNAAAAKKGSEQESVKEFLAKAKEEFLKKWESPSQNTAQLDHFDRIKTLGTGSFGRVMLVKHKETGNHYAMKILDKQKVVKLKQIEHTLNEKRILQAVNFPFLVKLEFSFKDNSNLYMVMEYVPGGEMFSHLRRIGRFSEPHARFYAAQIVLTFEYLHSLDLIYRDLKPENLLIDQQGYIQVTDFGFAKRVKGRTWTLCGTPEYLAPEIILSKGYNKAVDWWALGVLIYEMAAGYPPFFADQPIQIYEKIVSGKVRFPSHFSSDLKDLLRNLLQVDLTKRFGNLKNGVNDIKNHKWFATTDWIAIYQRKVEAPFIPKFKGPGDTSNFDDYEEEEIRVSINEKCGKEFTEF

>  <Sequence_Length>  (38) 
353

>  <Mutation_Count>  (38) 
0

>  <Gene_Name>  (38) 
PKACA

>  <MW>  (38) 
41.114

>  <Name>  (38) 
cAMP-Dependent Protein Kinase Catalytic Subunit Alpha

>  <Mutations>  (38) 
nan

>  <EC_Number>  (38) 
2.7.11.11

>  <Peptidic_Inhibitor>  (38) 
True

>  <Lig_Missing_Atoms>  (38) 
['No']

>  <PDBbind_Resolution>  (38) 
nan

>  <PDBbind_Release_Year>  (38) 
nan

>  <PDBbind_Comment>  (38) 
nan

>  <PDBbind_Uniprot_Id>  (38) 
nan

>  <PDBbind_Protein_Name>  (38) 
nan

>  <PDBbind_-Logkd/Ki>  (38) 
nan

>  <PDBbind_Kd/Ki>  (38) 
nan

>  <PDBbind_Kd_Or_Ki_Or_Ic50>  (38) 
nan

>  <PDBbind_Relation>  (38) 
nan

>  <PDBbind_Value>  (38) 
nan

>  <PDBbind_Unit>  (38) 
nan

>  <PDBbind_Standard_Value>  (38) 
nan

>  <PDBbind_Standard_Unit>  (38) 
nan

$$$$

     RDKit          2D

 23 24  0  0  0  0  0  0  0  0999 V2000
    1.5000    0.0000    0.0000 C   0  0  0  0  0  0  0  0  0  0  0  0
    0.7500   -1.2990    0.0000 C   0  0  0  0  0  0  0  0  0  0  0  0
   -0.7500   -1.2990    0.0000 C   0  0  0  0  0  0  0  0  0  0  0  0
   -1.5000    0.0000    0.0000 C   0  0  0  0  0  0  0  0  0  0  0  0
   -0.7500    1.2990    0.0000 C   0  0  0  0  0  0  0  0  0  0  0  0
    0.7500    1.2990    0.0000 C   0  0  0  0  0  0  0  0  0  0  0  0
   -1.5000    2.5981    0.0000 Cl  0  0  0  0  0  0  0  0  0  0  0  0
   -1.5000   -2.5981    0.0000 C   0  0  0  0  0  0  0  0  0  0  0  0
   -3.0000   -2.5981    0.0000 C   0  0  0  0  0  0  0  0  0  0  0  0
   -3.7500   -3.8971    0.0000 N   0  0  0  0  0  0  0  0  0  0  0  0
   -0.7500   -3.8971    0.0000 C   0  0  0  0  0  0  0  0  0  0  0  0
    0.7500   -3.8971    0.0000 O   0  0  0  0  0  0  0  0  0  0  0  0
   -1.5000   -5.1962    0.0000 N   0  0  0  0  0  0  0  0  0  0  0  0
   -0.7500   -6.4952    0.0000 N   0  0  0  0  0  0  0  0  0  0  0  0
   -1.5000   -7.7942    0.0000 C   0  0  0  0  0  0  0  0  0  0  0  0
   -0.7500   -9.0933    0.0000 C   0  0  0  0  0  0  0  0  0  0  0  0
   -1.5000  -10.3923    0.0000 C   0  0  0  0  0  0  0  0  0  0  0  0
   -0.7500  -11.6913    0.0000 C   0  0  0  0  0  0  0  0  0  0  0  0
    0.7500  -11.6913    0.0000 C   0  0  0  0  0  0  0  0  0  0  0  0
    1.5000  -10.3923    0.0000 C   0  0  0  0  0  0  0  0  0  0  0  0
    0.7500   -9.0933    0.0000 C   0  0  0  0  0  0  0  0  0  0  0  0
    3.0000  -10.3923    0.0000 Br  0  0  0  0  0  0  0  0  0  0  0  0
    1.5000  -12.9904    0.0000 O   0  0  0  0  0  0  0  0  0  0  0  0
  1  2  2  0
  2  3  1  0
  3  4  2  0
  4  5  1  0
  5  6  2  0
  5  7  1  0
  3  8  1  0
  8  9  1  6
  9 10  1  0
  8 11  1  0
 11 12  2  0
 11 13  1  0
 13 14  1  0
 14 15  2  0
 15 16  1  0
 16 17  2  0
 17 18  1  0
 18 19  2  0
 19 20  1  0
 20 21  2  0
 20 22  1  0
 19 23  1  0
  6  1  1  0
 21 16  1  0
M  END
>  <Structure>  (39) 
7BAQ

>  <Dataset>  (39) 
PDB

>  <Chain>  (39) 
A

>  <Spatial_Label>  (39) 
DFGin

>  <Dihedral_Label>  (39) 
ABAminus

>  <C_Helix_Label>  (39) 
Chelix-in

>  <Lig_ID>  (39) 
T82

>  <Lig_Entity_ID>  (39) 
7BAQ_3

>  <Lig_Name>  (39) 
(S,E)-3-(2-(3-bromo-4-hydroxybenzylidene)hydrazineyl)-2-(3-chlorophenyl)-3-oxopropan-1-aminium

>  <Lig_Formula>  (39) 
C16H15BrClN3O2

>  <Lig_SMILES>  (39) 
c1cc(cc(c1)Cl)[C@@H](CN)C(=O)N/N=C/c2ccc(c(c2)Br)O

>  <Lig_MW>  (39) 
396.666

>  <Lig_ChEMBL_ID>  (39) 
nan

>  <Lig_DrugBank_ID>  (39) 
nan

>  <Occurence>  (39) 
2

>  <Lig_SMILES_Uncharged>  (39) 
NC[C@@H](C(=O)N/N=C/c1ccc(O)c(Br)c1)c1cccc(Cl)c1

>  <Lig_Conformer>  (39) 
['NaN']

>  <Lig_Of_Interest>  (39) 
['Y']

>  <Lig_Completeness>  (39) 
[1.0]

>  <Lig_Occupancy>  (39) 
[1.0]

>  <Lig_RSCC>  (39) 
[0.981]

>  <Lig_RSR>  (39) 
[0.089]

>  <Lig_RMSZ_Bonds>  (39) 
[0.34]

>  <Lig_RMSZ_Angles>  (39) 
[0.62]

>  <Lig_Alt_Conf>  (39) 
0

>  <Title>  (39) 
Crystal structure of the cAMP-dependent protein kinase A cocrystallized with a chiral ligand (S- and E-configuration) and PKI (5-24)

>  <Nonpolymer_Entity_Count>  (39) 
1

>  <Protein_Entity_Count>  (39) 
2

>  <Exp_Method>  (39) 
X-Ray Diffraction

>  <Cryst_Method>  (39) 
Vapor Diffusion, Sitting Drop; 0.2 Mm Pka In 100 Mm Mes-Bis-Tris-Buffer, 1 Mm Dithiothreitol, 0.1 Mm Sodium Edta, 75 Mm Licl, 0.2 Mm Mega 8, 0.5 Mm Pki And 18-23 % Methanol (V/V) 0.003 Ml Drop Volume, 0.5 Ml Reservoir Volume

>  <Deposit_Date>  (39) 
2020-12-16

>  <Resolution>  (39) 
1.54

>  <DOI>  (39) 
nan

>  <Source_Organism>  (39) 
Cricetulus griseus

>  <R_Free>  (39) 
0.2204

>  <Keywords>  (39) 
Transferase

>  <REMARK_280>  (39) 
 Crystal Solvent Content, Vs (%): 48.60 Matthews Coefficient, Vm (Angstroms**3/Da): 2.39 Crystallization Conditions: 0.2 Mm Pka In 100 Mm Mes-Bis-Tris -Buffer, 1 Mm Dithiothreitol, 0.1 Mm Sodium Edta, 75 Mm Licl, 0.2 Mm Mega 8, 0.5 Mm Pki And 18-23 % Methanol (V/V) 0.003 Ml Drop Volume, 0.5 Ml Reservoir Volume, pH 7.0, Vapor Diffusion, Sitting Drop, Temperature 277K 

>  <REMARK_610>  (39) 
nan

>  <pH>  (39) 
7.0

>  <Cryst_Technique>  (39) 
nan

>  <Sequence>  (39) 
GHMGNAAAAKKGSEQESVKEFLAKAKEEFLKKWESPSQNTAQLDHFDRIKTLGTGSFGRVMLVKHKETGNHYAMKILDKQKVVKLKQIEHTLNEKRILQAVNFPFLVKLEFSFKDNSNLYMVMEYVPGGEMFSHLRRIGRFSEPHARFYAAQIVLTFEYLHSLDLIYRDLKPENLLIDQQGYIQVTDFGFAKRVKGRTWTLCGTPEYLAPEIILSKGYNKAVDWWALGVLIYEMAAGYPPFFADQPIQIYEKIVSGKVRFPSHFSSDLKDLLRNLLQVDLTKRFGNLKNGVNDIKNHKWFATTDWIAIYQRKVEAPFIPKFKGPGDTSNFDDYEEEEIRVSINEKCGKEFTEF

>  <Sequence_Length>  (39) 
353

>  <Mutation_Count>  (39) 
0

>  <Gene_Name>  (39) 
PKACA

>  <MW>  (39) 
41.034

>  <Name>  (39) 
cAMP-Dependent Protein Kinase Catalytic Subunit Alpha

>  <Mutations>  (39) 
nan

>  <EC_Number>  (39) 
2.7.11.11

>  <Peptidic_Inhibitor>  (39) 
True

>  <Lig_Missing_Atoms>  (39) 
['No']

>  <PDBbind_Resolution>  (39) 
nan

>  <PDBbind_Release_Year>  (39) 
nan

>  <PDBbind_Comment>  (39) 
nan

>  <PDBbind_Uniprot_Id>  (39) 
nan

>  <PDBbind_Protein_Name>  (39) 
nan

>  <PDBbind_-Logkd/Ki>  (39) 
nan

>  <PDBbind_Kd/Ki>  (39) 
nan

>  <PDBbind_Kd_Or_Ki_Or_Ic50>  (39) 
nan

>  <PDBbind_Relation>  (39) 
nan

>  <PDBbind_Value>  (39) 
nan

>  <PDBbind_Unit>  (39) 
nan

>  <PDBbind_Standard_Value>  (39) 
nan

>  <PDBbind_Standard_Unit>  (39) 
nan

$$$$

     RDKit          2D

 21 23  0  0  0  0  0  0  0  0999 V2000
    1.5000    0.0000    0.0000 C   0  0  0  0  0  0  0  0  0  0  0  0
    0.7500   -1.2990    0.0000 C   0  0  0  0  0  0  0  0  0  0  0  0
   -0.7500   -1.2990    0.0000 C   0  0  0  0  0  0  0  0  0  0  0  0
   -1.5000    0.0000    0.0000 C   0  0  0  0  0  0  0  0  0  0  0  0
   -0.7500    1.2990    0.0000 C   0  0  0  0  0  0  0  0  0  0  0  0
    0.7500    1.2990    0.0000 C   0  0  0  0  0  0  0  0  0  0  0  0
   -1.5000    2.5981    0.0000 C   0  0  0  0  0  0  0  0  0  0  0  0
   -0.7500    3.8971    0.0000 C   0  0  0  0  0  0  0  0  0  0  0  0
   -1.5000    5.1962    0.0000 O   0  0  0  0  0  0  0  0  0  0  0  0
   -3.0000    5.1962    0.0000 C   0  0  0  0  0  0  0  0  0  0  0  0
   -3.7500    3.8971    0.0000 C   0  0  0  0  0  0  0  0  0  0  0  0
   -3.0000    2.5981    0.0000 N   0  0  0  0  0  0  0  0  0  0  0  0
   -1.5000   -2.5981    0.0000 C   0  0  0  0  0  0  0  0  0  0  0  0
   -3.0000   -2.5981    0.0000 C   0  0  0  0  0  0  0  0  0  0  0  0
   -3.7500   -3.8971    0.0000 C   0  0  0  0  0  0  0  0  0  0  0  0
   -3.0000   -5.1962    0.0000 C   0  0  0  0  0  0  0  0  0  0  0  0
   -1.5000   -5.1962    0.0000 C   0  0  0  0  0  0  0  0  0  0  0  0
   -0.7500   -3.8971    0.0000 C   0  0  0  0  0  0  0  0  0  0  0  0
   -0.7500   -6.4952    0.0000 C   0  0  0  0  0  0  0  0  0  0  0  0
   -0.0000   -7.7942    0.0000 N   0  0  0  0  0  0  0  0  0  0  0  0
   -3.7500   -6.4952    0.0000 N   0  0  0  0  0  0  0  0  0  0  0  0
  1  2  2  0
  2  3  1  0
  3  4  2  0
  4  5  1  0
  5  6  2  0
  7  5  1  1
  7  8  1  0
  8  9  1  0
  9 10  1  0
 10 11  1  0
 11 12  1  0
  3 13  1  0
 13 14  2  0
 14 15  1  0
 15 16  2  0
 16 17  1  0
 17 18  2  0
 17 19  1  0
 19 20  3  0
 16 21  1  0
  6  1  1  0
 12  7  1  0
 18 13  1  0
M  END
>  <Structure>  (40) 
7PID

>  <Dataset>  (40) 
PDB

>  <Chain>  (40) 
A

>  <Spatial_Label>  (40) 
DFGin

>  <Dihedral_Label>  (40) 
ABAminus

>  <C_Helix_Label>  (40) 
Chelix-in

>  <Lig_ID>  (40) 
7QI

>  <Lig_Entity_ID>  (40) 
7PID_3

>  <Lig_Name>  (40) 
2-azanyl-5-[3-[(3R)-morpholin-3-yl]phenyl]benzenecarbonitrile

>  <Lig_Formula>  (40) 
C17H17N3O

>  <Lig_SMILES>  (40) 
c1cc(cc(c1)[C@@H]2COCCN2)c3ccc(c(c3)C#N)N

>  <Lig_MW>  (40) 
279.336

>  <Lig_ChEMBL_ID>  (40) 
nan

>  <Lig_DrugBank_ID>  (40) 
nan

>  <Occurence>  (40) 
1

>  <Lig_SMILES_Uncharged>  (40) 
N#Cc1cc(-c2cccc([C@@H]3COCCN3)c2)ccc1N

>  <Lig_Conformer>  (40) 
['NaN']

>  <Lig_Of_Interest>  (40) 
['Y']

>  <Lig_Completeness>  (40) 
[1.0]

>  <Lig_Occupancy>  (40) 
[1.0]

>  <Lig_RSCC>  (40) 
[0.938]

>  <Lig_RSR>  (40) 
[0.082]

>  <Lig_RMSZ_Bonds>  (40) 
[0.25]

>  <Lig_RMSZ_Angles>  (40) 
[0.41]

>  <Lig_Alt_Conf>  (40) 
0

>  <Title>  (40) 
Protein kinase A catalytic subunit in complex with PKI5-24 and EN060

>  <Nonpolymer_Entity_Count>  (40) 
2

>  <Protein_Entity_Count>  (40) 
2

>  <Exp_Method>  (40) 
X-Ray Diffraction

>  <Cryst_Method>  (40) 
Vapor Diffusion, Sitting Drop; Protein At 8 Mg/Ml In 100 Mm Mes-Bis-Tris pH 6.9, 75 Mm Lithium Chloride, 1 Mm Dtt, 100 Mm Sodium-Edta.  Master-Mix: 540 Ul Of Protein + 15 Ul 10 Mm Mega8 In Water + 45 Ul 10 Mm Pki5-24 In Protein-Buffer. 70 % Master-Mix Mixed With 30 % 50 Mm Ligand In Dmso Before Setting Of Drops. 15-24 % Methanol/Water In Reservoir.

>  <Deposit_Date>  (40) 
2021-08-19

>  <Resolution>  (40) 
1.496

>  <DOI>  (40) 
https://doi.org/10.1021/acs.jmedchem.2c00813

>  <Source_Organism>  (40) 
Cricetulus griseus

>  <R_Free>  (40) 
0.16138

>  <Keywords>  (40) 
Transferase

>  <REMARK_280>  (40) 
 Crystal Solvent Content, Vs (%): 54.51 Matthews Coefficient, Vm (Angstroms**3/Da): 2.70 Crystallization Conditions: Protein At 8 Mg/Ml In 100 Mm Mes-Bis -Tris pH 6.9, 75 Mm Lithium Chloride, 1 Mm Dtt, 100 Mm Sodium- Edta. Master-Mix: 540 Ul Of Protein + 15 Ul 10 Mm Mega8 In Water + 45 Ul 10 Mm Pki5-24 In Protein-Buffer. 70 % Master-Mix Mixed With 30 % 50 Mm Ligand In Dmso Before Setting Of Drops. 15-24 % Methanol/Water In Reservoir., Vapor Diffusion, Sitting Drop, Temperature 277.15K 

>  <REMARK_610>  (40) 
nan

>  <pH>  (40) 
6.9

>  <Cryst_Technique>  (40) 
co-crystallized

>  <Sequence>  (40) 
GHMGNAAAAKKGSEQESVKEFLAKAKEEFLKKWESPSQNTAQLDHFDRIKTLGTGSFGRVMLVKHKETGNHYAMKILDKQKVVKLKQIEHTLNEKRILQAVNFPFLVKLEFSFKDNSNLYMVMEYVPGGEMFSHLRRIGRFSEPHARFYAAQIVLTFEYLHSLDLIYRDLKPENLLIDQQGYIQVTDFGFAKRVKGRTWTLCGTPEYLAPEIILSKGYNKAVDWWALGVLIYEMAAGYPPFFADQPIQIYEKIVSGKVRFPSHFSSDLKDLLRNLLQVDLTKRFGNLKNGVNDIKNHKWFATTDWIAIYQRKVEAPFIPKFKGPGDTSNFDDYEEEEIRVSINEKCGKEFTEF

>  <Sequence_Length>  (40) 
353

>  <Mutation_Count>  (40) 
0

>  <Gene_Name>  (40) 
PKACA

>  <MW>  (40) 
41.194

>  <Name>  (40) 
cAMP-Dependent Protein Kinase Catalytic Subunit Alpha

>  <Mutations>  (40) 
nan

>  <EC_Number>  (40) 
2.7.11.11

>  <Peptidic_Inhibitor>  (40) 
True

>  <Lig_Missing_Atoms>  (40) 
['No']

>  <PDBbind_Resolution>  (40) 
nan

>  <PDBbind_Release_Year>  (40) 
nan

>  <PDBbind_Comment>  (40) 
nan

>  <PDBbind_Uniprot_Id>  (40) 
nan

>  <PDBbind_Protein_Name>  (40) 
nan

>  <PDBbind_-Logkd/Ki>  (40) 
nan

>  <PDBbind_Kd/Ki>  (40) 
nan

>  <PDBbind_Kd_Or_Ki_Or_Ic50>  (40) 
nan

>  <PDBbind_Relation>  (40) 
nan

>  <PDBbind_Value>  (40) 
nan

>  <PDBbind_Unit>  (40) 
nan

>  <PDBbind_Standard_Value>  (40) 
nan

>  <PDBbind_Standard_Unit>  (40) 
nan

$$$$

     RDKit          2D

 21 23  0  0  0  0  0  0  0  0999 V2000
    1.5000    0.0000    0.0000 C   0  0  0  0  0  0  0  0  0  0  0  0
    0.7500   -1.2990    0.0000 C   0  0  0  0  0  0  0  0  0  0  0  0
   -0.7500   -1.2990    0.0000 C   0  0  0  0  0  0  0  0  0  0  0  0
   -1.5000    0.0000    0.0000 C   0  0  0  0  0  0  0  0  0  0  0  0
   -0.7500    1.2990    0.0000 C   0  0  0  0  0  0  0  0  0  0  0  0
    0.7500    1.2990    0.0000 C   0  0  0  0  0  0  0  0  0  0  0  0
   -1.5000    2.5981    0.0000 C   0  0  0  0  0  0  0  0  0  0  0  0
   -0.7500    3.8971    0.0000 C   0  0  0  0  0  0  0  0  0  0  0  0
   -1.5000    5.1962    0.0000 N   0  0  0  0  0  0  0  0  0  0  0  0
   -3.0000    5.1962    0.0000 C   0  0  0  0  0  0  0  0  0  0  0  0
   -3.7500    3.8971    0.0000 C   0  0  0  0  0  0  0  0  0  0  0  0
   -3.0000    2.5981    0.0000 O   0  0  0  0  0  0  0  0  0  0  0  0
   -1.5000   -2.5981    0.0000 C   0  0  0  0  0  0  0  0  0  0  0  0
   -3.0000   -2.5981    0.0000 C   0  0  0  0  0  0  0  0  0  0  0  0
   -3.7500   -3.8971    0.0000 C   0  0  0  0  0  0  0  0  0  0  0  0
   -3.0000   -5.1962    0.0000 C   0  0  0  0  0  0  0  0  0  0  0  0
   -1.5000   -5.1962    0.0000 C   0  0  0  0  0  0  0  0  0  0  0  0
   -0.7500   -3.8971    0.0000 C   0  0  0  0  0  0  0  0  0  0  0  0
   -0.7500   -6.4952    0.0000 C   0  0  0  0  0  0  0  0  0  0  0  0
   -0.0000   -7.7942    0.0000 N   0  0  0  0  0  0  0  0  0  0  0  0
   -3.7500   -6.4952    0.0000 N   0  0  0  0  0  0  0  0  0  0  0  0
  1  2  2  0
  2  3  1  0
  3  4  2  0
  4  5  1  0
  5  6  2  0
  7  5  1  1
  7  8  1  0
  8  9  1  0
  9 10  1  0
 10 11  1  0
 11 12  1  0
  3 13  1  0
 13 14  2  0
 14 15  1  0
 15 16  2  0
 16 17  1  0
 17 18  2  0
 17 19  1  0
 19 20  3  0
 16 21  1  0
  6  1  1  0
 12  7  1  0
 18 13  1  0
M  END
>  <Structure>  (41) 
7PIE

>  <Dataset>  (41) 
PDB

>  <Chain>  (41) 
A

>  <Spatial_Label>  (41) 
DFGin

>  <Dihedral_Label>  (41) 
ABAminus

>  <C_Helix_Label>  (41) 
Chelix-in

>  <Lig_ID>  (41) 
7QF

>  <Lig_Entity_ID>  (41) 
7PIE_3

>  <Lig_Name>  (41) 
2-azanyl-5-[3-[(2R)-morpholin-2-yl]phenyl]benzenecarbonitrile

>  <Lig_Formula>  (41) 
C17H17N3O

>  <Lig_SMILES>  (41) 
c1cc(cc(c1)[C@@H]2CNCCO2)c3ccc(c(c3)C#N)N

>  <Lig_MW>  (41) 
279.336

>  <Lig_ChEMBL_ID>  (41) 
nan

>  <Lig_DrugBank_ID>  (41) 
nan

>  <Occurence>  (41) 
1

>  <Lig_SMILES_Uncharged>  (41) 
N#Cc1cc(-c2cccc([C@@H]3CNCCO3)c2)ccc1N

>  <Lig_Conformer>  (41) 
['NaN']

>  <Lig_Of_Interest>  (41) 
['Y']

>  <Lig_Completeness>  (41) 
[1.0]

>  <Lig_Occupancy>  (41) 
[0.87]

>  <Lig_RSCC>  (41) 
[0.9]

>  <Lig_RSR>  (41) 
[0.123]

>  <Lig_RMSZ_Bonds>  (41) 
[0.23]

>  <Lig_RMSZ_Angles>  (41) 
[0.43]

>  <Lig_Alt_Conf>  (41) 
0

>  <Title>  (41) 
Protein kinase A catalytic subunit in complex with PKI5-24 and EN068

>  <Nonpolymer_Entity_Count>  (41) 
2

>  <Protein_Entity_Count>  (41) 
2

>  <Exp_Method>  (41) 
X-Ray Diffraction

>  <Cryst_Method>  (41) 
Vapor Diffusion, Sitting Drop; Protein At 8 Mg/Ml In 100 Mm Mes-Bis-Tris pH 6.9, 75 Mm Lithium Chloride, 1 Mm Dtt, 100 Mm Sodium-Edta.  Master-Mix: 540 Ul Of Protein + 15 Ul 10 Mm Mega8 In Water + 45 Ul 10 Mm Pki5-24 In Protein-Buffer. 70 % Master-Mix Mixed With 30 % 50 Mm Ligand In Dmso Before Setting Of Drops. 15-24 % Methanol/Water In Reservoir.

>  <Deposit_Date>  (41) 
2021-08-19

>  <Resolution>  (41) 
1.427

>  <DOI>  (41) 
https://doi.org/10.1021/acs.jmedchem.2c00813

>  <Source_Organism>  (41) 
Cricetulus griseus

>  <R_Free>  (41) 
0.157911

>  <Keywords>  (41) 
Transferase

>  <REMARK_280>  (41) 
 Crystal Solvent Content, Vs (%): 54.52 Matthews Coefficient, Vm (Angstroms**3/Da): 2.70 Crystallization Conditions: Protein At 8 Mg/Ml In 100 Mm Mes-Bis -Tris pH 6.9, 75 Mm Lithium Chloride, 1 Mm Dtt, 100 Mm Sodium- Edta. Master-Mix: 540 Ul Of Protein + 15 Ul 10 Mm Mega8 In Water + 45 Ul 10 Mm Pki5-24 In Protein-Buffer. 70 % Master-Mix Mixed With 30 % 50 Mm Ligand In Dmso Before Setting Of Drops. 15-24 % Methanol/Water In Reservoir., Vapor Diffusion, Sitting Drop, Temperature 277.15K 

>  <REMARK_610>  (41) 
nan

>  <pH>  (41) 
6.9

>  <Cryst_Technique>  (41) 
co-crystallized

>  <Sequence>  (41) 
GHMGNAAAAKKGSEQESVKEFLAKAKEEFLKKWESPSQNTAQLDHFDRIKTLGTGSFGRVMLVKHKETGNHYAMKILDKQKVVKLKQIEHTLNEKRILQAVNFPFLVKLEFSFKDNSNLYMVMEYVPGGEMFSHLRRIGRFSEPHARFYAAQIVLTFEYLHSLDLIYRDLKPENLLIDQQGYIQVTDFGFAKRVKGRTWTLCGTPEYLAPEIILSKGYNKAVDWWALGVLIYEMAAGYPPFFADQPIQIYEKIVSGKVRFPSHFSSDLKDLLRNLLQVDLTKRFGNLKNGVNDIKNHKWFATTDWIAIYQRKVEAPFIPKFKGPGDTSNFDDYEEEEIRVSINEKCGKEFTEF

>  <Sequence_Length>  (41) 
353

>  <Mutation_Count>  (41) 
0

>  <Gene_Name>  (41) 
PKACA

>  <MW>  (41) 
41.194

>  <Name>  (41) 
cAMP-Dependent Protein Kinase Catalytic Subunit Alpha

>  <Mutations>  (41) 
nan

>  <EC_Number>  (41) 
2.7.11.11

>  <Peptidic_Inhibitor>  (41) 
True

>  <Lig_Missing_Atoms>  (41) 
['No']

>  <PDBbind_Resolution>  (41) 
nan

>  <PDBbind_Release_Year>  (41) 
nan

>  <PDBbind_Comment>  (41) 
nan

>  <PDBbind_Uniprot_Id>  (41) 
nan

>  <PDBbind_Protein_Name>  (41) 
nan

>  <PDBbind_-Logkd/Ki>  (41) 
nan

>  <PDBbind_Kd/Ki>  (41) 
nan

>  <PDBbind_Kd_Or_Ki_Or_Ic50>  (41) 
nan

>  <PDBbind_Relation>  (41) 
nan

>  <PDBbind_Value>  (41) 
nan

>  <PDBbind_Unit>  (41) 
nan

>  <PDBbind_Standard_Value>  (41) 
nan

>  <PDBbind_Standard_Unit>  (41) 
nan

$$$$

     RDKit          2D

 23 25  0  0  0  0  0  0  0  0999 V2000
    1.5000    0.0000    0.0000 C   0  0  0  0  0  0  0  0  0  0  0  0
    0.7500   -1.2990    0.0000 C   0  0  0  0  0  0  0  0  0  0  0  0
   -0.7500   -1.2990    0.0000 C   0  0  0  0  0  0  0  0  0  0  0  0
   -1.5000    0.0000    0.0000 C   0  0  0  0  0  0  0  0  0  0  0  0
   -0.7500    1.2990    0.0000 C   0  0  0  0  0  0  0  0  0  0  0  0
    0.7500    1.2990    0.0000 C   0  0  0  0  0  0  0  0  0  0  0  0
   -1.5000    2.5981    0.0000 C   0  0  0  0  0  0  0  0  0  0  0  0
   -0.0905    3.1111    0.0000 C   0  0  0  0  0  0  0  0  0  0  0  0
    0.1700    4.5883    0.0000 C   0  0  0  0  0  0  0  0  0  0  0  0
   -0.9791    5.5525    0.0000 O   0  0  0  0  0  0  0  0  0  0  0  0
   -2.3886    5.0395    0.0000 C   0  0  0  0  0  0  0  0  0  0  0  0
   -2.6491    3.5623    0.0000 C   0  0  0  0  0  0  0  0  0  0  0  0
   -2.6491    1.6339    0.0000 C   0  0  0  0  0  0  0  0  0  0  0  0
   -4.0586    2.1469    0.0000 N   0  0  0  0  0  0  0  0  0  0  0  0
   -1.5000   -2.5981    0.0000 C   0  0  0  0  0  0  0  0  0  0  0  0
   -3.0000   -2.5981    0.0000 C   0  0  0  0  0  0  0  0  0  0  0  0
   -3.7500   -3.8971    0.0000 C   0  0  0  0  0  0  0  0  0  0  0  0
   -3.0000   -5.1962    0.0000 C   0  0  0  0  0  0  0  0  0  0  0  0
   -1.5000   -5.1962    0.0000 C   0  0  0  0  0  0  0  0  0  0  0  0
   -0.7500   -3.8971    0.0000 C   0  0  0  0  0  0  0  0  0  0  0  0
   -0.7500   -6.4952    0.0000 C   0  0  0  0  0  0  0  0  0  0  0  0
   -0.0000   -7.7942    0.0000 N   0  0  0  0  0  0  0  0  0  0  0  0
   -3.7500   -6.4952    0.0000 N   0  0  0  0  0  0  0  0  0  0  0  0
  1  2  2  0
  2  3  1  0
  3  4  2  0
  4  5  1  0
  5  6  2  0
  5  7  1  0
  7  8  1  0
  8  9  1  0
  9 10  1  0
 10 11  1  0
 11 12  1  0
  7 13  1  0
 13 14  1  0
  3 15  1  0
 15 16  2  0
 16 17  1  0
 17 18  2  0
 18 19  1  0
 19 20  2  0
 19 21  1  0
 21 22  3  0
 18 23  1  0
  6  1  1  0
 12  7  1  0
 20 15  1  0
M  END
>  <Structure>  (42) 
7PIF

>  <Dataset>  (42) 
PDB

>  <Chain>  (42) 
A

>  <Spatial_Label>  (42) 
DFGin

>  <Dihedral_Label>  (42) 
ABAminus

>  <C_Helix_Label>  (42) 
Chelix-in

>  <Lig_ID>  (42) 
7QL

>  <Lig_Entity_ID>  (42) 
7PIF_3

>  <Lig_Name>  (42) 
5-[3-[4-(aminomethyl)oxan-4-yl]phenyl]-2-azanyl-benzenecarbonitrile

>  <Lig_Formula>  (42) 
C19H21N3O

>  <Lig_SMILES>  (42) 
c1cc(cc(c1)C2(CCOCC2)CN)c3ccc(c(c3)C#N)N

>  <Lig_MW>  (42) 
307.39

>  <Lig_ChEMBL_ID>  (42) 
nan

>  <Lig_DrugBank_ID>  (42) 
nan

>  <Occurence>  (42) 
1

>  <Lig_SMILES_Uncharged>  (42) 
N#Cc1cc(-c2cccc(C3(CN)CCOCC3)c2)ccc1N

>  <Lig_Conformer>  (42) 
['NaN']

>  <Lig_Of_Interest>  (42) 
['Y']

>  <Lig_Completeness>  (42) 
[1.0]

>  <Lig_Occupancy>  (42) 
[1.0]

>  <Lig_RSCC>  (42) 
[0.965]

>  <Lig_RSR>  (42) 
[0.072]

>  <Lig_RMSZ_Bonds>  (42) 
[0.29]

>  <Lig_RMSZ_Angles>  (42) 
[0.44]

>  <Lig_Alt_Conf>  (42) 
0

>  <Title>  (42) 
Protein kinase A catalytic subunit in complex with PKI5-24 and EN086

>  <Nonpolymer_Entity_Count>  (42) 
3

>  <Protein_Entity_Count>  (42) 
2

>  <Exp_Method>  (42) 
X-Ray Diffraction

>  <Cryst_Method>  (42) 
Vapor Diffusion, Sitting Drop; Protein At 8 Mg/Ml In 100 Mm Mes-Bis-Tris pH 6.9, 75 Mm Lithium Chloride, 1 Mm Dtt, 100 Mm Sodium-Edta.  Master-Mix: 540 Ul Of Protein + 15 Ul 10 Mm Mega8 In Water + 45 Ul 10 Mm Pki5-24 In Protein-Buffer. 70 % Master-Mix Mixed With 30 % 50 Mm Ligand In Dmso Before Setting Of Drops. 15-24 % Methanol/Water In Reservoir.

>  <Deposit_Date>  (42) 
2021-08-19

>  <Resolution>  (42) 
1.395

>  <DOI>  (42) 
https://doi.org/10.1021/acs.jmedchem.2c00813

>  <Source_Organism>  (42) 
Cricetulus griseus

>  <R_Free>  (42) 
0.155226

>  <Keywords>  (42) 
Transferase

>  <REMARK_280>  (42) 
 Crystal Solvent Content, Vs (%): 54.30 Matthews Coefficient, Vm (Angstroms**3/Da): 2.69 Crystallization Conditions: Protein At 8 Mg/Ml In 100 Mm Mes-Bis -Tris pH 6.9, 75 Mm Lithium Chloride, 1 Mm Dtt, 100 Mm Sodium- Edta. Master-Mix: 540 Ul Of Protein + 15 Ul 10 Mm Mega8 In Water + 45 Ul 10 Mm Pki5-24 In Protein-Buffer. 70 % Master-Mix Mixed With 30 % 50 Mm Ligand In Dmso Before Setting Of Drops. 15-24 % Methanol/Water In Reservoir., Vapor Diffusion, Sitting Drop, Temperature 277.15K 

>  <REMARK_610>  (42) 
nan

>  <pH>  (42) 
6.9

>  <Cryst_Technique>  (42) 
co-crystallized

>  <Sequence>  (42) 
GHMGNAAAAKKGSEQESVKEFLAKAKEEFLKKWESPSQNTAQLDHFDRIKTLGTGSFGRVMLVKHKETGNHYAMKILDKQKVVKLKQIEHTLNEKRILQAVNFPFLVKLEFSFKDNSNLYMVMEYVPGGEMFSHLRRIGRFSEPHARFYAAQIVLTFEYLHSLDLIYRDLKPENLLIDQQGYIQVTDFGFAKRVKGRTWTLCGTPEYLAPEIILSKGYNKAVDWWALGVLIYEMAAGYPPFFADQPIQIYEKIVSGKVRFPSHFSSDLKDLLRNLLQVDLTKRFGNLKNGVNDIKNHKWFATTDWIAIYQRKVEAPFIPKFKGPGDTSNFDDYEEEEIRVSINEKCGKEFTEF

>  <Sequence_Length>  (42) 
353

>  <Mutation_Count>  (42) 
0

>  <Gene_Name>  (42) 
PKACA

>  <MW>  (42) 
41.194

>  <Name>  (42) 
cAMP-Dependent Protein Kinase Catalytic Subunit Alpha

>  <Mutations>  (42) 
nan

>  <EC_Number>  (42) 
2.7.11.11

>  <Peptidic_Inhibitor>  (42) 
True

>  <Lig_Missing_Atoms>  (42) 
['No']

>  <PDBbind_Resolution>  (42) 
nan

>  <PDBbind_Release_Year>  (42) 
nan

>  <PDBbind_Comment>  (42) 
nan

>  <PDBbind_Uniprot_Id>  (42) 
nan

>  <PDBbind_Protein_Name>  (42) 
nan

>  <PDBbind_-Logkd/Ki>  (42) 
nan

>  <PDBbind_Kd/Ki>  (42) 
nan

>  <PDBbind_Kd_Or_Ki_Or_Ic50>  (42) 
nan

>  <PDBbind_Relation>  (42) 
nan

>  <PDBbind_Value>  (42) 
nan

>  <PDBbind_Unit>  (42) 
nan

>  <PDBbind_Standard_Value>  (42) 
nan

>  <PDBbind_Standard_Unit>  (42) 
nan

$$$$

     RDKit          2D

 17 18  0  0  0  0  0  0  0  0999 V2000
    1.5000    0.0000    0.0000 C   0  0  0  0  0  0  0  0  0  0  0  0
    0.7500   -1.2990    0.0000 C   0  0  0  0  0  0  0  0  0  0  0  0
   -0.7500   -1.2990    0.0000 C   0  0  0  0  0  0  0  0  0  0  0  0
   -1.5000    0.0000    0.0000 C   0  0  0  0  0  0  0  0  0  0  0  0
   -0.7500    1.2990    0.0000 C   0  0  0  0  0  0  0  0  0  0  0  0
    0.7500    1.2990    0.0000 C   0  0  0  0  0  0  0  0  0  0  0  0
    1.5000    2.5981    0.0000 C   0  0  0  0  0  0  0  0  0  0  0  0
    3.0000    2.5981    0.0000 C   0  0  0  0  0  0  0  0  0  0  0  0
    3.7500    3.8971    0.0000 C   0  0  0  0  0  0  0  0  0  0  0  0
    5.2500    3.8971    0.0000 C   0  0  0  0  0  0  0  0  0  0  0  0
    6.0000    2.5981    0.0000 C   0  0  0  0  0  0  0  0  0  0  0  0
    5.2500    1.2990    0.0000 N   0  0  0  0  0  0  0  0  0  0  0  0
    3.7500    1.2990    0.0000 C   0  0  0  0  0  0  0  0  0  0  0  0
   -1.5000    2.5981    0.0000 Cl  0  0  0  0  0  0  0  0  0  0  0  0
   -3.0000    0.0000    0.0000 C   0  0  0  0  0  0  0  0  0  0  0  0
   -4.5000    0.0000    0.0000 N   0  0  0  0  0  0  0  0  0  0  0  0
   -1.5000   -2.5981    0.0000 N   0  0  0  0  0  0  0  0  0  0  0  0
  1  2  2  0
  2  3  1  0
  3  4  2  0
  4  5  1  0
  5  6  2  0
  6  7  1  0
  7  8  2  0
  8  9  1  0
  9 10  1  0
 10 11  1  0
 11 12  1  0
 12 13  1  0
  5 14  1  0
  4 15  1  0
 15 16  3  0
  3 17  1  0
  6  1  1  0
 13  8  1  0
M  END
>  <Structure>  (43) 
7PIG

>  <Dataset>  (43) 
PDB

>  <Chain>  (43) 
A

>  <Spatial_Label>  (43) 
DFGin

>  <Dihedral_Label>  (43) 
ABAminus

>  <C_Helix_Label>  (43) 
Chelix-in

>  <Lig_ID>  (43) 
7QR

>  <Lig_Entity_ID>  (43) 
7PIG_3

>  <Lig_Name>  (43) 
6-azanyl-2-chloranyl-3-[(Z)-piperidin-3-ylidenemethyl]benzenecarbonitrile

>  <Lig_Formula>  (43) 
C13H14ClN3

>  <Lig_SMILES>  (43) 
c1cc(c(c(c1/C=C\2/CCCNC2)Cl)C#N)N

>  <Lig_MW>  (43) 
247.723

>  <Lig_ChEMBL_ID>  (43) 
nan

>  <Lig_DrugBank_ID>  (43) 
nan

>  <Occurence>  (43) 
1

>  <Lig_SMILES_Uncharged>  (43) 
N#Cc1c(N)ccc(/C=C2/CCCNC2)c1Cl

>  <Lig_Conformer>  (43) 
['NaN']

>  <Lig_Of_Interest>  (43) 
['Y']

>  <Lig_Completeness>  (43) 
[1.0]

>  <Lig_Occupancy>  (43) 
[1.0]

>  <Lig_RSCC>  (43) 
[0.929]

>  <Lig_RSR>  (43) 
[0.08]

>  <Lig_RMSZ_Bonds>  (43) 
[0.75]

>  <Lig_RMSZ_Angles>  (43) 
[0.66]

>  <Lig_Alt_Conf>  (43) 
0

>  <Title>  (43) 
Protein kinase A catalytic subunit in complex with PKI5-24 and EN088

>  <Nonpolymer_Entity_Count>  (43) 
2

>  <Protein_Entity_Count>  (43) 
2

>  <Exp_Method>  (43) 
X-Ray Diffraction

>  <Cryst_Method>  (43) 
Vapor Diffusion, Sitting Drop; Protein At 8 Mg/Ml In 100 Mm Mes-Bis-Tris pH 6.9, 75 Mm Lithium Chloride, 1 Mm Dtt, 100 Mm Sodium-Edta.  Master-Mix: 540 Ul Of Protein + 15 Ul 10 Mm Mega8 In Water + 45 Ul 10 Mm Pki5-24 In Protein-Buffer. 70 % Master-Mix Mixed With 30 % 50 Mm Ligand In Dmso Before Setting Of Drops. 15-24 % Methanol/Water In Reservoir.

>  <Deposit_Date>  (43) 
2021-08-19

>  <Resolution>  (43) 
1.553

>  <DOI>  (43) 
https://doi.org/10.1021/acs.jmedchem.2c00813

>  <Source_Organism>  (43) 
Cricetulus griseus

>  <R_Free>  (43) 
0.154489

>  <Keywords>  (43) 
Transferase

>  <REMARK_280>  (43) 
 Crystal Solvent Content, Vs (%): 53.67 Matthews Coefficient, Vm (Angstroms**3/Da): 2.65 Crystallization Conditions: Protein At 8 Mg/Ml In 100 Mm Mes-Bis -Tris pH 6.9, 75 Mm Lithium Chloride, 1 Mm Dtt, 100 Mm Sodium- Edta. Master-Mix: 540 Ul Of Protein + 15 Ul 10 Mm Mega8 In Water + 45 Ul 10 Mm Pki5-24 In Protein-Buffer. 70 % Master-Mix Mixed With 30 % 50 Mm Ligand In Dmso Before Setting Of Drops. 15-24 % Methanol/Water In Reservoir., Vapor Diffusion, Sitting Drop, Temperature 277.15K 

>  <REMARK_610>  (43) 
nan

>  <pH>  (43) 
6.9

>  <Cryst_Technique>  (43) 
co-crystallized

>  <Sequence>  (43) 
GHMGNAAAAKKGSEQESVKEFLAKAKEEFLKKWESPSQNTAQLDHFDRIKTLGTGSFGRVMLVKHKETGNHYAMKILDKQKVVKLKQIEHTLNEKRILQAVNFPFLVKLEFSFKDNSNLYMVMEYVPGGEMFSHLRRIGRFSEPHARFYAAQIVLTFEYLHSLDLIYRDLKPENLLIDQQGYIQVTDFGFAKRVKGRTWTLCGTPEYLAPEIILSKGYNKAVDWWALGVLIYEMAAGYPPFFADQPIQIYEKIVSGKVRFPSHFSSDLKDLLRNLLQVDLTKRFGNLKNGVNDIKNHKWFATTDWIAIYQRKVEAPFIPKFKGPGDTSNFDDYEEEEIRVSINEKCGKEFTEF

>  <Sequence_Length>  (43) 
353

>  <Mutation_Count>  (43) 
0

>  <Gene_Name>  (43) 
PKACA

>  <MW>  (43) 
41.194

>  <Name>  (43) 
cAMP-Dependent Protein Kinase Catalytic Subunit Alpha

>  <Mutations>  (43) 
nan

>  <EC_Number>  (43) 
2.7.11.11

>  <Peptidic_Inhibitor>  (43) 
True

>  <Lig_Missing_Atoms>  (43) 
['No']

>  <PDBbind_Resolution>  (43) 
nan

>  <PDBbind_Release_Year>  (43) 
nan

>  <PDBbind_Comment>  (43) 
nan

>  <PDBbind_Uniprot_Id>  (43) 
nan

>  <PDBbind_Protein_Name>  (43) 
nan

>  <PDBbind_-Logkd/Ki>  (43) 
nan

>  <PDBbind_Kd/Ki>  (43) 
nan

>  <PDBbind_Kd_Or_Ki_Or_Ic50>  (43) 
nan

>  <PDBbind_Relation>  (43) 
nan

>  <PDBbind_Value>  (43) 
nan

>  <PDBbind_Unit>  (43) 
nan

>  <PDBbind_Standard_Value>  (43) 
nan

>  <PDBbind_Standard_Unit>  (43) 
nan

$$$$

     RDKit          2D

 23 25  0  0  0  0  0  0  0  0999 V2000
    7.5000   -5.1962    0.0000 C   0  0  0  0  0  0  0  0  0  0  0  0
    6.0000   -5.1962    0.0000 N   0  0  0  0  0  0  0  0  0  0  0  0
    5.2500   -6.4952    0.0000 C   0  0  0  0  0  0  0  0  0  0  0  0
    5.2500   -3.8971    0.0000 C   0  0  0  0  0  0  0  0  0  0  0  0
    3.7500   -3.8971    0.0000 C   0  0  0  0  0  0  0  0  0  0  0  0
    3.0000   -5.1962    0.0000 C   0  0  0  0  0  0  0  0  0  0  0  0
    1.5000   -5.1962    0.0000 C   0  0  0  0  0  0  0  0  0  0  0  0
    0.7500   -3.8971    0.0000 C   0  0  0  0  0  0  0  0  0  0  0  0
    1.5000   -2.5981    0.0000 C   0  0  0  0  0  0  0  0  0  0  0  0
    3.0000   -2.5981    0.0000 C   0  0  0  0  0  0  0  0  0  0  0  0
    0.7500   -1.2990    0.0000 C   0  0  0  0  0  0  0  0  0  0  0  0
    1.5000    0.0000    0.0000 C   0  0  0  0  0  0  0  0  0  0  0  0
    0.7500    1.2990    0.0000 C   0  0  0  0  0  0  0  0  0  0  0  0
   -0.7500    1.2990    0.0000 C   0  0  0  0  0  0  0  0  0  0  0  0
   -1.5000    0.0000    0.0000 C   0  0  0  0  0  0  0  0  0  0  0  0
   -0.7500   -1.2990    0.0000 C   0  0  0  0  0  0  0  0  0  0  0  0
   -2.9672    0.3119    0.0000 N   0  0  0  0  0  0  0  0  0  0  0  0
   -3.1240    1.8037    0.0000 C   0  0  0  0  0  0  0  0  0  0  0  0
   -1.7537    2.4138    0.0000 C   0  0  0  0  0  0  0  0  0  0  0  0
   -1.4418    3.8810    0.0000 C   0  0  0  0  0  0  0  0  0  0  0  0
   -1.1300    5.3482    0.0000 N   0  0  0  0  0  0  0  0  0  0  0  0
   -4.4231    2.5537    0.0000 N   0  0  0  0  0  0  0  0  0  0  0  0
   -0.7500   -3.8971    0.0000 F   0  0  0  0  0  0  0  0  0  0  0  0
  1  2  1  0
  2  3  1  0
  2  4  1  0
  4  5  1  0
  5  6  2  0
  6  7  1  0
  7  8  2  0
  8  9  1  0
  9 10  2  0
  9 11  1  0
 11 12  2  0
 12 13  1  0
 13 14  2  0
 14 15  1  0
 15 16  2  0
 15 17  1  0
 17 18  1  0
 18 19  2  0
 19 20  1  0
 20 21  3  0
 18 22  1  0
  8 23  1  0
 10  5  1  0
 16 11  1  0
 19 14  1  0
M  END
>  <Structure>  (44) 
7PNS

>  <Dataset>  (44) 
PDB

>  <Chain>  (44) 
A

>  <Spatial_Label>  (44) 
DFGin

>  <Dihedral_Label>  (44) 
ABAminus

>  <C_Helix_Label>  (44) 
Chelix-in

>  <Lig_ID>  (44) 
7W8

>  <Lig_Entity_ID>  (44) 
7PNS_4

>  <Lig_Name>  (44) 
2-azanyl-6-[5-[(dimethylamino)methyl]-2-fluoranyl-phenyl]-1H-indole-3-carbonitrile

>  <Lig_Formula>  (44) 
C18H17FN4

>  <Lig_SMILES>  (44) 
CN(C)Cc1ccc(c(c1)c2ccc3c(c2)[nH]c(c3C#N)N)F

>  <Lig_MW>  (44) 
308.353

>  <Lig_ChEMBL_ID>  (44) 
nan

>  <Lig_DrugBank_ID>  (44) 
nan

>  <Occurence>  (44) 
1

>  <Lig_SMILES_Uncharged>  (44) 
CN(C)Cc1ccc(F)c(-c2ccc3c(C#N)c(N)[nH]c3c2)c1

>  <Lig_Conformer>  (44) 
['NaN']

>  <Lig_Of_Interest>  (44) 
['Y']

>  <Lig_Completeness>  (44) 
[0.8696]

>  <Lig_Occupancy>  (44) 
[1.0]

>  <Lig_RSCC>  (44) 
[0.881]

>  <Lig_RSR>  (44) 
[0.148]

>  <Lig_RMSZ_Bonds>  (44) 
[0.78]

>  <Lig_RMSZ_Angles>  (44) 
[0.73]

>  <Lig_Alt_Conf>  (44) 
0

>  <Title>  (44) 
Protein kinase A catalytic subunit in complex with PKI5-24 and EN081

>  <Nonpolymer_Entity_Count>  (44) 
2

>  <Protein_Entity_Count>  (44) 
2

>  <Exp_Method>  (44) 
X-Ray Diffraction

>  <Cryst_Method>  (44) 
Vapor Diffusion, Sitting Drop; Protein At 8 Mg/Ml In 100 Mm Mes-Bis-Tris pH 6.9, 75 Mm Lithium Chloride, 1 Mm Dtt, 100 Mm Sodium-Edta.  Master-Mix: 540 Ul Of Protein + 15 Ul 10 Mm Mega8 In Water + 45 Ul 10 Mm Pki5-24 In Protein-Buffer. 70 % Master-Mix Mixed With 30 % 50 Mm Ligand In Dmso Before Setting Of Drops. 15-24 % Methanol/Water In Reservoir.

>  <Deposit_Date>  (44) 
2021-09-07

>  <Resolution>  (44) 
1.855

>  <DOI>  (44) 
https://doi.org/10.1021/acs.jmedchem.2c00813

>  <Source_Organism>  (44) 
Cricetulus griseus

>  <R_Free>  (44) 
0.20153

>  <Keywords>  (44) 
Transferase

>  <REMARK_280>  (44) 
 Crystal Solvent Content, Vs (%): 45.80 Matthews Coefficient, Vm (Angstroms**3/Da): 2.27 Crystallization Conditions: Protein At 8 Mg/Ml In 100 Mm Mes-Bis -Tris pH 6.9, 75 Mm Lithium Chloride, 1 Mm Dtt, 100 Mm Sodium- Edta. Master-Mix: 540 Ul Of Protein + 15 Ul 10 Mm Mega8 In Water + 45 Ul 10 Mm Pki5-24 In Protein-Buffer. 70 % Master-Mix Mixed With 30 % 50 Mm Ligand In Dmso Before Setting Of Drops. 15-24 % Methanol/Water In Reservoir., Vapor Diffusion, Sitting Drop, Temperature 277.15K 

>  <REMARK_610>  (44) 
  7W8 A 402 

>  <pH>  (44) 
6.9

>  <Cryst_Technique>  (44) 
co-crystallized

>  <Sequence>  (44) 
GHMGNAAAAKKGSEQESVKEFLAKAKEEFLKKWESPSQNTAQLDHFDRIKTLGTGSFGRVMLVKHKETGNHYAMKILDKQKVVKLKQIEHTLNEKRILQAVNFPFLVKLEFSFKDNSNLYMVMEYVPGGEMFSHLRRIGRFSEPHARFYAAQIVLTFEYLHSLDLIYRDLKPENLLIDQQGYIQVTDFGFAKRVKGRTWTLCGTPEYLAPEIILSKGYNKAVDWWALGVLIYEMAAGYPPFFADQPIQIYEKIVSGKVRFPSHFSSDLKDLLRNLLQVDLTKRFGNLKNGVNDIKNHKWFATTDWIAIYQRKVEAPFIPKFKGPGDTSNFDDYEEEEIRVSINEKCGKEFTEF

>  <Sequence_Length>  (44) 
353

>  <Mutation_Count>  (44) 
0

>  <Gene_Name>  (44) 
PKACA

>  <MW>  (44) 
41.194

>  <Name>  (44) 
cAMP-Dependent Protein Kinase Catalytic Subunit Alpha

>  <Mutations>  (44) 
nan

>  <EC_Number>  (44) 
2.7.11.11

>  <Peptidic_Inhibitor>  (44) 
True

>  <Lig_Missing_Atoms>  (44) 
['No']

>  <PDBbind_Resolution>  (44) 
nan

>  <PDBbind_Release_Year>  (44) 
nan

>  <PDBbind_Comment>  (44) 
nan

>  <PDBbind_Uniprot_Id>  (44) 
nan

>  <PDBbind_Protein_Name>  (44) 
nan

>  <PDBbind_-Logkd/Ki>  (44) 
nan

>  <PDBbind_Kd/Ki>  (44) 
nan

>  <PDBbind_Kd_Or_Ki_Or_Ic50>  (44) 
nan

>  <PDBbind_Relation>  (44) 
nan

>  <PDBbind_Value>  (44) 
nan

>  <PDBbind_Unit>  (44) 
nan

>  <PDBbind_Standard_Value>  (44) 
nan

>  <PDBbind_Standard_Unit>  (44) 
nan

$$$$
