
     RDKit          2D

 31 33  0  0  0  0  0  0  0  0999 V2000
    1.5000    0.0000    0.0000 C   0  0  0  0  0  0  0  0  0  0  0  0
    0.7500   -1.2990    0.0000 N   0  0  0  0  0  0  0  0  0  0  0  0
   -0.7500   -1.2990    0.0000 C   0  0  0  0  0  0  0  0  0  0  0  0
   -1.5000    0.0000    0.0000 C   0  0  0  0  0  0  0  0  0  0  0  0
   -0.7500    1.2990    0.0000 C   0  0  0  0  0  0  0  0  0  0  0  0
    0.7500    1.2990    0.0000 N   0  0  0  0  0  0  0  0  0  0  0  0
   -1.7537    2.4138    0.0000 N   0  0  0  0  0  0  0  0  0  0  0  0
   -3.1240    1.8037    0.0000 C   0  0  0  0  0  0  0  0  0  0  0  0
   -2.9672    0.3119    0.0000 N   0  0  0  0  0  0  0  0  0  0  0  0
   -1.4418    3.8810    0.0000 C   0  0  0  0  0  0  0  0  0  0  0  0
   -2.4455    4.9957    0.0000 C   0  0  0  0  0  0  0  0  0  0  0  0
   -1.6955    6.2947    0.0000 C   0  0  0  0  0  0  0  0  0  0  0  0
   -0.2283    5.9829    0.0000 C   0  0  0  0  0  0  0  0  0  0  0  0
   -0.0715    4.4911    0.0000 O   0  0  0  0  0  0  0  0  0  0  0  0
    0.8864    6.9866    0.0000 C   0  0  0  0  0  0  0  0  0  0  0  0
    2.3130    6.5230    0.0000 O   0  0  0  0  0  0  0  0  0  0  0  0
    3.4277    7.5267    0.0000 P   0  0  0  0  0  5  0  0  0  0  0  0
    2.4240    8.6414    0.0000 O   0  0  0  0  0  0  0  0  0  0  0  0
    4.4314    6.4120    0.0000 O   0  0  0  0  0  0  0  0  0  0  0  0
    4.5424    8.5304    0.0000 O   0  0  0  0  0  0  0  0  0  0  0  0
    4.2306    9.9976    0.0000 P   0  0  0  0  0  5  0  0  0  0  0  0
    2.7633    9.6858    0.0000 O   0  0  0  0  0  0  0  0  0  0  0  0
    5.6978   10.3095    0.0000 N   0  0  0  0  0  0  0  0  0  0  0  0
    6.1613   11.7361    0.0000 P   0  0  0  0  0  0  0  0  0  0  0  0
    6.6248   13.1627    0.0000 O   0  0  0  0  0  0  0  0  0  0  0  0
    7.5879   11.2726    0.0000 O   0  0  0  0  0  0  0  0  0  0  0  0
    4.7347   12.1996    0.0000 O   0  0  0  0  0  0  0  0  0  0  0  0
    3.9187   11.4649    0.0000 O   0  0  0  0  0  0  0  0  0  0  0  0
   -2.3056    7.6651    0.0000 O   0  0  0  0  0  0  0  0  0  0  0  0
   -3.9373    4.8389    0.0000 O   0  0  0  0  0  0  0  0  0  0  0  0
   -1.5000   -2.5981    0.0000 N   0  0  0  0  0  0  0  0  0  0  0  0
  1  2  2  0
  2  3  1  0
  3  4  2  0
  4  5  1  0
  5  6  2  0
  5  7  1  0
  7  8  1  0
  8  9  2  0
 10  7  1  1
 10 11  1  0
 11 12  1  0
 12 13  1  0
 13 14  1  0
 13 15  1  1
 15 16  1  0
 16 17  1  0
 17 18  2  0
 17 19  1  6
 17 20  1  0
 20 21  1  0
 21 22  2  0
 21 23  1  0
 23 24  1  0
 24 25  2  0
 24 26  1  0
 24 27  1  0
 21 28  1  6
 12 29  1  6
 11 30  1  6
  3 31  1  0
  6  1  1  0
  9  4  1  0
 14 10  1  0
M  END
>  <Structure>  (1) 
1CDK

>  <Dataset>  (1) 
PDB

>  <Chain>  (1) 
A

>  <Spatial_Label>  (1) 
DFGin

>  <Dihedral_Label>  (1) 
BLAminus

>  <C_Helix_Label>  (1) 
Chelix-in

>  <Lig_ID>  (1) 
ANP

>  <Lig_Entity_ID>  (1) 
1CDK_4

>  <Lig_Name>  (1) 
PHOSPHOAMINOPHOSPHONIC ACID-ADENYLATE ESTER

>  <Lig_Formula>  (1) 
C10H17N6O12P3

>  <Lig_SMILES>  (1) 
c1nc(c2c(n1)n(cn2)[C@H]3[C@@H]([C@@H]([C@H](O3)CO[P@](=O)(O)O[P@@](=O)(NP(=O)(O)O)O)O)O)N

>  <Lig_MW>  (1) 
506.196

>  <Lig_ChEMBL_ID>  (1) 
['CHEMBL1230989']

>  <Lig_DrugBank_ID>  (1) 
nan

>  <Occurence>  (1) 
13.0

>  <Lig_SMILES_Uncharged>  (1) 
Nc1ncnc2c1ncn2[C@@H]1O[C@H](CO[P@](=O)(O)O[P@](=O)(O)NP(=O)(O)O)[C@@H](O)[C@H]1O

>  <Lig_Conformer>  (1) 
['NaN', 'NaN']

>  <Lig_Of_Interest>  (1) 
['Y', 'Y']

>  <Lig_Completeness>  (1) 
[1.0, 1.0]

>  <Lig_Occupancy>  (1) 
[1.0, 1.0]

>  <Lig_RSCC>  (1) 
['NaN', 'NaN']

>  <Lig_RSR>  (1) 
['NaN', 'NaN']

>  <Lig_RMSZ_Bonds>  (1) 
[1.71, 1.56]

>  <Lig_RMSZ_Angles>  (1) 
[1.53, 1.59]

>  <Lig_Alt_Conf>  (1) 
0.0

>  <Title>  (1) 
CAMP-DEPENDENT PROTEIN KINASE CATALYTIC SUBUNIT (E.C.2.7.1.37) (PROTEIN KINASE A) COMPLEXED WITH PROTEIN KINASE INHIBITOR PEPTIDE FRAGMENT 5-24 (PKI(5-24) ISOELECTRIC VARIANT CA) AND MN2+ ADENYLYL IMIDODIPHOSPHATE (MNAMP-PNP) AT PH 5.6 AND 7C AND 4C

>  <Nonpolymer_Entity_Count>  (1) 
8.0

>  <Protein_Entity_Count>  (1) 
4.0

>  <Exp_Method>  (1) 
X-Ray Diffraction

>  <Cryst_Method>  (1) 
NaN; pH 5.6, Temperature 280K

>  <Deposit_Date>  (1) 
1994-07-04

>  <Resolution>  (1) 
2.0

>  <DOI>  (1) 
nan

>  <Source_Organism>  (1) 
Sus scrofa

>  <R_Free>  (1) 
nan

>  <Keywords>  (1) 
Transferase/Transferase Inhibitor

>  <REMARK_280>  (1) 
 Crystal Solvent Content, Vs (%): 55.90 Matthews Coefficient, Vm (Angstroms**3/Da): 2.79 Crystallization Conditions: pH 5.6, Temperature 280K 

>  <REMARK_610>  (1) 
  MYR A 403 MYR B 403 

>  <pH>  (1) 
5.6

>  <Cryst_Technique>  (1) 
co-crystallized

>  <Sequence>  (1) 
GNAAAAKKGSEQESVKEFLAKAKEDFLKKWENPAQNTAHLDQFERIKTLGTGSFGRVMLVKHKETGNHFAMKILDKQKVVKLKQIEHTLNEKRILQAVNFPFLVKLEYSFKDNSNLYMVMEYVPGGEMFSHLRRIGRFSEPHARFYAAQIVLTFEYLHSLDLIYRDLKPENLLIDQQGYIQVTDFGFAKRVKGRTWTLCGTPEYLAPEIILSKGYNKAVDWWALGVLIYEMAAGYPPFFADQPIQIYEKIVSGKVRFPSHFSSDLKDLLRNLLQVDLTKRFGNLKDGVNDIKNHKWFATTDWIAIYQRKVEAPFIPKFKGPGDTSNFDDYEEEEIRVSINEKCGKEFSEF

>  <Sequence_Length>  (1) 
350.0

>  <Mutation_Count>  (1) 
0.0

>  <Gene_Name>  (1) 
nan

>  <MW>  (1) 
40.625

>  <Name>  (1) 
cAMP-Dependent Protein Kinase

>  <Mutations>  (1) 
nan

>  <EC_Number>  (1) 
2.7.11.11

>  <Peptidic_Inhibitor>  (1) 
True

>  <Lig_Missing_Atoms>  (1) 
['No', 'No']

>  <PDBbind_Resolution>  (1) 
nan

>  <PDBbind_Release_Year>  (1) 
nan

>  <PDBbind_Comment>  (1) 
nan

>  <PDBbind_Uniprot_Id>  (1) 
nan

>  <PDBbind_Protein_Name>  (1) 
nan

>  <PDBbind_-Logkd/Ki>  (1) 
nan

>  <PDBbind_Kd/Ki>  (1) 
nan

>  <PDBbind_Kd_Or_Ki_Or_Ic50>  (1) 
nan

>  <PDBbind_Relation>  (1) 
nan

>  <PDBbind_Value>  (1) 
nan

>  <PDBbind_Unit>  (1) 
nan

>  <PDBbind_Standard_Value>  (1) 
nan

>  <PDBbind_Standard_Unit>  (1) 
nan

>  <PDB_Chain>  (1) 
['A', 'B']

>  <Num_Ligs>  (1) 
[1.0, 1.0]

>  <Orthosteric>  (1) 
[1.0, 1.0]

>  <Allosteric>  (1) 
[0.0, 0.0]

>  <Pockets_Assigned>  (1) 
['A', 'A']

>  <Multisite>  (1) 
[False, False]

>  <Same_Number>  (1) 
True

>  <Same_Binding_Site>  (1) 
True

>  <Same_Orientation>  (1) 
True

>  <Lig_Order_in_.pdb>  (1) 
Orthosteric; Orthosteric

$$$$

     RDKit          2D

 18 19  0  0  0  0  0  0  0  0999 V2000
    3.7500   -1.2990    0.0000 C   0  0  0  0  0  0  0  0  0  0  0  0
    3.0000    0.0000    0.0000 C   0  0  0  0  0  0  0  0  0  0  0  0
    1.5000    0.0000    0.0000 C   0  0  0  0  0  0  0  0  0  0  0  0
    0.7500   -1.2990    0.0000 C   0  0  0  0  0  0  0  0  0  0  0  0
   -0.7500   -1.2990    0.0000 C   0  0  0  0  0  0  0  0  0  0  0  0
   -1.5000    0.0000    0.0000 C   0  0  0  0  0  0  0  0  0  0  0  0
   -0.7500    1.2990    0.0000 C   0  0  0  0  0  0  0  0  0  0  0  0
    0.7500    1.2990    0.0000 C   0  0  0  0  0  0  0  0  0  0  0  0
   -3.0000    0.0000    0.0000 C   0  0  0  0  0  0  0  0  0  0  0  0
   -3.7500   -1.2990    0.0000 O   0  0  0  0  0  0  0  0  0  0  0  0
   -3.7500    1.2990    0.0000 N   0  0  0  0  0  0  0  0  0  0  0  0
   -5.2500    1.2990    0.0000 C   0  0  0  0  0  0  0  0  0  0  0  0
   -6.0000    2.5981    0.0000 C   0  0  0  0  0  0  0  0  0  0  0  0
   -7.5000    2.5981    0.0000 C   0  0  0  0  0  0  0  0  0  0  0  0
   -8.2500    1.2990    0.0000 N   0  0  0  0  0  0  0  0  0  0  0  0
   -7.5000    0.0000    0.0000 C   0  0  0  0  0  0  0  0  0  0  0  0
   -6.0000    0.0000    0.0000 C   0  0  0  0  0  0  0  0  0  0  0  0
    3.7500    1.2990    0.0000 N   0  0  0  0  0  0  0  0  0  0  0  0
  2  1  1  6
  2  3  1  0
  3  4  1  0
  4  5  1  0
  5  6  1  0
  6  7  1  0
  7  8  1  0
  6  9  1  0
  9 10  2  0
  9 11  1  0
 11 12  1  0
 12 13  2  0
 13 14  1  0
 14 15  2  0
 15 16  1  0
 16 17  2  0
  2 18  1  0
  8  3  1  0
 17 12  1  0
M  END
>  <Structure>  (2) 
2GNF

>  <Dataset>  (2) 
PDB

>  <Chain>  (2) 
A

>  <Spatial_Label>  (2) 
DFGin

>  <Dihedral_Label>  (2) 
BLAminus

>  <C_Helix_Label>  (2) 
Chelix-in

>  <Lig_ID>  (2) 
Y27

>  <Lig_Entity_ID>  (2) 
2GNF_3

>  <Lig_Name>  (2) 
(R)-TRANS-4-(1-AMINOETHYL)-N-(4-PYRIDYL) CYCLOHEXANECARBOXAMIDE

>  <Lig_Formula>  (2) 
C14H21N3O

>  <Lig_SMILES>  (2) 
C[C@H](C1CCC(CC1)C(=O)Nc2ccncc2)N

>  <Lig_MW>  (2) 
247.336

>  <Lig_ChEMBL_ID>  (2) 
nan

>  <Lig_DrugBank_ID>  (2) 
['DB08756']

>  <Occurence>  (2) 
2.0

>  <Lig_SMILES_Uncharged>  (2) 
C[C@@H](N)C1CCC(C(=O)Nc2ccncc2)CC1

>  <Lig_Conformer>  (2) 
['NaN']

>  <Lig_Of_Interest>  (2) 
['Y']

>  <Lig_Completeness>  (2) 
[1.0]

>  <Lig_Occupancy>  (2) 
[1.0]

>  <Lig_RSCC>  (2) 
[0.933]

>  <Lig_RSR>  (2) 
[0.116]

>  <Lig_RMSZ_Bonds>  (2) 
[1.57]

>  <Lig_RMSZ_Angles>  (2) 
[1.37]

>  <Lig_Alt_Conf>  (2) 
0.0

>  <Title>  (2) 
Protein kinase A fivefold mutant model of Rho-kinase with Y-27632

>  <Nonpolymer_Entity_Count>  (2) 
1.0

>  <Protein_Entity_Count>  (2) 
2.0

>  <Exp_Method>  (2) 
X-Ray Diffraction

>  <Cryst_Method>  (2) 
Vapor Diffusion, Hanging Drop; Methanol, Licl, Mesbistris, Edta, Dtt, Mega8, pH 6.5, Vapor Diffusion, Hanging Drop, Temperature 278K

>  <Deposit_Date>  (2) 
2006-04-10

>  <Resolution>  (2) 
2.28

>  <DOI>  (2) 
https://doi.org/10.1074/jbc.M512374200

>  <Source_Organism>  (2) 
Bos taurus

>  <R_Free>  (2) 
0.25831

>  <Keywords>  (2) 
Transferase/Transferase Inhibitor

>  <REMARK_280>  (2) 
 Crystal Solvent Content, Vs (%): 52.49 Matthews Coefficient, Vm (Angstroms**3/Da): 2.59 Crystallization Conditions: Methanol, Licl, Mesbistris, Edta, Dtt, Mega8, pH 6.5, Vapor Diffusion, Hanging Drop, Temperature 278K 

>  <REMARK_610>  (2) 
nan

>  <pH>  (2) 
6.5

>  <Cryst_Technique>  (2) 
co-crystallized

>  <Sequence>  (2) 
GNAAAAKKGSEQESVKEFLAKAKEDFLKKWENPAQNTAHLDQFERIKTIGTGSFGRVMLVKHMETGNHYAMKILDKQKVVKLKQIEHTLNEKRILQAVNFPFLVKLEFSFKDNSNLYMVMEYMPGGDMFSHLRRIGRFSEPHARFYAAQIVLTFEYLHSLDLIYRDLKPENLLIDQQGYIKVADFGFAKRVKGRTWTLCGTPEYLAPEIILSKGYNKAVDWWALGVLIYEMAAGYPPFFADQPIQIYEKIVSGKVRFPSHFSSDLKDLLRNLLQVDLTKRFGNLKNGVNDIKNHKWFATTDWIAIYQRKVEAPFIPKFKGPGDTSNFDDYEEEEIRVSINEKCGKEFSEF

>  <Sequence_Length>  (2) 
350.0

>  <Mutation_Count>  (2) 
7.0

>  <Gene_Name>  (2) 
PKACA

>  <MW>  (2) 
40.695

>  <Name>  (2) 
cAMP-Dependent Protein Kinase, Alpha-Catalytic Subunit

>  <Mutations>  (2) 
L49I, V123M, E127D, Q181K, T183A

>  <EC_Number>  (2) 
2.7.11.11

>  <Peptidic_Inhibitor>  (2) 
True

>  <Lig_Missing_Atoms>  (2) 
['No']

>  <PDBbind_Resolution>  (2) 
2.28

>  <PDBbind_Release_Year>  (2) 
2006.0

>  <PDBbind_Comment>  (2) 
nan

>  <PDBbind_Uniprot_Id>  (2) 
P00517

>  <PDBbind_Protein_Name>  (2) 
CAMP-DEPENDENT PROTEIN KINASE, ALPHA-CATALYTIC

>  <PDBbind_-Logkd/Ki>  (2) 
5.22

>  <PDBbind_Kd/Ki>  (2) 
IC=6uM

>  <PDBbind_Kd_Or_Ki_Or_Ic50>  (2) 
IC50

>  <PDBbind_Relation>  (2) 
=

>  <PDBbind_Value>  (2) 
6.0

>  <PDBbind_Unit>  (2) 
uM

>  <PDBbind_Standard_Value>  (2) 
6000.0

>  <PDBbind_Standard_Unit>  (2) 
nM

>  <PDB_Chain>  (2) 
['A']

>  <Num_Ligs>  (2) 
[1.0]

>  <Orthosteric>  (2) 
[1.0]

>  <Allosteric>  (2) 
[0.0]

>  <Pockets_Assigned>  (2) 
['A']

>  <Multisite>  (2) 
[False]

>  <Same_Number>  (2) 
True

>  <Same_Binding_Site>  (2) 
True

>  <Same_Orientation>  (2) 
True

>  <Lig_Order_in_.pdb>  (2) 
Orthosteric

$$$$

     RDKit          2D

 22 24  0  0  0  0  0  0  0  0999 V2000
    3.0000    0.0000    0.0000 C   0  0  0  0  0  0  0  0  0  0  0  0
    1.5000    0.0000    0.0000 C   0  0  0  0  0  0  0  0  0  0  0  0
    0.7500   -1.2990    0.0000 C   0  0  0  0  0  0  0  0  0  0  0  0
   -0.7500   -1.2990    0.0000 N   0  0  0  0  0  0  0  0  0  0  0  0
   -1.5000    0.0000    0.0000 C   0  0  0  0  0  0  0  0  0  0  0  0
   -0.7500    1.2990    0.0000 C   0  0  0  0  0  0  0  0  0  0  0  0
    0.7500    1.2990    0.0000 C   0  0  0  0  0  0  0  0  0  0  0  0
    1.5000    2.5981    0.0000 C   0  0  0  0  0  0  0  0  0  0  0  0
    0.7500    3.8971    0.0000 C   0  0  0  0  0  0  0  0  0  0  0  0
   -0.7500    3.8971    0.0000 C   0  0  0  0  0  0  0  0  0  0  0  0
   -1.5000    2.5981    0.0000 C   0  0  0  0  0  0  0  0  0  0  0  0
    3.0000    2.5981    0.0000 S   0  0  0  0  0  0  0  0  0  0  0  0
    3.0000    4.0981    0.0000 O   0  0  0  0  0  0  0  0  0  0  0  0
    3.0000    1.0981    0.0000 O   0  0  0  0  0  0  0  0  0  0  0  0
    4.5000    2.5981    0.0000 N   0  0  0  0  0  0  0  0  0  0  0  0
    5.1508    3.9495    0.0000 C   0  0  0  0  0  0  0  0  0  0  0  0
    6.6132    4.2833    0.0000 C   0  0  0  0  0  0  0  0  0  0  0  0
    7.7860    3.3481    0.0000 C   0  0  0  0  0  0  0  0  0  0  0  0
    7.7860    1.8481    0.0000 N   0  0  0  0  0  0  0  0  0  0  0  0
    6.6132    0.9128    0.0000 C   0  0  0  0  0  0  0  0  0  0  0  0
    5.1508    1.2466    0.0000 C   0  0  0  0  0  0  0  0  0  0  0  0
    4.2156    0.0739    0.0000 C   0  0  0  0  0  0  0  0  0  0  0  0
  1  2  1  0
  2  3  2  0
  3  4  1  0
  4  5  2  0
  5  6  1  0
  6  7  2  0
  7  8  1  0
  8  9  2  0
  9 10  1  0
 10 11  2  0
  8 12  1  0
 12 13  2  0
 12 14  2  0
 12 15  1  0
 15 16  1  0
 16 17  1  0
 17 18  1  0
 18 19  1  0
 19 20  1  0
 20 21  1  0
 21 22  1  6
  7  2  1  0
 11  6  1  0
 21 15  1  0
M  END
>  <Structure>  (3) 
2GNH

>  <Dataset>  (3) 
PDB

>  <Chain>  (3) 
A

>  <Spatial_Label>  (3) 
DFGin

>  <Dihedral_Label>  (3) 
ABAminus

>  <C_Helix_Label>  (3) 
Chelix-in

>  <Lig_ID>  (3) 
H52

>  <Lig_Entity_ID>  (3) 
2GNH_3

>  <Lig_Name>  (3) 
(S)-2-METHYL-1-[(4-METHYL-5-ISOQUINOLINE)SULFONYL]-HOMOPIPERAZINE

>  <Lig_Formula>  (3) 
C16H21N3O2S

>  <Lig_SMILES>  (3) 
Cc1cncc2c1c(ccc2)S(=O)(=O)[N@]3CCCNC[C@@H]3C

>  <Lig_MW>  (3) 
319.422

>  <Lig_ChEMBL_ID>  (3) 
['CHEMBL406821']

>  <Lig_DrugBank_ID>  (3) 
['DB07876']

>  <Occurence>  (3) 
3.0

>  <Lig_SMILES_Uncharged>  (3) 
Cc1cncc2cccc(S(=O)(=O)N3CCCNC[C@@H]3C)c12

>  <Lig_Conformer>  (3) 
['NaN', 'NaN']

>  <Lig_Of_Interest>  (3) 
['Y', 'Y']

>  <Lig_Completeness>  (3) 
[1.0, 1.0]

>  <Lig_Occupancy>  (3) 
[1.0, 1.0]

>  <Lig_RSCC>  (3) 
[0.952, 0.927]

>  <Lig_RSR>  (3) 
[0.135, 0.126]

>  <Lig_RMSZ_Bonds>  (3) 
[2.24, 2.21]

>  <Lig_RMSZ_Angles>  (3) 
[2.64, 2.42]

>  <Lig_Alt_Conf>  (3) 
0.0

>  <Title>  (3) 
PKA five fold mutant model of Rho-kinase with H1152P

>  <Nonpolymer_Entity_Count>  (3) 
2.0

>  <Protein_Entity_Count>  (3) 
2.0

>  <Exp_Method>  (3) 
X-Ray Diffraction

>  <Cryst_Method>  (3) 
Vapor Diffusion, Hanging Drop; Licl, Mesbistris, Edta, Dtt, Mega8, Methanol, pH 6.5, Vapor Diffusion, Hanging Drop, Temperature 278K

>  <Deposit_Date>  (3) 
2006-04-10

>  <Resolution>  (3) 
2.05

>  <DOI>  (3) 
https://doi.org/10.1074/jbc.M512374200

>  <Source_Organism>  (3) 
Bos taurus

>  <R_Free>  (3) 
0.25587

>  <Keywords>  (3) 
Transferase/Transferase Inhibitor

>  <REMARK_280>  (3) 
 Crystal Solvent Content, Vs (%): 52.76 Matthews Coefficient, Vm (Angstroms**3/Da): 2.60 Crystallization Conditions: Licl, Mesbistris, Edta, Dtt, Mega8, Methanol, pH 6.5, Vapor Diffusion, Hanging Drop, Temperature 278K 

>  <REMARK_610>  (3) 
nan

>  <pH>  (3) 
6.5

>  <Cryst_Technique>  (3) 
co-crystallized

>  <Sequence>  (3) 
GNAAAAKKGSEQESVKEFLAKAKEDFLKKWENPAQNTAHLDQFERIKTIGTGSFGRVMLVKHMETGNHYAMKILDKQKVVKLKQIEHTLNEKRILQAVNFPFLVKLEFSFKDNSNLYMVMEYMPGGDMFSHLRRIGRFSEPHARFYAAQIVLTFEYLHSLDLIYRDLKPENLLIDQQGYIKVADFGFAKRVKGRTWTLCGTPEYLAPEIILSKGYNKAVDWWALGVLIYEMAAGYPPFFADQPIQIYEKIVSGKVRFPSHFSSDLKDLLRNLLQVDLTKRFGNLKNGVNDIKNHKWFATTDWIAIYQRKVEAPFIPKFKGPGDTSNFDDYEEEEIRVSINEKCGKEFSEF

>  <Sequence_Length>  (3) 
350.0

>  <Mutation_Count>  (3) 
8.0

>  <Gene_Name>  (3) 
PKACA

>  <MW>  (3) 
40.775

>  <Name>  (3) 
cAMP-Dependent Protein Kinase, Alpha-Catalytic Subunit

>  <Mutations>  (3) 
L49I, V123M, E127D, Q181K, T183A

>  <EC_Number>  (3) 
2.7.11.11

>  <Peptidic_Inhibitor>  (3) 
True

>  <Lig_Missing_Atoms>  (3) 
['No', 'No']

>  <PDBbind_Resolution>  (3) 
2.05

>  <PDBbind_Release_Year>  (3) 
2006.0

>  <PDBbind_Comment>  (3) 
nan

>  <PDBbind_Uniprot_Id>  (3) 
P00517

>  <PDBbind_Protein_Name>  (3) 
CAMP-DEPENDENT PROTEIN KINASE, ALPHA-CATALYTIC

>  <PDBbind_-Logkd/Ki>  (3) 
6.83

>  <PDBbind_Kd/Ki>  (3) 
IC=149nM

>  <PDBbind_Kd_Or_Ki_Or_Ic50>  (3) 
IC50

>  <PDBbind_Relation>  (3) 
=

>  <PDBbind_Value>  (3) 
149.0

>  <PDBbind_Unit>  (3) 
nM

>  <PDBbind_Standard_Value>  (3) 
149.0

>  <PDBbind_Standard_Unit>  (3) 
nM

>  <PDB_Chain>  (3) 
['A']

>  <Num_Ligs>  (3) 
[2.0]

>  <Orthosteric>  (3) 
[1.0]

>  <Allosteric>  (3) 
[1.0]

>  <Pockets_Assigned>  (3) 
['A, X']

>  <Multisite>  (3) 
[True]

>  <Same_Number>  (3) 
False

>  <Same_Binding_Site>  (3) 
True

>  <Same_Orientation>  (3) 
True

>  <Lig_Order_in_.pdb>  (3) 
Orthosteric, Allosteric

$$$$

     RDKit          2D

 20 22  0  0  0  0  0  0  0  0999 V2000
    0.7500   -3.8971    0.0000 C   0  0  0  0  0  0  0  0  0  0  0  0
    1.5000   -2.5981    0.0000 C   0  0  0  0  0  0  0  0  0  0  0  0
    0.7500   -1.2990    0.0000 C   0  0  0  0  0  0  0  0  0  0  0  0
    1.5000    0.0000    0.0000 C   0  0  0  0  0  0  0  0  0  0  0  0
    0.7500    1.2990    0.0000 N   0  0  0  0  0  0  0  0  0  0  0  0
   -0.7500    1.2990    0.0000 C   0  0  0  0  0  0  0  0  0  0  0  0
   -1.5000    0.0000    0.0000 C   0  0  0  0  0  0  0  0  0  0  0  0
   -0.7500   -1.2990    0.0000 C   0  0  0  0  0  0  0  0  0  0  0  0
   -1.5000   -2.5981    0.0000 C   0  0  0  0  0  0  0  0  0  0  0  0
   -0.7500   -3.8971    0.0000 C   0  0  0  0  0  0  0  0  0  0  0  0
   -3.0000   -2.5981    0.0000 S   0  0  0  0  0  0  0  0  0  0  0  0
   -3.0000   -4.0981    0.0000 O   0  0  0  0  0  0  0  0  0  0  0  0
   -3.0000   -1.0981    0.0000 O   0  0  0  0  0  0  0  0  0  0  0  0
   -4.5000   -2.5981    0.0000 N   0  0  0  0  0  0  0  0  0  0  0  0
   -5.1508   -3.9495    0.0000 C   0  0  0  0  0  0  0  0  0  0  0  0
   -6.6132   -4.2833    0.0000 C   0  0  0  0  0  0  0  0  0  0  0  0
   -7.7860   -3.3481    0.0000 C   0  0  0  0  0  0  0  0  0  0  0  0
   -7.7860   -1.8481    0.0000 N   0  0  0  0  0  0  0  0  0  0  0  0
   -6.6132   -0.9128    0.0000 C   0  0  0  0  0  0  0  0  0  0  0  0
   -5.1508   -1.2466    0.0000 C   0  0  0  0  0  0  0  0  0  0  0  0
  1  2  2  0
  2  3  1  0
  3  4  2  0
  4  5  1  0
  5  6  2  0
  6  7  1  0
  7  8  2  0
  8  9  1  0
  9 10  2  0
  9 11  1  0
 11 12  2  0
 11 13  2  0
 11 14  1  0
 14 15  1  0
 15 16  1  0
 16 17  1  0
 17 18  1  0
 18 19  1  0
 19 20  1  0
 10  1  1  0
  8  3  1  0
 20 14  1  0
M  END
>  <Structure>  (4) 
2GNI

>  <Dataset>  (4) 
PDB

>  <Chain>  (4) 
A

>  <Spatial_Label>  (4) 
DFGin

>  <Dihedral_Label>  (4) 
ABAminus

>  <C_Helix_Label>  (4) 
Chelix-in

>  <Lig_ID>  (4) 
M77

>  <Lig_Entity_ID>  (4) 
2GNI_3

>  <Lig_Name>  (4) 
5-(1,4-DIAZEPAN-1-SULFONYL)ISOQUINOLINE

>  <Lig_Formula>  (4) 
C14H17N3O2S

>  <Lig_SMILES>  (4) 
c1cc2cnccc2c(c1)S(=O)(=O)N3CCCNCC3

>  <Lig_MW>  (4) 
291.369

>  <Lig_ChEMBL_ID>  (4) 
['CHEMBL38380']

>  <Lig_DrugBank_ID>  (4) 
['DB08162']

>  <Occurence>  (4) 
10.0

>  <Lig_SMILES_Uncharged>  (4) 
O=S(=O)(c1cccc2cnccc12)N1CCCNCC1

>  <Lig_Conformer>  (4) 
['NaN']

>  <Lig_Of_Interest>  (4) 
['Y']

>  <Lig_Completeness>  (4) 
[1.0]

>  <Lig_Occupancy>  (4) 
[1.0]

>  <Lig_RSCC>  (4) 
[0.966]

>  <Lig_RSR>  (4) 
[0.136]

>  <Lig_RMSZ_Bonds>  (4) 
[1.44]

>  <Lig_RMSZ_Angles>  (4) 
[1.87]

>  <Lig_Alt_Conf>  (4) 
0.0

>  <Title>  (4) 
PKA fivefold mutant model of Rho-kinase with inhibitor Fasudil (HA1077)

>  <Nonpolymer_Entity_Count>  (4) 
1.0

>  <Protein_Entity_Count>  (4) 
2.0

>  <Exp_Method>  (4) 
X-Ray Diffraction

>  <Cryst_Method>  (4) 
Vapor Diffusion, Hanging Drop; Methanol, Licl, Mesbistris, Edta, Dtt, Mega8, pH 6.5, Vapor Diffusion, Hanging Drop, Temperature 278K

>  <Deposit_Date>  (4) 
2006-04-10

>  <Resolution>  (4) 
2.27

>  <DOI>  (4) 
https://doi.org/10.1074/jbc.M512374200

>  <Source_Organism>  (4) 
Bos taurus

>  <R_Free>  (4) 
0.26817

>  <Keywords>  (4) 
Transferase/Transferase Inhibitor

>  <REMARK_280>  (4) 
 Crystal Solvent Content, Vs (%): 52.02 Matthews Coefficient, Vm (Angstroms**3/Da): 2.56 Crystallization Conditions: Methanol, Licl, Mesbistris, Edta, Dtt, Mega8, pH 6.5, Vapor Diffusion, Hanging Drop, Temperature 278K 

>  <REMARK_610>  (4) 
nan

>  <pH>  (4) 
6.5

>  <Cryst_Technique>  (4) 
co-crystallized

>  <Sequence>  (4) 
GNAAAAKKGSEQESVKEFLAKAKEDFLKKWENPAQNTAHLDQFERIKTIGTGSFGRVMLVKHMETGNHYAMKILDKQKVVKLKQIEHTLNEKRILQAVNFPFLVKLEFSFKDNSNLYMVMEYMPGGDMFSHLRRIGRFSEPHARFYAAQIVLTFEYLHSLDLIYRDLKPENLLIDQQGYIKVADFGFAKRVKGRTWTLCGTPEYLAPEIILSKGYNKAVDWWALGVLIYEMAAGYPPFFADQPIQIYEKIVSGKVRFPSHFSSDLKDLLRNLLQVDLTKRFGNLKNGVNDIKNHKWFATTDWIAIYQRKVEAPFIPKFKGPGDTSNFDDYEEEEIRVSINEKCGKEFSEF

>  <Sequence_Length>  (4) 
350.0

>  <Mutation_Count>  (4) 
8.0

>  <Gene_Name>  (4) 
PKACA

>  <MW>  (4) 
40.775

>  <Name>  (4) 
cAMP-Dependent Protein Kinase, Alpha-Catalytic Subunit

>  <Mutations>  (4) 
L49I, V123M, E127D, Q181K, T183A

>  <EC_Number>  (4) 
2.7.11.11

>  <Peptidic_Inhibitor>  (4) 
True

>  <Lig_Missing_Atoms>  (4) 
['No']

>  <PDBbind_Resolution>  (4) 
2.27

>  <PDBbind_Release_Year>  (4) 
2006.0

>  <PDBbind_Comment>  (4) 
nan

>  <PDBbind_Uniprot_Id>  (4) 
P00517

>  <PDBbind_Protein_Name>  (4) 
CAMP-DEPENDENT PROTEIN KINASE, ALPHA-CATALYTIC

>  <PDBbind_-Logkd/Ki>  (4) 
5.64

>  <PDBbind_Kd/Ki>  (4) 
IC=2.28uM

>  <PDBbind_Kd_Or_Ki_Or_Ic50>  (4) 
IC50

>  <PDBbind_Relation>  (4) 
=

>  <PDBbind_Value>  (4) 
2.28

>  <PDBbind_Unit>  (4) 
uM

>  <PDBbind_Standard_Value>  (4) 
2280.0

>  <PDBbind_Standard_Unit>  (4) 
nM

>  <PDB_Chain>  (4) 
['A']

>  <Num_Ligs>  (4) 
[1.0]

>  <Orthosteric>  (4) 
[1.0]

>  <Allosteric>  (4) 
[0.0]

>  <Pockets_Assigned>  (4) 
['A']

>  <Multisite>  (4) 
[False]

>  <Same_Number>  (4) 
True

>  <Same_Binding_Site>  (4) 
True

>  <Same_Orientation>  (4) 
True

>  <Lig_Order_in_.pdb>  (4) 
Orthosteric

$$$$

     RDKit          2D

 18 19  0  0  0  0  0  0  0  0999 V2000
    3.7500   -1.2990    0.0000 C   0  0  0  0  0  0  0  0  0  0  0  0
    3.0000    0.0000    0.0000 C   0  0  0  0  0  0  0  0  0  0  0  0
    1.5000    0.0000    0.0000 C   0  0  0  0  0  0  0  0  0  0  0  0
    0.7500   -1.2990    0.0000 C   0  0  0  0  0  0  0  0  0  0  0  0
   -0.7500   -1.2990    0.0000 C   0  0  0  0  0  0  0  0  0  0  0  0
   -1.5000    0.0000    0.0000 C   0  0  0  0  0  0  0  0  0  0  0  0
   -0.7500    1.2990    0.0000 C   0  0  0  0  0  0  0  0  0  0  0  0
    0.7500    1.2990    0.0000 C   0  0  0  0  0  0  0  0  0  0  0  0
   -3.0000    0.0000    0.0000 C   0  0  0  0  0  0  0  0  0  0  0  0
   -3.7500   -1.2990    0.0000 O   0  0  0  0  0  0  0  0  0  0  0  0
   -3.7500    1.2990    0.0000 N   0  0  0  0  0  0  0  0  0  0  0  0
   -5.2500    1.2990    0.0000 C   0  0  0  0  0  0  0  0  0  0  0  0
   -6.0000    2.5981    0.0000 C   0  0  0  0  0  0  0  0  0  0  0  0
   -7.5000    2.5981    0.0000 C   0  0  0  0  0  0  0  0  0  0  0  0
   -8.2500    1.2990    0.0000 N   0  0  0  0  0  0  0  0  0  0  0  0
   -7.5000    0.0000    0.0000 C   0  0  0  0  0  0  0  0  0  0  0  0
   -6.0000    0.0000    0.0000 C   0  0  0  0  0  0  0  0  0  0  0  0
    3.7500    1.2990    0.0000 N   0  0  0  0  0  0  0  0  0  0  0  0
  2  1  1  6
  2  3  1  0
  3  4  1  0
  4  5  1  0
  5  6  1  0
  6  7  1  0
  7  8  1  0
  6  9  1  0
  9 10  2  0
  9 11  1  0
 11 12  1  0
 12 13  2  0
 13 14  1  0
 14 15  2  0
 15 16  1  0
 16 17  2  0
  2 18  1  0
  8  3  1  0
 17 12  1  0
M  END
>  <Structure>  (5) 
2GNJ

>  <Dataset>  (5) 
PDB

>  <Chain>  (5) 
A

>  <Spatial_Label>  (5) 
DFGin

>  <Dihedral_Label>  (5) 
BLAminus

>  <C_Helix_Label>  (5) 
Chelix-in

>  <Lig_ID>  (5) 
Y27

>  <Lig_Entity_ID>  (5) 
2GNJ_3

>  <Lig_Name>  (5) 
(R)-TRANS-4-(1-AMINOETHYL)-N-(4-PYRIDYL) CYCLOHEXANECARBOXAMIDE

>  <Lig_Formula>  (5) 
C14H21N3O

>  <Lig_SMILES>  (5) 
C[C@H](C1CCC(CC1)C(=O)Nc2ccncc2)N

>  <Lig_MW>  (5) 
247.336

>  <Lig_ChEMBL_ID>  (5) 
nan

>  <Lig_DrugBank_ID>  (5) 
['DB08756']

>  <Occurence>  (5) 
2.0

>  <Lig_SMILES_Uncharged>  (5) 
C[C@@H](N)C1CCC(C(=O)Nc2ccncc2)CC1

>  <Lig_Conformer>  (5) 
['NaN']

>  <Lig_Of_Interest>  (5) 
['Y']

>  <Lig_Completeness>  (5) 
[1.0]

>  <Lig_Occupancy>  (5) 
[1.0]

>  <Lig_RSCC>  (5) 
[0.949]

>  <Lig_RSR>  (5) 
[0.103]

>  <Lig_RMSZ_Bonds>  (5) 
[1.26]

>  <Lig_RMSZ_Angles>  (5) 
[1.03]

>  <Lig_Alt_Conf>  (5) 
0.0

>  <Title>  (5) 
PKA three fold mutant model of Rho-kinase with Y-27632

>  <Nonpolymer_Entity_Count>  (5) 
1.0

>  <Protein_Entity_Count>  (5) 
2.0

>  <Exp_Method>  (5) 
X-Ray Diffraction

>  <Cryst_Method>  (5) 
Vapor Diffusion, Hanging Drop; Licl, Mesbistris, Edta, Dtt, Mega8, Methanol, pH 6.5, Vapor Diffusion, Hanging Drop, Temperature 278K

>  <Deposit_Date>  (5) 
2006-04-10

>  <Resolution>  (5) 
2.28

>  <DOI>  (5) 
https://doi.org/10.1074/jbc.M512374200

>  <Source_Organism>  (5) 
Bos taurus

>  <R_Free>  (5) 
0.26185

>  <Keywords>  (5) 
Transferase/Transferase Inhibitor

>  <REMARK_280>  (5) 
 Crystal Solvent Content, Vs (%): 51.83 Matthews Coefficient, Vm (Angstroms**3/Da): 2.55 Crystallization Conditions: Licl, Mesbistris, Edta, Dtt, Mega8, Methanol, pH 6.5, Vapor Diffusion, Hanging Drop, Temperature 278K 

>  <REMARK_610>  (5) 
nan

>  <pH>  (5) 
6.5

>  <Cryst_Technique>  (5) 
co-crystallized

>  <Sequence>  (5) 
GNAAAAKKGSEQESVKEFLAKAKEDFLKKWENPAQNTAHLDQFERIKTIGTGSFGRVMLVKHMETGNHYAMKILDKQKVVKLKQIEHTLNEKRILQAVNFPFLVKLEFSFKDNSNLYMVMEYVPGGEMFSHLRRIGRFSEPHARFYAAQIVLTFEYLHSLDLIYRDLKPENLLIDQQGYIKVADFGFAKRVKGRTWTLCGTPEYLAPEIILSKGYNKAVDWWALGVLIYEMAAGYPPFFADQPIQIYEKIVSGKVRFPSHFSSDLKDLLRNLLQVDLTKRFGNLKNGVNDIKNHKWFATTDWIAIYQRKVEAPFIPKFKGPGDTSNFDDYEEEEIRVSINEKCGKEFSEF

>  <Sequence_Length>  (5) 
350.0

>  <Mutation_Count>  (5) 
5.0

>  <Gene_Name>  (5) 
PKACA

>  <MW>  (5) 
40.677

>  <Name>  (5) 
cAMP-Dependent Protein Kinase, Alpha-Catalytic Subunit

>  <Mutations>  (5) 
L49I, Q181K, T183A

>  <EC_Number>  (5) 
2.7.11.11

>  <Peptidic_Inhibitor>  (5) 
True

>  <Lig_Missing_Atoms>  (5) 
['No']

>  <PDBbind_Resolution>  (5) 
2.28

>  <PDBbind_Release_Year>  (5) 
2006.0

>  <PDBbind_Comment>  (5) 
nan

>  <PDBbind_Uniprot_Id>  (5) 
P00517

>  <PDBbind_Protein_Name>  (5) 
CAMP-DEPENDENT PROTEIN KINASE, ALPHA-CATALYTIC

>  <PDBbind_-Logkd/Ki>  (5) 
5.22

>  <PDBbind_Kd/Ki>  (5) 
IC=6uM

>  <PDBbind_Kd_Or_Ki_Or_Ic50>  (5) 
IC50

>  <PDBbind_Relation>  (5) 
=

>  <PDBbind_Value>  (5) 
6.0

>  <PDBbind_Unit>  (5) 
uM

>  <PDBbind_Standard_Value>  (5) 
6000.0

>  <PDBbind_Standard_Unit>  (5) 
nM

>  <PDB_Chain>  (5) 
['A']

>  <Num_Ligs>  (5) 
[1.0]

>  <Orthosteric>  (5) 
[1.0]

>  <Allosteric>  (5) 
[0.0]

>  <Pockets_Assigned>  (5) 
['A']

>  <Multisite>  (5) 
[False]

>  <Same_Number>  (5) 
True

>  <Same_Binding_Site>  (5) 
True

>  <Same_Orientation>  (5) 
True

>  <Lig_Order_in_.pdb>  (5) 
Orthosteric

$$$$

     RDKit          2D

 22 24  0  0  0  0  0  0  0  0999 V2000
    3.0000    0.0000    0.0000 C   0  0  0  0  0  0  0  0  0  0  0  0
    1.5000    0.0000    0.0000 C   0  0  0  0  0  0  0  0  0  0  0  0
    0.7500   -1.2990    0.0000 C   0  0  0  0  0  0  0  0  0  0  0  0
   -0.7500   -1.2990    0.0000 N   0  0  0  0  0  0  0  0  0  0  0  0
   -1.5000    0.0000    0.0000 C   0  0  0  0  0  0  0  0  0  0  0  0
   -0.7500    1.2990    0.0000 C   0  0  0  0  0  0  0  0  0  0  0  0
    0.7500    1.2990    0.0000 C   0  0  0  0  0  0  0  0  0  0  0  0
    1.5000    2.5981    0.0000 C   0  0  0  0  0  0  0  0  0  0  0  0
    0.7500    3.8971    0.0000 C   0  0  0  0  0  0  0  0  0  0  0  0
   -0.7500    3.8971    0.0000 C   0  0  0  0  0  0  0  0  0  0  0  0
   -1.5000    2.5981    0.0000 C   0  0  0  0  0  0  0  0  0  0  0  0
    3.0000    2.5981    0.0000 S   0  0  0  0  0  0  0  0  0  0  0  0
    3.0000    4.0981    0.0000 O   0  0  0  0  0  0  0  0  0  0  0  0
    3.0000    1.0981    0.0000 O   0  0  0  0  0  0  0  0  0  0  0  0
    4.5000    2.5981    0.0000 N   0  0  0  0  0  0  0  0  0  0  0  0
    5.1508    3.9495    0.0000 C   0  0  0  0  0  0  0  0  0  0  0  0
    6.6132    4.2833    0.0000 C   0  0  0  0  0  0  0  0  0  0  0  0
    7.7860    3.3481    0.0000 C   0  0  0  0  0  0  0  0  0  0  0  0
    7.7860    1.8481    0.0000 N   0  0  0  0  0  0  0  0  0  0  0  0
    6.6132    0.9128    0.0000 C   0  0  0  0  0  0  0  0  0  0  0  0
    5.1508    1.2466    0.0000 C   0  0  0  0  0  0  0  0  0  0  0  0
    4.2156    0.0739    0.0000 C   0  0  0  0  0  0  0  0  0  0  0  0
  1  2  1  0
  2  3  2  0
  3  4  1  0
  4  5  2  0
  5  6  1  0
  6  7  2  0
  7  8  1  0
  8  9  2  0
  9 10  1  0
 10 11  2  0
  8 12  1  0
 12 13  2  0
 12 14  2  0
 12 15  1  0
 15 16  1  0
 16 17  1  0
 17 18  1  0
 18 19  1  0
 19 20  1  0
 20 21  1  0
 21 22  1  6
  7  2  1  0
 11  6  1  0
 21 15  1  0
M  END
>  <Structure>  (6) 
2GNL

>  <Dataset>  (6) 
PDB

>  <Chain>  (6) 
A

>  <Spatial_Label>  (6) 
DFGin

>  <Dihedral_Label>  (6) 
BLAminus

>  <C_Helix_Label>  (6) 
Chelix-in

>  <Lig_ID>  (6) 
H52

>  <Lig_Entity_ID>  (6) 
2GNL_3

>  <Lig_Name>  (6) 
(S)-2-METHYL-1-[(4-METHYL-5-ISOQUINOLINE)SULFONYL]-HOMOPIPERAZINE

>  <Lig_Formula>  (6) 
C16H21N3O2S

>  <Lig_SMILES>  (6) 
Cc1cncc2c1c(ccc2)S(=O)(=O)[N@]3CCCNC[C@@H]3C

>  <Lig_MW>  (6) 
319.422

>  <Lig_ChEMBL_ID>  (6) 
['CHEMBL406821']

>  <Lig_DrugBank_ID>  (6) 
['DB07876']

>  <Occurence>  (6) 
3.0

>  <Lig_SMILES_Uncharged>  (6) 
Cc1cncc2cccc(S(=O)(=O)N3CCCNC[C@@H]3C)c12

>  <Lig_Conformer>  (6) 
['NaN']

>  <Lig_Of_Interest>  (6) 
['Y']

>  <Lig_Completeness>  (6) 
[1.0]

>  <Lig_Occupancy>  (6) 
[1.0]

>  <Lig_RSCC>  (6) 
[0.954]

>  <Lig_RSR>  (6) 
[0.165]

>  <Lig_RMSZ_Bonds>  (6) 
[2.51]

>  <Lig_RMSZ_Angles>  (6) 
[3.01]

>  <Lig_Alt_Conf>  (6) 
0.0

>  <Title>  (6) 
PKA threefold mutant model of Rho-kinase with inhibitor H-1152P

>  <Nonpolymer_Entity_Count>  (6) 
1.0

>  <Protein_Entity_Count>  (6) 
2.0

>  <Exp_Method>  (6) 
X-Ray Diffraction

>  <Cryst_Method>  (6) 
Vapor Diffusion, Hanging Drop; Methanol, Licl, Mesbistris, Dtt, Edta, pH 6.5, Vapor Diffusion, Hanging Drop, Temperature 278K

>  <Deposit_Date>  (6) 
2006-04-10

>  <Resolution>  (6) 
2.6

>  <DOI>  (6) 
https://doi.org/10.1074/jbc.M512374200

>  <Source_Organism>  (6) 
Bos taurus

>  <R_Free>  (6) 
0.3026

>  <Keywords>  (6) 
Transferase/Transferase Inhibitor

>  <REMARK_280>  (6) 
 Crystal Solvent Content, Vs (%): 51.75 Matthews Coefficient, Vm (Angstroms**3/Da): 2.55 Crystallization Conditions: Methanol, Licl, Mesbistris, Dtt, Edta, pH 6.5, Vapor Diffusion, Hanging Drop, Temperature 278K 

>  <REMARK_610>  (6) 
nan

>  <pH>  (6) 
6.5

>  <Cryst_Technique>  (6) 
co-crystallized

>  <Sequence>  (6) 
GNAAAAKKGSEQESVKEFLAKAKEDFLKKWENPAQNTAHLDQFERIKTIGTGSFGRVMLVKHMETGNHYAMKILDKQKVVKLKQIEHTLNEKRILQAVNFPFLVKLEFSFKDNSNLYMVMEYVPGGEMFSHLRRIGRFSEPHARFYAAQIVLTFEYLHSLDLIYRDLKPENLLIDQQGYIKVADFGFAKRVKGRTWTLCGTPEYLAPEIILSKGYNKAVDWWALGVLIYEMAAGYPPFFADQPIQIYEKIVSGKVRFPSHFSSDLKDLLRNLLQVDLTKRFGNLKNGVNDIKNHKWFATTDWIAIYQRKVEAPFIPKFKGPGDTSNFDDYEEEEIRVSINEKCGKEFSEF

>  <Sequence_Length>  (6) 
350.0

>  <Mutation_Count>  (6) 
5.0

>  <Gene_Name>  (6) 
PKACA

>  <MW>  (6) 
40.677

>  <Name>  (6) 
cAMP-Dependent Protein Kinase, Alpha-Catalytic Subunit

>  <Mutations>  (6) 
L49I, Q181K, T183A

>  <EC_Number>  (6) 
2.7.11.11

>  <Peptidic_Inhibitor>  (6) 
True

>  <Lig_Missing_Atoms>  (6) 
['No']

>  <PDBbind_Resolution>  (6) 
2.6

>  <PDBbind_Release_Year>  (6) 
2006.0

>  <PDBbind_Comment>  (6) 
nan

>  <PDBbind_Uniprot_Id>  (6) 
P00517

>  <PDBbind_Protein_Name>  (6) 
CAMP-DEPENDENT PROTEIN KINASE, ALPHA-CATALYTIC

>  <PDBbind_-Logkd/Ki>  (6) 
7.24

>  <PDBbind_Kd/Ki>  (6) 
IC=58nM

>  <PDBbind_Kd_Or_Ki_Or_Ic50>  (6) 
IC50

>  <PDBbind_Relation>  (6) 
=

>  <PDBbind_Value>  (6) 
58.0

>  <PDBbind_Unit>  (6) 
nM

>  <PDBbind_Standard_Value>  (6) 
58.0

>  <PDBbind_Standard_Unit>  (6) 
nM

>  <PDB_Chain>  (6) 
['A']

>  <Num_Ligs>  (6) 
[1.0]

>  <Orthosteric>  (6) 
[1.0]

>  <Allosteric>  (6) 
[0.0]

>  <Pockets_Assigned>  (6) 
['A']

>  <Multisite>  (6) 
[True]

>  <Same_Number>  (6) 
False

>  <Same_Binding_Site>  (6) 
True

>  <Same_Orientation>  (6) 
True

>  <Lig_Order_in_.pdb>  (6) 
Orthosteric

$$$$

     RDKit          2D

 30 34  0  0  0  0  0  0  0  0999 V2000
    2.6401   -3.1891    0.0000 C   0  0  0  0  0  0  0  0  0  0  0  0
    1.2135   -2.7256    0.0000 C   0  0  0  0  0  0  0  0  0  0  0  0
    0.7500   -1.2990    0.0000 C   0  0  0  0  0  0  0  0  0  0  0  0
    1.5000    0.0000    0.0000 C   0  0  0  0  0  0  0  0  0  0  0  0
    0.7500    1.2990    0.0000 C   0  0  0  0  0  0  0  0  0  0  0  0
   -0.7500    1.2990    0.0000 C   0  0  0  0  0  0  0  0  0  0  0  0
   -1.5000    0.0000    0.0000 C   0  0  0  0  0  0  0  0  0  0  0  0
   -0.7500   -1.2990    0.0000 C   0  0  0  0  0  0  0  0  0  0  0  0
   -1.2135   -2.7256    0.0000 N   0  0  0  0  0  0  0  0  0  0  0  0
   -0.0000   -3.6073    0.0000 N   0  0  0  0  0  0  0  0  0  0  0  0
    1.5000    2.5981    0.0000 C   0  0  0  0  0  0  0  0  0  0  0  0
    3.0000    2.5981    0.0000 C   0  0  0  0  0  0  0  0  0  0  0  0
    3.7500    3.8971    0.0000 C   0  0  0  0  0  0  0  0  0  0  0  0
    3.0000    5.1962    0.0000 C   0  0  0  0  0  0  0  0  0  0  0  0
    1.5000    5.1962    0.0000 N   0  0  0  0  0  0  0  0  0  0  0  0
    0.7500    3.8971    0.0000 C   0  0  0  0  0  0  0  0  0  0  0  0
    5.2500    3.8971    0.0000 O   0  0  0  0  0  0  0  0  0  0  0  0
    6.0000    2.5981    0.0000 C   0  0  0  0  0  0  0  0  0  0  0  0
    7.5000    2.5981    0.0000 C   0  0  0  0  0  0  0  0  0  0  0  0
    8.2500    1.2990    0.0000 C   0  0  0  0  0  0  0  0  0  0  0  0
    9.7500    1.2990    0.0000 C   0  0  0  0  0  0  0  0  0  0  0  0
   10.6317    2.5126    0.0000 C   0  0  0  0  0  0  0  0  0  0  0  0
   12.0583    2.0490    0.0000 N   0  0  0  0  0  0  0  0  0  0  0  0
   12.0583    0.5490    0.0000 C   0  0  0  0  0  0  0  0  0  0  0  0
   10.6317    0.0855    0.0000 C   0  0  0  0  0  0  0  0  0  0  0  0
   10.3198   -1.3817    0.0000 C   0  0  0  0  0  0  0  0  0  0  0  0
   11.4345   -2.3854    0.0000 C   0  0  0  0  0  0  0  0  0  0  0  0
   12.8611   -1.9219    0.0000 C   0  0  0  0  0  0  0  0  0  0  0  0
   13.1730   -0.4547    0.0000 C   0  0  0  0  0  0  0  0  0  0  0  0
    8.2500    3.8971    0.0000 N   0  0  0  0  0  0  0  0  0  0  0  0
  1  2  1  0
  2  3  1  0
  3  4  2  0
  4  5  1  0
  5  6  2  0
  6  7  1  0
  7  8  2  0
  8  9  1  0
  9 10  1  0
  5 11  1  0
 11 12  2  0
 12 13  1  0
 13 14  2  0
 14 15  1  0
 15 16  2  0
 13 17  1  0
 17 18  1  0
 18 19  1  0
 19 20  1  0
 20 21  1  0
 21 22  2  0
 22 23  1  0
 23 24  1  0
 24 25  2  0
 25 26  1  0
 26 27  2  0
 27 28  1  0
 28 29  2  0
 19 30  1  1
 10  2  2  0
  8  3  1  0
 16 11  1  0
 25 21  1  0
 29 24  1  0
M  END
>  <Structure>  (7) 
2JDS

>  <Dataset>  (7) 
PDB

>  <Chain>  (7) 
A

>  <Spatial_Label>  (7) 
DFGin

>  <Dihedral_Label>  (7) 
BLAminus

>  <C_Helix_Label>  (7) 
Chelix-in

>  <Lig_ID>  (7) 
L20

>  <Lig_Entity_ID>  (7) 
2JDS_3

>  <Lig_Name>  (7) 
(2S)-1-(1H-INDOL-3-YL)-3-{[5-(3-METHYL-1H-INDAZOL-5-YL)PYRIDIN-3-YL]OXY}PROPAN-2-AMINE

>  <Lig_Formula>  (7) 
C24H23N5O

>  <Lig_SMILES>  (7) 
Cc1c2cc(ccc2[nH]n1)c3cc(cnc3)OC[C@H](Cc4c[nH]c5c4cccc5)N

>  <Lig_MW>  (7) 
397.472

>  <Lig_ChEMBL_ID>  (7) 
['CHEMBL379300']

>  <Lig_DrugBank_ID>  (7) 
['DB08073']

>  <Occurence>  (7) 
3.0

>  <Lig_SMILES_Uncharged>  (7) 
Cc1n[nH]c2ccc(-c3cncc(OC[C@@H](N)Cc4c[nH]c5ccccc45)c3)cc12

>  <Lig_Conformer>  (7) 
['NaN']

>  <Lig_Of_Interest>  (7) 
['Y']

>  <Lig_Completeness>  (7) 
[1.0]

>  <Lig_Occupancy>  (7) 
[1.0]

>  <Lig_RSCC>  (7) 
[0.884]

>  <Lig_RSR>  (7) 
[0.18]

>  <Lig_RMSZ_Bonds>  (7) 
[1.3]

>  <Lig_RMSZ_Angles>  (7) 
[1.67]

>  <Lig_Alt_Conf>  (7) 
0.0

>  <Title>  (7) 
Structure of cAMP-dependent protein kinase complexed with A-443654

>  <Nonpolymer_Entity_Count>  (7) 
1.0

>  <Protein_Entity_Count>  (7) 
2.0

>  <Exp_Method>  (7) 
X-Ray Diffraction

>  <Cryst_Method>  (7) 
NaN; NaN

>  <Deposit_Date>  (7) 
2007-01-12

>  <Resolution>  (7) 
2.0

>  <DOI>  (7) 
https://doi.org/10.1016/J.JMB.2007.01.004

>  <Source_Organism>  (7) 
Bos taurus

>  <R_Free>  (7) 
0.272

>  <Keywords>  (7) 
Transferase

>  <REMARK_280>  (7) 
 Crystal Solvent Content, Vs (%): 47.46 Matthews Coefficient, Vm (Angstroms**3/Da): 2.36 Crystallization Conditions: Null 

>  <REMARK_610>  (7) 
nan

>  <pH>  (7) 
nan

>  <Cryst_Technique>  (7) 
soaked

>  <Sequence>  (7) 
MGNAAAAKKGSEQESVKEFLAKAKEDFLKKWENPAQNTAHLDQFERIKTLGTGSFGRVMLVKHMETGNHYAMKILDKQKVVKLKQIEHTLNEKRILQAVNFPFLVKLEFSFKDNSNLYMVMEYVPGGEMFSHLRRIGRFSEPHARFYAAQIVLTFEYLHSLDLIYRDLKPENLLIDQQGYIQVTDFGFAKRVKGRTWTLCGTPEYLAPEIILSKGYNKAVDWWALGVLIYEMAAGYPPFFADQPIQIYEKIVSGKVRFPSHFSSDLKDLLRNLLQVDLTKRFGNLKNGVNDIKNHKWFATTDWIAIYQRKVEAPFIPKFKGPGDTSNFDDYEEEEIRVSINEKCGKEFSEF

>  <Sequence_Length>  (7) 
351.0

>  <Mutation_Count>  (7) 
0.0

>  <Gene_Name>  (7) 
nan

>  <MW>  (7) 
40.918

>  <Name>  (7) 
cAMP-Dependent Protein Kinase

>  <Mutations>  (7) 
nan

>  <EC_Number>  (7) 
2.7.11.11

>  <Peptidic_Inhibitor>  (7) 
True

>  <Lig_Missing_Atoms>  (7) 
['No']

>  <PDBbind_Resolution>  (7) 
2.0

>  <PDBbind_Release_Year>  (7) 
2007.0

>  <PDBbind_Comment>  (7) 
Ki=160pM for PKB-alpha-L20 complex

>  <PDBbind_Uniprot_Id>  (7) 
P00517

>  <PDBbind_Protein_Name>  (7) 
CAMP-DEPENDENT PROTEIN KINASE

>  <PDBbind_-Logkd/Ki>  (7) 
8.2

>  <PDBbind_Kd/Ki>  (7) 
Ki=6.3nM

>  <PDBbind_Kd_Or_Ki_Or_Ic50>  (7) 
Ki

>  <PDBbind_Relation>  (7) 
=

>  <PDBbind_Value>  (7) 
6.3

>  <PDBbind_Unit>  (7) 
nM

>  <PDBbind_Standard_Value>  (7) 
6.3

>  <PDBbind_Standard_Unit>  (7) 
nM

>  <PDB_Chain>  (7) 
['A']

>  <Num_Ligs>  (7) 
[1.0]

>  <Orthosteric>  (7) 
[1.0]

>  <Allosteric>  (7) 
[0.0]

>  <Pockets_Assigned>  (7) 
['A']

>  <Multisite>  (7) 
[False]

>  <Same_Number>  (7) 
True

>  <Same_Binding_Site>  (7) 
True

>  <Same_Orientation>  (7) 
False

>  <Lig_Order_in_.pdb>  (7) 
Orthosteric

$$$$

     RDKit          2D

 28 30  0  0  0  0  0  0  0  0999 V2000
    0.7500   -3.8971    0.0000 C   0  0  0  0  0  0  0  0  0  0  0  0
    1.5000   -2.5981    0.0000 C   0  0  0  0  0  0  0  0  0  0  0  0
    0.7500   -1.2990    0.0000 C   0  0  0  0  0  0  0  0  0  0  0  0
    1.5000    0.0000    0.0000 C   0  0  0  0  0  0  0  0  0  0  0  0
    0.7500    1.2990    0.0000 N   0  0  0  0  0  0  0  0  0  0  0  0
   -0.7500    1.2990    0.0000 C   0  0  0  0  0  0  0  0  0  0  0  0
   -1.5000    0.0000    0.0000 C   0  0  0  0  0  0  0  0  0  0  0  0
   -0.7500   -1.2990    0.0000 C   0  0  0  0  0  0  0  0  0  0  0  0
   -1.5000   -2.5981    0.0000 C   0  0  0  0  0  0  0  0  0  0  0  0
   -0.7500   -3.8971    0.0000 C   0  0  0  0  0  0  0  0  0  0  0  0
   -3.0000   -2.5981    0.0000 S   0  0  0  0  0  0  0  0  0  0  0  0
   -3.0000   -4.0981    0.0000 O   0  0  0  0  0  0  0  0  0  0  0  0
   -3.0000   -1.0981    0.0000 O   0  0  0  0  0  0  0  0  0  0  0  0
   -4.5000   -2.5981    0.0000 N   0  0  0  0  0  0  0  0  0  0  0  0
   -5.2500   -1.2990    0.0000 C   0  0  0  0  0  0  0  0  0  0  0  0
   -6.7500   -1.2990    0.0000 C   0  0  0  0  0  0  0  0  0  0  0  0
   -7.5000   -0.0000    0.0000 N   0  0  0  0  0  0  0  0  0  0  0  0
   -9.0000   -0.0000    0.0000 C   0  0  0  0  0  0  0  0  0  0  0  0
   -9.7500    1.2990    0.0000 C   0  0  0  0  0  0  0  0  0  0  0  0
  -11.2500    1.2990    0.0000 O   0  0  0  0  0  0  0  0  0  0  0  0
  -12.0000    2.5981    0.0000 C   0  0  0  0  0  0  0  0  0  0  0  0
  -13.5000    2.5981    0.0000 C   0  0  0  0  0  0  0  0  0  0  0  0
  -14.2500    3.8971    0.0000 C   0  0  0  0  0  0  0  0  0  0  0  0
  -15.7500    3.8971    0.0000 C   0  0  0  0  0  0  0  0  0  0  0  0
  -16.5000    2.5981    0.0000 C   0  0  0  0  0  0  0  0  0  0  0  0
  -15.7500    1.2990    0.0000 C   0  0  0  0  0  0  0  0  0  0  0  0
  -14.2500    1.2990    0.0000 C   0  0  0  0  0  0  0  0  0  0  0  0
  -18.0000    2.5981    0.0000 Cl  0  0  0  0  0  0  0  0  0  0  0  0
  1  2  2  0
  2  3  1  0
  3  4  2  0
  4  5  1  0
  5  6  2  0
  6  7  1  0
  7  8  2  0
  8  9  1  0
  9 10  2  0
  9 11  1  0
 11 12  2  0
 11 13  2  0
 11 14  1  0
 14 15  1  0
 15 16  1  0
 16 17  1  0
 17 18  1  0
 18 19  1  0
 19 20  1  0
 20 21  1  0
 21 22  1  0
 22 23  2  0
 23 24  1  0
 24 25  2  0
 25 26  1  0
 26 27  2  0
 25 28  1  0
 10  1  1  0
  8  3  1  0
 27 22  1  0
M  END
>  <Structure>  (8) 
2JDT

>  <Dataset>  (8) 
PDB

>  <Chain>  (8) 
A

>  <Spatial_Label>  (8) 
DFGin

>  <Dihedral_Label>  (8) 
BLAminus

>  <C_Helix_Label>  (8) 
Chelix-in

>  <Lig_ID>  (8) 
I5S

>  <Lig_Entity_ID>  (8) 
2JDT_3

>  <Lig_Name>  (8) 
ISOQUINOLINE-5-SULFONIC ACID (2-(2-(4-CHLOROBENZYLOXY)ETHYLAMINO)ETHYL)AMIDE

>  <Lig_Formula>  (8) 
C20H22ClN3O3S

>  <Lig_SMILES>  (8) 
c1cc2cnccc2c(c1)S(=O)(=O)NCCNCCOCc3ccc(cc3)Cl

>  <Lig_MW>  (8) 
419.925

>  <Lig_ChEMBL_ID>  (8) 
['CHEMBL227381']

>  <Lig_DrugBank_ID>  (8) 
['DB07947']

>  <Occurence>  (8) 
1.0

>  <Lig_SMILES_Uncharged>  (8) 
O=S(=O)(NCCNCCOCc1ccc(Cl)cc1)c1cccc2cnccc12

>  <Lig_Conformer>  (8) 
['NaN']

>  <Lig_Of_Interest>  (8) 
['Y']

>  <Lig_Completeness>  (8) 
[1.0]

>  <Lig_Occupancy>  (8) 
[1.0]

>  <Lig_RSCC>  (8) 
[0.924]

>  <Lig_RSR>  (8) 
[0.14]

>  <Lig_RMSZ_Bonds>  (8) 
[1.15]

>  <Lig_RMSZ_Angles>  (8) 
[1.33]

>  <Lig_Alt_Conf>  (8) 
0.0

>  <Title>  (8) 
Structure of PKA-PKB chimera complexed with ISOQUINOLINE-5-SULFONIC ACID (2-(2-(4-CHLOROBENZYLOXY) ETHYLAMINO)ETHYL)AMIDE

>  <Nonpolymer_Entity_Count>  (8) 
1.0

>  <Protein_Entity_Count>  (8) 
2.0

>  <Exp_Method>  (8) 
X-Ray Diffraction

>  <Cryst_Method>  (8) 
NaN; NaN

>  <Deposit_Date>  (8) 
2007-01-12

>  <Resolution>  (8) 
2.15

>  <DOI>  (8) 
https://doi.org/10.1016/J.JMB.2007.01.004

>  <Source_Organism>  (8) 
Bos taurus

>  <R_Free>  (8) 
0.259

>  <Keywords>  (8) 
Transferase

>  <REMARK_280>  (8) 
 Crystal Solvent Content, Vs (%): 48.73 Matthews Coefficient, Vm (Angstroms**3/Da): 2.42 Crystallization Conditions: Null 

>  <REMARK_610>  (8) 
nan

>  <pH>  (8) 
nan

>  <Cryst_Technique>  (8) 
soaked

>  <Sequence>  (8) 
MGNAAAAKKGSEQESVKEFLAKAKEDFLKKWENPAQNTAHLDQFERIKTLGTGSFGRVMLVKHMETGNHYAMKILDKQKVVKLKQIEHTLNEKRILQAVNFPFLTKLEFSFKDNSNLYMVMEYAPGGEMFSHLRRIGRFSEPHARFYAAQIVLTFEYLHSLDLIYRDLKPENLMIDQQGYIKVTDFGFAKRVKGRTWTLCGTPEYLAPEIILSKGYNKAVDWWALGVLIYEMAAGYPPFFADQPIQIYEKIVSGKVRFPSHFSSDLKDLLRNLLQVDLTKRFGNLKNGVNDIKNHKWFATTDWIAIYQRKVEAPFIPKFKGPGDTSNFDDYEEEEIRVSINEKCGKEFSEF

>  <Sequence_Length>  (8) 
351.0

>  <Mutation_Count>  (8) 
4.0

>  <Gene_Name>  (8) 
nan

>  <MW>  (8) 
40.831

>  <Name>  (8) 
cAMP-Dependent Protein Kinase

>  <Mutations>  (8) 
YES

>  <EC_Number>  (8) 
2.7.11.11

>  <Peptidic_Inhibitor>  (8) 
True

>  <Lig_Missing_Atoms>  (8) 
['No']

>  <PDBbind_Resolution>  (8) 
2.15

>  <PDBbind_Release_Year>  (8) 
2007.0

>  <PDBbind_Comment>  (8) 
PKA-PKB-1, IC50 for PKB- beta -I5S complex is 0.23uM

>  <PDBbind_Uniprot_Id>  (8) 
P00517

>  <PDBbind_Protein_Name>  (8) 
CAMP-DEPENDENT PROTEIN KINASE

>  <PDBbind_-Logkd/Ki>  (8) 
6.77

>  <PDBbind_Kd/Ki>  (8) 
IC=0.17uM

>  <PDBbind_Kd_Or_Ki_Or_Ic50>  (8) 
IC50

>  <PDBbind_Relation>  (8) 
=

>  <PDBbind_Value>  (8) 
0.17

>  <PDBbind_Unit>  (8) 
uM

>  <PDBbind_Standard_Value>  (8) 
170.0

>  <PDBbind_Standard_Unit>  (8) 
nM

>  <PDB_Chain>  (8) 
['A']

>  <Num_Ligs>  (8) 
[1.0]

>  <Orthosteric>  (8) 
[1.0]

>  <Allosteric>  (8) 
[0.0]

>  <Pockets_Assigned>  (8) 
['A']

>  <Multisite>  (8) 
[False]

>  <Same_Number>  (8) 
True

>  <Same_Binding_Site>  (8) 
True

>  <Same_Orientation>  (8) 
True

>  <Lig_Order_in_.pdb>  (8) 
Orthosteric

$$$$

     RDKit          2D

 30 34  0  0  0  0  0  0  0  0999 V2000
    2.6401   -3.1891    0.0000 C   0  0  0  0  0  0  0  0  0  0  0  0
    1.2135   -2.7256    0.0000 C   0  0  0  0  0  0  0  0  0  0  0  0
    0.7500   -1.2990    0.0000 C   0  0  0  0  0  0  0  0  0  0  0  0
    1.5000    0.0000    0.0000 C   0  0  0  0  0  0  0  0  0  0  0  0
    0.7500    1.2990    0.0000 C   0  0  0  0  0  0  0  0  0  0  0  0
   -0.7500    1.2990    0.0000 C   0  0  0  0  0  0  0  0  0  0  0  0
   -1.5000    0.0000    0.0000 C   0  0  0  0  0  0  0  0  0  0  0  0
   -0.7500   -1.2990    0.0000 C   0  0  0  0  0  0  0  0  0  0  0  0
   -1.2135   -2.7256    0.0000 N   0  0  0  0  0  0  0  0  0  0  0  0
   -0.0000   -3.6073    0.0000 N   0  0  0  0  0  0  0  0  0  0  0  0
    1.5000    2.5981    0.0000 C   0  0  0  0  0  0  0  0  0  0  0  0
    3.0000    2.5981    0.0000 C   0  0  0  0  0  0  0  0  0  0  0  0
    3.7500    3.8971    0.0000 C   0  0  0  0  0  0  0  0  0  0  0  0
    3.0000    5.1962    0.0000 C   0  0  0  0  0  0  0  0  0  0  0  0
    1.5000    5.1962    0.0000 N   0  0  0  0  0  0  0  0  0  0  0  0
    0.7500    3.8971    0.0000 C   0  0  0  0  0  0  0  0  0  0  0  0
    5.2500    3.8971    0.0000 O   0  0  0  0  0  0  0  0  0  0  0  0
    6.0000    2.5981    0.0000 C   0  0  0  0  0  0  0  0  0  0  0  0
    7.5000    2.5981    0.0000 C   0  0  0  0  0  0  0  0  0  0  0  0
    8.2500    1.2990    0.0000 C   0  0  0  0  0  0  0  0  0  0  0  0
    9.7500    1.2990    0.0000 C   0  0  0  0  0  0  0  0  0  0  0  0
   10.6317    2.5126    0.0000 C   0  0  0  0  0  0  0  0  0  0  0  0
   12.0583    2.0490    0.0000 N   0  0  0  0  0  0  0  0  0  0  0  0
   12.0583    0.5490    0.0000 C   0  0  0  0  0  0  0  0  0  0  0  0
   10.6317    0.0855    0.0000 C   0  0  0  0  0  0  0  0  0  0  0  0
   10.3198   -1.3817    0.0000 C   0  0  0  0  0  0  0  0  0  0  0  0
   11.4345   -2.3854    0.0000 C   0  0  0  0  0  0  0  0  0  0  0  0
   12.8611   -1.9219    0.0000 C   0  0  0  0  0  0  0  0  0  0  0  0
   13.1730   -0.4547    0.0000 C   0  0  0  0  0  0  0  0  0  0  0  0
    8.2500    3.8971    0.0000 N   0  0  0  0  0  0  0  0  0  0  0  0
  1  2  1  0
  2  3  1  0
  3  4  2  0
  4  5  1  0
  5  6  2  0
  6  7  1  0
  7  8  2  0
  8  9  1  0
  9 10  1  0
  5 11  1  0
 11 12  2  0
 12 13  1  0
 13 14  2  0
 14 15  1  0
 15 16  2  0
 13 17  1  0
 17 18  1  0
 18 19  1  0
 19 20  1  0
 20 21  1  0
 21 22  2  0
 22 23  1  0
 23 24  1  0
 24 25  2  0
 25 26  1  0
 26 27  2  0
 27 28  1  0
 28 29  2  0
 19 30  1  1
 10  2  2  0
  8  3  1  0
 16 11  1  0
 25 21  1  0
 29 24  1  0
M  END
>  <Structure>  (9) 
2JDV

>  <Dataset>  (9) 
PDB

>  <Chain>  (9) 
A

>  <Spatial_Label>  (9) 
DFGin

>  <Dihedral_Label>  (9) 
BLAminus

>  <C_Helix_Label>  (9) 
Chelix-in

>  <Lig_ID>  (9) 
L20

>  <Lig_Entity_ID>  (9) 
2JDV_3

>  <Lig_Name>  (9) 
(2S)-1-(1H-INDOL-3-YL)-3-{[5-(3-METHYL-1H-INDAZOL-5-YL)PYRIDIN-3-YL]OXY}PROPAN-2-AMINE

>  <Lig_Formula>  (9) 
C24H23N5O

>  <Lig_SMILES>  (9) 
Cc1c2cc(ccc2[nH]n1)c3cc(cnc3)OC[C@H](Cc4c[nH]c5c4cccc5)N

>  <Lig_MW>  (9) 
397.472

>  <Lig_ChEMBL_ID>  (9) 
['CHEMBL379300']

>  <Lig_DrugBank_ID>  (9) 
['DB08073']

>  <Occurence>  (9) 
3.0

>  <Lig_SMILES_Uncharged>  (9) 
Cc1n[nH]c2ccc(-c3cncc(OC[C@@H](N)Cc4c[nH]c5ccccc45)c3)cc12

>  <Lig_Conformer>  (9) 
['NaN']

>  <Lig_Of_Interest>  (9) 
['Y']

>  <Lig_Completeness>  (9) 
[1.0]

>  <Lig_Occupancy>  (9) 
[1.0]

>  <Lig_RSCC>  (9) 
[0.959]

>  <Lig_RSR>  (9) 
[0.151]

>  <Lig_RMSZ_Bonds>  (9) 
[1.29]

>  <Lig_RMSZ_Angles>  (9) 
[1.62]

>  <Lig_Alt_Conf>  (9) 
0.0

>  <Title>  (9) 
Structure of PKA-PKB chimera complexed with A-443654

>  <Nonpolymer_Entity_Count>  (9) 
1.0

>  <Protein_Entity_Count>  (9) 
2.0

>  <Exp_Method>  (9) 
X-Ray Diffraction

>  <Cryst_Method>  (9) 
NaN; NaN

>  <Deposit_Date>  (9) 
2007-01-12

>  <Resolution>  (9) 
2.08

>  <DOI>  (9) 
https://doi.org/10.1016/J.JMB.2007.01.004

>  <Source_Organism>  (9) 
Bos taurus

>  <R_Free>  (9) 
0.276

>  <Keywords>  (9) 
Transferase

>  <REMARK_280>  (9) 
 Crystal Solvent Content, Vs (%): 48.16 Matthews Coefficient, Vm (Angstroms**3/Da): 2.39 Crystallization Conditions: Null 

>  <REMARK_610>  (9) 
nan

>  <pH>  (9) 
nan

>  <Cryst_Technique>  (9) 
soaked

>  <Sequence>  (9) 
MGNAAAAKKGSEQESVKEFLAKAKEDFLKKWENPAQNTAHLDQFERIKTLGTGSFGRVMLVKHMETGNHYAMKILDKQKVVKLKQIEHTLNEKRILQAVNFPFLTKLEFSFKDNSNLYMVMEYAPGGEMFSHLRRIGRFSEPHARFYAAQIVLTFEYLHSLDLIYRDLKPENLMIDQQGYIKVTDFGFAKRVKGRTWTLCGTPEYLAPEIILSKGYNKAVDWWALGVLIYEMAAGYPPFFADQPIQIYEKIVSGKVRFPSHFSSDLKDLLRNLLQVDLTKRFGNLKNGVNDIKNHKWFATTDWIAIYQRKVEAPFIPKFKGPGDTSNFDDYEEEEIRVSINEKCGKEFSEF

>  <Sequence_Length>  (9) 
351.0

>  <Mutation_Count>  (9) 
4.0

>  <Gene_Name>  (9) 
nan

>  <MW>  (9) 
40.831

>  <Name>  (9) 
cAMP-Dependent Protein Kinase

>  <Mutations>  (9) 
YES

>  <EC_Number>  (9) 
2.7.11.11

>  <Peptidic_Inhibitor>  (9) 
True

>  <Lig_Missing_Atoms>  (9) 
['No']

>  <PDBbind_Resolution>  (9) 
2.08

>  <PDBbind_Release_Year>  (9) 
2007.0

>  <PDBbind_Comment>  (9) 
PKA-PKB-2, Ki=160pM for PKB-alpha-L20 complex

>  <PDBbind_Uniprot_Id>  (9) 
P00517

>  <PDBbind_Protein_Name>  (9) 
CAMP-DEPENDENT PROTEIN KINASE

>  <PDBbind_-Logkd/Ki>  (9) 
8.2

>  <PDBbind_Kd/Ki>  (9) 
Ki=6.3nM

>  <PDBbind_Kd_Or_Ki_Or_Ic50>  (9) 
Ki

>  <PDBbind_Relation>  (9) 
=

>  <PDBbind_Value>  (9) 
6.3

>  <PDBbind_Unit>  (9) 
nM

>  <PDBbind_Standard_Value>  (9) 
6.3

>  <PDBbind_Standard_Unit>  (9) 
nM

>  <PDB_Chain>  (9) 
['A']

>  <Num_Ligs>  (9) 
[1.0]

>  <Orthosteric>  (9) 
[1.0]

>  <Allosteric>  (9) 
[0.0]

>  <Pockets_Assigned>  (9) 
['A']

>  <Multisite>  (9) 
[False]

>  <Same_Number>  (9) 
True

>  <Same_Binding_Site>  (9) 
True

>  <Same_Orientation>  (9) 
False

>  <Lig_Order_in_.pdb>  (9) 
Orthosteric

$$$$

     RDKit          2D

 29 33  0  0  0  0  0  0  0  0999 V2000
   -1.8351    3.2209    0.0000 C   0  0  0  0  0  0  0  0  0  0  0  0
   -2.1470    1.7537    0.0000 C   0  0  0  0  0  0  0  0  0  0  0  0
   -1.0323    0.7500    0.0000 C   0  0  0  0  0  0  0  0  0  0  0  0
    0.3943    1.2135    0.0000 C   0  0  0  0  0  0  0  0  0  0  0  0
    0.7062    2.6807    0.0000 C   0  0  0  0  0  0  0  0  0  0  0  0
   -0.4086    3.6844    0.0000 C   0  0  0  0  0  0  0  0  0  0  0  0
   -0.0967    5.1517    0.0000 C   0  0  0  0  0  0  0  0  0  0  0  0
    1.3299    5.6152    0.0000 C   0  0  0  0  0  0  0  0  0  0  0  0
    1.6418    7.0824    0.0000 C   0  0  0  0  0  0  0  0  0  0  0  0
    0.5271    8.0861    0.0000 C   0  0  0  0  0  0  0  0  0  0  0  0
   -0.8995    7.6226    0.0000 N   0  0  0  0  0  0  0  0  0  0  0  0
   -1.2114    6.1554    0.0000 C   0  0  0  0  0  0  0  0  0  0  0  0
    3.0684    7.5459    0.0000 O   0  0  0  0  0  0  0  0  0  0  0  0
    4.1831    6.5422    0.0000 C   0  0  0  0  0  0  0  0  0  0  0  0
    5.6097    7.0058    0.0000 C   0  0  0  0  0  0  0  0  0  0  0  0
    6.7244    6.0021    0.0000 C   0  0  0  0  0  0  0  0  0  0  0  0
    8.1510    6.4656    0.0000 C   0  0  0  0  0  0  0  0  0  0  0  0
    9.3645    5.5839    0.0000 C   0  0  0  0  0  0  0  0  0  0  0  0
    9.5213    4.0921    0.0000 C   0  0  0  0  0  0  0  0  0  0  0  0
   10.8916    3.4820    0.0000 C   0  0  0  0  0  0  0  0  0  0  0  0
   12.1051    4.3637    0.0000 C   0  0  0  0  0  0  0  0  0  0  0  0
   11.9483    5.8555    0.0000 C   0  0  0  0  0  0  0  0  0  0  0  0
   10.5780    6.4656    0.0000 C   0  0  0  0  0  0  0  0  0  0  0  0
   10.1145    7.8922    0.0000 N   0  0  0  0  0  0  0  0  0  0  0  0
    8.6145    7.8922    0.0000 C   0  0  0  0  0  0  0  0  0  0  0  0
    5.9215    8.4730    0.0000 N   0  0  0  0  0  0  0  0  0  0  0  0
    1.2760    0.0000    0.0000 C   0  0  0  0  0  0  0  0  0  0  0  0
    0.3943   -1.2135    0.0000 N   0  0  0  0  0  0  0  0  0  0  0  0
   -1.0323   -0.7500    0.0000 N   0  0  0  0  0  0  0  0  0  0  0  0
  1  2  2  0
  2  3  1  0
  3  4  2  0
  4  5  1  0
  5  6  2  0
  6  7  1  0
  7  8  2  0
  8  9  1  0
  9 10  2  0
 10 11  1  0
 11 12  2  0
  9 13  1  0
 13 14  1  0
 14 15  1  0
 15 16  1  0
 16 17  1  0
 17 18  2  0
 18 19  1  0
 19 20  2  0
 20 21  1  0
 21 22  2  0
 22 23  1  0
 23 24  1  0
 24 25  2  0
 15 26  1  1
  4 27  1  0
 27 28  2  0
 28 29  1  0
  6  1  1  0
 29  3  1  0
 12  7  1  0
 25 17  1  0
 23 18  1  0
M  END
>  <Structure>  (10) 
2OH0

>  <Dataset>  (10) 
PDB

>  <Chain>  (10) 
E

>  <Spatial_Label>  (10) 
DFGin

>  <Dihedral_Label>  (10) 
BLAminus

>  <C_Helix_Label>  (10) 
Chelix-in

>  <Lig_ID>  (10) 
2PY

>  <Lig_Entity_ID>  (10) 
2OH0_3

>  <Lig_Name>  (10) 
(2S)-1-{[5-(1H-INDAZOL-5-YL)PYRIDIN-3-YL]OXY}-3-[(7AS)-7AH-INDOL-3-YL]PROPAN-2-AMINE

>  <Lig_Formula>  (10) 
C23H21N5O

>  <Lig_SMILES>  (10) 
c1cc2c(cc1c3cc(cnc3)OC[C@H](CC4=C5C=CC=CC5N=C4)N)cn[nH]2

>  <Lig_MW>  (10) 
383.446

>  <Lig_ChEMBL_ID>  (10) 
nan

>  <Lig_DrugBank_ID>  (10) 
['DB06977']

>  <Occurence>  (10) 
1.0

>  <Lig_SMILES_Uncharged>  (10) 
N[C@H](COc1cncc(-c2ccc3[nH]ncc3c2)c1)CC1=C2C=CC=CC2N=C1

>  <Lig_Conformer>  (10) 
['NaN']

>  <Lig_Of_Interest>  (10) 
['Y']

>  <Lig_Completeness>  (10) 
[1.0]

>  <Lig_Occupancy>  (10) 
[0.9655]

>  <Lig_RSCC>  (10) 
['NaN']

>  <Lig_RSR>  (10) 
['NaN']

>  <Lig_RMSZ_Bonds>  (10) 
[1.98]

>  <Lig_RMSZ_Angles>  (10) 
[1.43]

>  <Lig_Alt_Conf>  (10) 
0.0

>  <Title>  (10) 
Crystal structure of Protein Kinase A in complex with Pyridine-Pyrazolopyridine Based Inhibitors

>  <Nonpolymer_Entity_Count>  (10) 
1.0

>  <Protein_Entity_Count>  (10) 
2.0

>  <Exp_Method>  (10) 
X-Ray Diffraction

>  <Cryst_Method>  (10) 
Vapor Diffusion, Hanging Drop; Vapor Diffusion, Hanging Drop

>  <Deposit_Date>  (10) 
2007-01-09

>  <Resolution>  (10) 
2.2

>  <DOI>  (10) 
https://doi.org/10.1016/j.bmc.2007.01.010

>  <Source_Organism>  (10) 
Bos taurus

>  <R_Free>  (10) 
0.32

>  <Keywords>  (10) 
Transferase

>  <REMARK_280>  (10) 
 Crystal Solvent Content, Vs (%): 51.46 Matthews Coefficient, Vm (Angstroms**3/Da): 2.53 Crystallization Conditions: Vapor Diffusion, Hanging Drop 

>  <REMARK_610>  (10) 
nan

>  <pH>  (10) 
nan

>  <Cryst_Technique>  (10) 
soaked

>  <Sequence>  (10) 
MGNAAAAKKGSEQESVKEFLAKAKEDFLKKWENPAQNTAHLDQFERIKTLGTGSFGRVMLVKHMETGNHYAMKILDKQKVVKLKQIEHTLNEKRILQAVNFPFLVKLEFSFKDNSNLYMVMEYVPGGEMFSHLRRIGRFSEPHARFYAAQIVLTFEYLHSLDLIYRDLKPENLLIDQQGYIQVTDFGFAKRVKGRTWTLCGTPEYLAPEIILSKGYNKAVDWWALGVLIYEMAAGYPPFFADQPIQIYEKIVSGKVRFPSHFSSDLKDLLRNLLQVDLTKRFGNLKNGVNDIKNHKWFATTDWIAIYQRKVEAPFIPKFKGPGDTSNFDDYEEEEIRVSINEKCGKEFSEF

>  <Sequence_Length>  (10) 
351.0

>  <Mutation_Count>  (10) 
0.0

>  <Gene_Name>  (10) 
PKACA

>  <MW>  (10) 
40.678

>  <Name>  (10) 
cAMP-Dependent Protein Kinase, Alpha-Catalytic Subunit

>  <Mutations>  (10) 
nan

>  <EC_Number>  (10) 
2.7.11.11

>  <Peptidic_Inhibitor>  (10) 
True

>  <Lig_Missing_Atoms>  (10) 
['No']

>  <PDBbind_Resolution>  (10) 
2.2

>  <PDBbind_Release_Year>  (10) 
2007.0

>  <PDBbind_Comment>  (10) 
nan

>  <PDBbind_Uniprot_Id>  (10) 
P00517

>  <PDBbind_Protein_Name>  (10) 
CAMP-DEPENDENT PROTEIN KINASE, ALPHA-CATALYTIC

>  <PDBbind_-Logkd/Ki>  (10) 
7.74

>  <PDBbind_Kd/Ki>  (10) 
IC=18nM

>  <PDBbind_Kd_Or_Ki_Or_Ic50>  (10) 
IC50

>  <PDBbind_Relation>  (10) 
=

>  <PDBbind_Value>  (10) 
18.0

>  <PDBbind_Unit>  (10) 
nM

>  <PDBbind_Standard_Value>  (10) 
18.0

>  <PDBbind_Standard_Unit>  (10) 
nM

>  <PDB_Chain>  (10) 
['A']

>  <Num_Ligs>  (10) 
[1.0]

>  <Orthosteric>  (10) 
[1.0]

>  <Allosteric>  (10) 
[0.0]

>  <Pockets_Assigned>  (10) 
['A']

>  <Multisite>  (10) 
[False]

>  <Same_Number>  (10) 
True

>  <Same_Binding_Site>  (10) 
True

>  <Same_Orientation>  (10) 
True

>  <Lig_Order_in_.pdb>  (10) 
Orthosteric

$$$$

     RDKit          2D

 29 33  0  0  0  0  0  0  0  0999 V2000
    7.2317   -6.0469    0.0000 C   0  0  0  0  0  0  0  0  0  0  0  0
    8.6583   -6.5105    0.0000 C   0  0  0  0  0  0  0  0  0  0  0  0
    8.9702   -7.9777    0.0000 C   0  0  0  0  0  0  0  0  0  0  0  0
    7.8555   -8.9814    0.0000 N   0  0  0  0  0  0  0  0  0  0  0  0
    6.4289   -8.5179    0.0000 C   0  0  0  0  0  0  0  0  0  0  0  0
    6.1170   -7.0506    0.0000 C   0  0  0  0  0  0  0  0  0  0  0  0
    4.6904   -6.5871    0.0000 O   0  0  0  0  0  0  0  0  0  0  0  0
    4.3786   -5.1199    0.0000 C   0  0  0  0  0  0  0  0  0  0  0  0
    2.9520   -4.6564    0.0000 C   0  0  0  0  0  0  0  0  0  0  0  0
    2.6401   -3.1891    0.0000 C   0  0  0  0  0  0  0  0  0  0  0  0
    1.2135   -2.7256    0.0000 C   0  0  0  0  0  0  0  0  0  0  0  0
    0.7500   -1.2990    0.0000 C   0  0  0  0  0  0  0  0  0  0  0  0
    1.5000    0.0000    0.0000 C   0  0  0  0  0  0  0  0  0  0  0  0
    0.7500    1.2990    0.0000 C   0  0  0  0  0  0  0  0  0  0  0  0
   -0.7500    1.2990    0.0000 C   0  0  0  0  0  0  0  0  0  0  0  0
   -1.5000    0.0000    0.0000 C   0  0  0  0  0  0  0  0  0  0  0  0
   -0.7500   -1.2990    0.0000 C   0  0  0  0  0  0  0  0  0  0  0  0
   -1.2135   -2.7256    0.0000 N   0  0  0  0  0  0  0  0  0  0  0  0
    0.0000   -3.6073    0.0000 C   0  0  0  0  0  0  0  0  0  0  0  0
    1.8373   -5.6601    0.0000 N   0  0  0  0  0  0  0  0  0  0  0  0
    9.7730   -5.5068    0.0000 C   0  0  0  0  0  0  0  0  0  0  0  0
    9.4612   -4.0396    0.0000 N   0  0  0  0  0  0  0  0  0  0  0  0
   10.5759   -3.0359    0.0000 C   0  0  0  0  0  0  0  0  0  0  0  0
   12.0025   -3.4994    0.0000 C   0  0  0  0  0  0  0  0  0  0  0  0
   13.3015   -2.7494    0.0000 N   0  0  0  0  0  0  0  0  0  0  0  0
   14.4162   -3.7531    0.0000 N   0  0  0  0  0  0  0  0  0  0  0  0
   13.8061   -5.1234    0.0000 C   0  0  0  0  0  0  0  0  0  0  0  0
   12.3143   -4.9666    0.0000 C   0  0  0  0  0  0  0  0  0  0  0  0
   11.1996   -5.9703    0.0000 C   0  0  0  0  0  0  0  0  0  0  0  0
  1  2  2  0
  2  3  1  0
  3  4  2  0
  4  5  1  0
  5  6  2  0
  6  7  1  0
  7  8  1  0
  8  9  1  0
  9 10  1  0
 10 11  1  0
 11 12  2  0
 12 13  1  0
 13 14  2  0
 14 15  1  0
 15 16  1  0
 16 17  2  0
 17 18  1  0
 18 19  2  0
  9 20  1  1
  2 21  1  0
 21 22  2  0
 22 23  1  0
 23 24  1  0
 24 25  2  0
 25 26  1  0
 26 27  2  0
 27 28  1  0
 28 29  2  0
  6  1  1  0
 19 11  1  0
 17 12  1  0
 29 21  1  0
 28 24  1  0
M  END
>  <Structure>  (11) 
2OJF

>  <Dataset>  (11) 
PDB

>  <Chain>  (11) 
E

>  <Spatial_Label>  (11) 
DFGin

>  <Dihedral_Label>  (11) 
BLAminus

>  <C_Helix_Label>  (11) 
Chelix-in

>  <Lig_ID>  (11) 
4PY

>  <Lig_Entity_ID>  (11) 
2OJF_3

>  <Lig_Name>  (11) 
(2S)-1-(6H-INDOL-3-YL)-3-{[5-(7H-PYRAZOLO[3,4-C]PYRIDIN-5-YL)PYRIDIN-3-YL]OXY}PROPAN-2-AMINE

>  <Lig_Formula>  (11) 
C22H20N6O

>  <Lig_SMILES>  (11) 
c1c(cncc1OC[C@H](CC2=C3C=CCC=C3N=C2)N)C4=NCC5=NN=CC5=C4

>  <Lig_MW>  (11) 
384.434

>  <Lig_ChEMBL_ID>  (11) 
nan

>  <Lig_DrugBank_ID>  (11) 
['DB07124']

>  <Occurence>  (11) 
1.0

>  <Lig_SMILES_Uncharged>  (11) 
N[C@H](COc1cncc(C2=NCC3=NN=CC3=C2)c1)CC1=C2C=CCC=C2N=C1

>  <Lig_Conformer>  (11) 
['NaN']

>  <Lig_Of_Interest>  (11) 
['Y']

>  <Lig_Completeness>  (11) 
[1.0]

>  <Lig_Occupancy>  (11) 
[1.0]

>  <Lig_RSCC>  (11) 
['NaN']

>  <Lig_RSR>  (11) 
['NaN']

>  <Lig_RMSZ_Bonds>  (11) 
[3.08]

>  <Lig_RMSZ_Angles>  (11) 
[1.8]

>  <Lig_Alt_Conf>  (11) 
0.0

>  <Title>  (11) 
Crystal structure of Protein Kinase A in complex with Pyridine-Pyrazolopyridine based inhibitors

>  <Nonpolymer_Entity_Count>  (11) 
1.0

>  <Protein_Entity_Count>  (11) 
2.0

>  <Exp_Method>  (11) 
X-Ray Diffraction

>  <Cryst_Method>  (11) 
Vapor Diffusion, Hanging Drop; Vapor Diffusion, Hanging Drop

>  <Deposit_Date>  (11) 
2007-01-12

>  <Resolution>  (11) 
2.1

>  <DOI>  (11) 
https://doi.org/10.1016/j.bmc.2007.01.010

>  <Source_Organism>  (11) 
Bos taurus

>  <R_Free>  (11) 
0.29

>  <Keywords>  (11) 
Transferase

>  <REMARK_280>  (11) 
 Crystal Solvent Content, Vs (%): 52.16 Matthews Coefficient, Vm (Angstroms**3/Da): 2.57 Crystallization Conditions: Vapor Diffusion, Hanging Drop 

>  <REMARK_610>  (11) 
nan

>  <pH>  (11) 
nan

>  <Cryst_Technique>  (11) 
soaked

>  <Sequence>  (11) 
MGNAAAAKKGSEQESVKEFLAKAKEDFLKKWENPAQNTAHLDQFERIKTLGTGSFGRVMLVKHMETGNHYAMKILDKQKVVKLKQIEHTLNEKRILQAVNFPFLVKLEFSFKDNSNLYMVMEYVPGGEMFSHLRRIGRFSEPHARFYAAQIVLTFEYLHSLDLIYRDLKPENLLIDQQGYIQVTDFGFAKRVKGRTWTLCGTPEYLAPEIILSKGYNKAVDWWALGVLIYEMAAGYPPFFADQPIQIYEKIVSGKVRFPSHFSSDLKDLLRNLLQVDLTKRFGNLKNGVNDIKNHKWFATTDWIAIYQRKVEAPFIPKFKGPGDTSNFDDYEEEEIRVSINEKCGKEFSEF

>  <Sequence_Length>  (11) 
351.0

>  <Mutation_Count>  (11) 
0.0

>  <Gene_Name>  (11) 
PKACA

>  <MW>  (11) 
40.678

>  <Name>  (11) 
cAMP-Dependent Protein Kinase, Alpha-Catalytic Subunit

>  <Mutations>  (11) 
nan

>  <EC_Number>  (11) 
2.7.11.11

>  <Peptidic_Inhibitor>  (11) 
True

>  <Lig_Missing_Atoms>  (11) 
['No']

>  <PDBbind_Resolution>  (11) 
2.1

>  <PDBbind_Release_Year>  (11) 
2007.0

>  <PDBbind_Comment>  (11) 
nan

>  <PDBbind_Uniprot_Id>  (11) 
P00517

>  <PDBbind_Protein_Name>  (11) 
CAMP-DEPENDENT PROTEIN KINASE, ALPHA-CATALYTIC

>  <PDBbind_-Logkd/Ki>  (11) 
6.96

>  <PDBbind_Kd/Ki>  (11) 
IC=110nM

>  <PDBbind_Kd_Or_Ki_Or_Ic50>  (11) 
IC50

>  <PDBbind_Relation>  (11) 
=

>  <PDBbind_Value>  (11) 
110.0

>  <PDBbind_Unit>  (11) 
nM

>  <PDBbind_Standard_Value>  (11) 
110.0

>  <PDBbind_Standard_Unit>  (11) 
nM

>  <PDB_Chain>  (11) 
['E']

>  <Num_Ligs>  (11) 
[1.0]

>  <Orthosteric>  (11) 
[1.0]

>  <Allosteric>  (11) 
[0.0]

>  <Pockets_Assigned>  (11) 
['A']

>  <Multisite>  (11) 
[False]

>  <Same_Number>  (11) 
True

>  <Same_Binding_Site>  (11) 
True

>  <Same_Orientation>  (11) 
True

>  <Lig_Order_in_.pdb>  (11) 
Orthosteric

$$$$

     RDKit          2D

 27 29  0  0  0  0  0  0  0  0999 V2000
    1.5000    0.0000    0.0000 C   0  0  0  0  0  0  0  0  0  0  0  0
    0.7500   -1.2990    0.0000 N   0  0  0  0  0  0  0  0  0  0  0  0
   -0.7500   -1.2990    0.0000 C   0  0  0  0  0  0  0  0  0  0  0  0
   -1.5000    0.0000    0.0000 C   0  0  0  0  0  0  0  0  0  0  0  0
   -0.7500    1.2990    0.0000 C   0  0  0  0  0  0  0  0  0  0  0  0
    0.7500    1.2990    0.0000 N   0  0  0  0  0  0  0  0  0  0  0  0
   -1.7537    2.4138    0.0000 N   0  0  0  0  0  0  0  0  0  0  0  0
   -3.1240    1.8037    0.0000 C   0  0  0  0  0  0  0  0  0  0  0  0
   -2.9672    0.3119    0.0000 N   0  0  0  0  0  0  0  0  0  0  0  0
   -1.4418    3.8810    0.0000 C   0  0  0  0  0  0  0  0  0  0  0  0
   -2.4455    4.9957    0.0000 C   0  0  0  0  0  0  0  0  0  0  0  0
   -1.6955    6.2947    0.0000 C   0  0  0  0  0  0  0  0  0  0  0  0
   -0.2283    5.9829    0.0000 C   0  0  0  0  0  0  0  0  0  0  0  0
   -0.0715    4.4911    0.0000 O   0  0  0  0  0  0  0  0  0  0  0  0
    0.8864    6.9866    0.0000 C   0  0  0  0  0  0  0  0  0  0  0  0
    2.3130    6.5230    0.0000 O   0  0  0  0  0  0  0  0  0  0  0  0
    3.4277    7.5267    0.0000 P   0  0  0  0  0  5  0  0  0  0  0  0
    2.4240    8.6414    0.0000 O   0  0  0  0  0  0  0  0  0  0  0  0
    4.4314    6.4120    0.0000 O   0  0  0  0  0  0  0  0  0  0  0  0
    4.5424    8.5304    0.0000 O   0  0  0  0  0  0  0  0  0  0  0  0
    4.2306    9.9976    0.0000 P   0  0  0  0  0  0  0  0  0  0  0  0
    5.6978   10.3095    0.0000 O   0  0  0  0  0  0  0  0  0  0  0  0
    2.7633    9.6858    0.0000 O   0  0  0  0  0  0  0  0  0  0  0  0
    3.9187   11.4649    0.0000 O   0  0  0  0  0  0  0  0  0  0  0  0
   -2.3056    7.6651    0.0000 O   0  0  0  0  0  0  0  0  0  0  0  0
   -3.9373    4.8389    0.0000 O   0  0  0  0  0  0  0  0  0  0  0  0
   -1.5000   -2.5981    0.0000 N   0  0  0  0  0  0  0  0  0  0  0  0
  1  2  2  0
  2  3  1  0
  3  4  2  0
  4  5  1  0
  5  6  2  0
  5  7  1  0
  7  8  1  0
  8  9  2  0
 10  7  1  1
 10 11  1  0
 11 12  1  0
 12 13  1  0
 13 14  1  0
 13 15  1  1
 15 16  1  0
 16 17  1  0
 17 18  2  0
 17 19  1  6
 17 20  1  0
 20 21  1  0
 21 22  2  0
 21 23  1  0
 21 24  1  0
 12 25  1  6
 11 26  1  6
  3 27  1  0
  6  1  1  0
  9  4  1  0
 14 10  1  0
M  END
>  <Structure>  (12) 
2QUR

>  <Dataset>  (12) 
PDB

>  <Chain>  (12) 
A

>  <Spatial_Label>  (12) 
DFGin

>  <Dihedral_Label>  (12) 
BLAminus

>  <C_Helix_Label>  (12) 
Chelix-in

>  <Lig_ID>  (12) 
ADP

>  <Lig_Entity_ID>  (12) 
2QUR_3

>  <Lig_Name>  (12) 
ADENOSINE-5'-DIPHOSPHATE

>  <Lig_Formula>  (12) 
C10H15N5O10P2

>  <Lig_SMILES>  (12) 
c1nc(c2c(n1)n(cn2)[C@H]3[C@@H]([C@@H]([C@H](O3)CO[P@](=O)(O)OP(=O)(O)O)O)O)N

>  <Lig_MW>  (12) 
427.201

>  <Lig_ChEMBL_ID>  (12) 
['CHEMBL14830']

>  <Lig_DrugBank_ID>  (12) 
['DB16833']

>  <Occurence>  (12) 
19.0

>  <Lig_SMILES_Uncharged>  (12) 
Nc1ncnc2c1ncn2[C@@H]1O[C@H](CO[P@](=O)(O)OP(=O)(O)O)[C@@H](O)[C@H]1O

>  <Lig_Conformer>  (12) 
['NaN']

>  <Lig_Of_Interest>  (12) 
['Y']

>  <Lig_Completeness>  (12) 
[1.0]

>  <Lig_Occupancy>  (12) 
[1.0]

>  <Lig_RSCC>  (12) 
[0.886]

>  <Lig_RSR>  (12) 
[0.167]

>  <Lig_RMSZ_Bonds>  (12) 
[0.76]

>  <Lig_RMSZ_Angles>  (12) 
[1.2]

>  <Lig_Alt_Conf>  (12) 
0.0

>  <Title>  (12) 
Crystal Structure of F327A/K285P Mutant of cAMP-dependent Protein Kinase

>  <Nonpolymer_Entity_Count>  (12) 
1.0

>  <Protein_Entity_Count>  (12) 
2.0

>  <Exp_Method>  (12) 
X-Ray Diffraction

>  <Cryst_Method>  (12) 
Vapor Diffusion, Hanging Drop; 8-12% Mpd, 100 Mm Tris-Hcl, Plus 10 Mm Dtt, pH 7.5, Vapor Diffusion, Hanging Drop, Temperature 277K

>  <Deposit_Date>  (12) 
2007-08-06

>  <Resolution>  (12) 
2.5

>  <DOI>  (12) 
https://doi.org/10.1074/jbc.M805862200

>  <Source_Organism>  (12) 
Mus musculus

>  <R_Free>  (12) 
0.265

>  <Keywords>  (12) 
Signaling Protein, Transferase

>  <REMARK_280>  (12) 
 Crystal Solvent Content, Vs (%): 53.70 Matthews Coefficient, Vm (Angstroms**3/Da): 2.66 Crystallization Conditions: 8-12% Mpd, 100 Mm Tris-Hcl, Plus 10 Mm Dtt, pH 7.5, Vapor Diffusion, Hanging Drop, Temperature 277K 

>  <REMARK_610>  (12) 
nan

>  <pH>  (12) 
7.5

>  <Cryst_Technique>  (12) 
co-crystallized

>  <Sequence>  (12) 
GNAAAAKKGSEQESVKEFLAKAKEDFLKKWETPSQNTAQLDQFDRIKTLGTGSFGRVMLVKHKESGNHYAMKILDKQKVVKLKQIEHTLNEKRILQAVNFPFLVKLEFSFKDNSNLYMVMEYVAGGEMFSHLRRIGRFSEPHARFYAAQIVLTFEYLHSLDLIYRDLKPENLLIDQQGYIQVTDFGFAKRVKGRTWTLCGTPEYLAPEIILSKGYNKAVDWWALGVLIYEMAAGYPPFFADQPIQIYEKIVSGKVRFPSHFSSDLKDLLRNLLQVDLTKRFGNLPNGVNDIKNHKWFATTDWIAIYQRKVEAPFIPKFKGPGDTSNADDYEEEEIRVSINEKCGKEFTEF

>  <Sequence_Length>  (12) 
350.0

>  <Mutation_Count>  (12) 
4.0

>  <Gene_Name>  (12) 
PKACA

>  <MW>  (12) 
40.549

>  <Name>  (12) 
cAMP-Dependent Protein Kinase, Alpha-Catalytic Subunit

>  <Mutations>  (12) 
K285P/F327A

>  <EC_Number>  (12) 
2.7.11.11

>  <Peptidic_Inhibitor>  (12) 
True

>  <Lig_Missing_Atoms>  (12) 
['No']

>  <PDBbind_Resolution>  (12) 
nan

>  <PDBbind_Release_Year>  (12) 
nan

>  <PDBbind_Comment>  (12) 
nan

>  <PDBbind_Uniprot_Id>  (12) 
nan

>  <PDBbind_Protein_Name>  (12) 
nan

>  <PDBbind_-Logkd/Ki>  (12) 
nan

>  <PDBbind_Kd/Ki>  (12) 
nan

>  <PDBbind_Kd_Or_Ki_Or_Ic50>  (12) 
nan

>  <PDBbind_Relation>  (12) 
nan

>  <PDBbind_Value>  (12) 
nan

>  <PDBbind_Unit>  (12) 
nan

>  <PDBbind_Standard_Value>  (12) 
nan

>  <PDBbind_Standard_Unit>  (12) 
nan

>  <PDB_Chain>  (12) 
['A']

>  <Num_Ligs>  (12) 
[1.0]

>  <Orthosteric>  (12) 
[1.0]

>  <Allosteric>  (12) 
[0.0]

>  <Pockets_Assigned>  (12) 
['A']

>  <Multisite>  (12) 
[False]

>  <Same_Number>  (12) 
True

>  <Same_Binding_Site>  (12) 
True

>  <Same_Orientation>  (12) 
True

>  <Lig_Order_in_.pdb>  (12) 
Orthosteric

$$$$

     RDKit          2D

 12 13  0  0  0  0  0  0  0  0999 V2000
    3.9955   -1.6402    0.0000 C   0  0  0  0  0  0  0  0  0  0  0  0
    2.9918   -2.7549    0.0000 C   0  0  0  0  0  0  0  0  0  0  0  0
    1.5000   -2.5981    0.0000 C   0  0  0  0  0  0  0  0  0  0  0  0
    0.8899   -3.9684    0.0000 C   0  0  0  0  0  0  0  0  0  0  0  0
    2.0046   -4.9721    0.0000 N   0  0  0  0  0  0  0  0  0  0  0  0
    3.3037   -4.2221    0.0000 N   0  0  0  0  0  0  0  0  0  0  0  0
    0.7500   -1.2990    0.0000 C   0  0  0  0  0  0  0  0  0  0  0  0
    1.5000    0.0000    0.0000 C   0  0  0  0  0  0  0  0  0  0  0  0
    0.7500    1.2990    0.0000 C   0  0  0  0  0  0  0  0  0  0  0  0
   -0.7500    1.2990    0.0000 C   0  0  0  0  0  0  0  0  0  0  0  0
   -1.5000    0.0000    0.0000 C   0  0  0  0  0  0  0  0  0  0  0  0
   -0.7500   -1.2990    0.0000 C   0  0  0  0  0  0  0  0  0  0  0  0
  1  2  1  0
  2  3  1  0
  3  4  2  0
  4  5  1  0
  5  6  1  0
  3  7  1  0
  7  8  2  0
  8  9  1  0
  9 10  2  0
 10 11  1  0
 11 12  2  0
  6  2  2  0
 12  7  1  0
M  END
>  <Structure>  (13) 
2UW3

>  <Dataset>  (13) 
PDB

>  <Chain>  (13) 
A

>  <Spatial_Label>  (13) 
DFGin

>  <Dihedral_Label>  (13) 
BLAminus

>  <C_Helix_Label>  (13) 
Chelix-in

>  <Lig_ID>  (13) 
GVG

>  <Lig_Entity_ID>  (13) 
2UW3_3

>  <Lig_Name>  (13) 
3-METHYL-4-PHENYL-1H-PYRAZOLE

>  <Lig_Formula>  (13) 
C10H10N2

>  <Lig_SMILES>  (13) 
Cc1c(c[nH]n1)c2ccccc2

>  <Lig_MW>  (13) 
158.2

>  <Lig_ChEMBL_ID>  (13) 
['CHEMBL228114']

>  <Lig_DrugBank_ID>  (13) 
nan

>  <Occurence>  (13) 
1.0

>  <Lig_SMILES_Uncharged>  (13) 
Cc1n[nH]cc1-c1ccccc1

>  <Lig_Conformer>  (13) 
['NaN']

>  <Lig_Of_Interest>  (13) 
['Y']

>  <Lig_Completeness>  (13) 
[1.0]

>  <Lig_Occupancy>  (13) 
[1.0]

>  <Lig_RSCC>  (13) 
[0.963]

>  <Lig_RSR>  (13) 
[0.094]

>  <Lig_RMSZ_Bonds>  (13) 
[0.85]

>  <Lig_RMSZ_Angles>  (13) 
[2.58]

>  <Lig_Alt_Conf>  (13) 
0.0

>  <Title>  (13) 
Structure of PKA-PKB chimera complexed with 5-methyl-4-phenyl-1H- pyrazole

>  <Nonpolymer_Entity_Count>  (13) 
1.0

>  <Protein_Entity_Count>  (13) 
2.0

>  <Exp_Method>  (13) 
X-Ray Diffraction

>  <Cryst_Method>  (13) 
NaN; NaN

>  <Deposit_Date>  (13) 
2007-03-19

>  <Resolution>  (13) 
2.19

>  <DOI>  (13) 
https://doi.org/10.1021/JM070091B

>  <Source_Organism>  (13) 
Bos taurus

>  <R_Free>  (13) 
0.252

>  <Keywords>  (13) 
Transferase/Inhibitor

>  <REMARK_280>  (13) 
 Crystal Solvent Content, Vs (%): 48.60 Matthews Coefficient, Vm (Angstroms**3/Da): 2.41 Crystallization Conditions: Null 

>  <REMARK_610>  (13) 
nan

>  <pH>  (13) 
nan

>  <Cryst_Technique>  (13) 
soaked

>  <Sequence>  (13) 
MGNAAAAKKGSEQESVKEFLAKAKEDFLKKWENPAQNTAHLDQFERIKTLGTGSFGRVMLVKHMETGNHYAMKILDKQKVVKLKQIEHTLNEKRILQAVNFPFLTKLEFSFKDNSNLYMVMEYAPGGEMFSHLRRIGRFSEPHARFYAAQIVLTFEYLHSLDLIYRDLKPENLMIDQQGYIKVTDFGFAKRVKGRTWTLCGTPEYLAPEIILSKGYNKAVDWWALGVLIYEMAAGYPPFFADQPIQIYEKIVSGKVRFPSHFSSDLKDLLRNLLQVDLTKRFGNLKNGVNDIKNHKWFATTDWIAIYQRKVEAPFIPKFKGPGDTSNFDDYEEEEIRVSINEKCGKEFSEF

>  <Sequence_Length>  (13) 
351.0

>  <Mutation_Count>  (13) 
4.0

>  <Gene_Name>  (13) 
nan

>  <MW>  (13) 
40.911

>  <Name>  (13) 
cAMP-Dependent Protein Kinase, Alpha-Catalytic Subunit

>  <Mutations>  (13) 
YES

>  <EC_Number>  (13) 
2.7.11.11

>  <Peptidic_Inhibitor>  (13) 
True

>  <Lig_Missing_Atoms>  (13) 
['No']

>  <PDBbind_Resolution>  (13) 
2.19

>  <PDBbind_Release_Year>  (13) 
2007.0

>  <PDBbind_Comment>  (13) 
complex PKA-PKB-1, IC50=80+/-38uM

>  <PDBbind_Uniprot_Id>  (13) 
P00517

>  <PDBbind_Protein_Name>  (13) 
CAMP-DEPENDENT PROTEIN KINASE, ALPHA-CATALYTIC

>  <PDBbind_-Logkd/Ki>  (13) 
4.1

>  <PDBbind_Kd/Ki>  (13) 
IC=80uM

>  <PDBbind_Kd_Or_Ki_Or_Ic50>  (13) 
IC50

>  <PDBbind_Relation>  (13) 
=

>  <PDBbind_Value>  (13) 
80.0

>  <PDBbind_Unit>  (13) 
uM

>  <PDBbind_Standard_Value>  (13) 
80000.0

>  <PDBbind_Standard_Unit>  (13) 
nM

>  <PDB_Chain>  (13) 
['A']

>  <Num_Ligs>  (13) 
[1.0]

>  <Orthosteric>  (13) 
[1.0]

>  <Allosteric>  (13) 
[0.0]

>  <Pockets_Assigned>  (13) 
['A']

>  <Multisite>  (13) 
[False]

>  <Same_Number>  (13) 
True

>  <Same_Binding_Site>  (13) 
True

>  <Same_Orientation>  (13) 
True

>  <Lig_Order_in_.pdb>  (13) 
Orthosteric

$$$$

     RDKit          2D

 15 16  0  0  0  0  0  0  0  0999 V2000
    3.9955   -1.6402    0.0000 C   0  0  0  0  0  0  0  0  0  0  0  0
    2.9918   -2.7549    0.0000 C   0  0  0  0  0  0  0  0  0  0  0  0
    1.5000   -2.5981    0.0000 C   0  0  0  0  0  0  0  0  0  0  0  0
    0.8899   -3.9684    0.0000 C   0  0  0  0  0  0  0  0  0  0  0  0
    2.0046   -4.9721    0.0000 N   0  0  0  0  0  0  0  0  0  0  0  0
    3.3037   -4.2221    0.0000 N   0  0  0  0  0  0  0  0  0  0  0  0
    0.7500   -1.2990    0.0000 C   0  0  0  0  0  0  0  0  0  0  0  0
    1.5000    0.0000    0.0000 C   0  0  0  0  0  0  0  0  0  0  0  0
    0.7500    1.2990    0.0000 C   0  0  0  0  0  0  0  0  0  0  0  0
   -0.7500    1.2990    0.0000 C   0  0  0  0  0  0  0  0  0  0  0  0
   -1.5000    0.0000    0.0000 C   0  0  0  0  0  0  0  0  0  0  0  0
   -0.7500   -1.2990    0.0000 C   0  0  0  0  0  0  0  0  0  0  0  0
   -1.5000    2.5981    0.0000 C   0  0  0  0  0  0  0  0  0  0  0  0
   -0.7500    3.8971    0.0000 C   0  0  0  0  0  0  0  0  0  0  0  0
   -1.5000    5.1962    0.0000 N   0  0  0  0  0  0  0  0  0  0  0  0
  1  2  1  0
  2  3  1  0
  3  4  2  0
  4  5  1  0
  5  6  1  0
  3  7  1  0
  7  8  2  0
  8  9  1  0
  9 10  2  0
 10 11  1  0
 11 12  2  0
 10 13  1  0
 13 14  1  0
 14 15  1  0
  6  2  2  0
 12  7  1  0
M  END
>  <Structure>  (14) 
2UW4

>  <Dataset>  (14) 
PDB

>  <Chain>  (14) 
A

>  <Spatial_Label>  (14) 
DFGin

>  <Dihedral_Label>  (14) 
BLAminus

>  <C_Helix_Label>  (14) 
Chelix-in

>  <Lig_ID>  (14) 
L15

>  <Lig_Entity_ID>  (14) 
2UW4_3

>  <Lig_Name>  (14) 
2-[4-(3-METHYL-1H-PYRAZOL-4-YL)PHENYL]ETHANAMINE

>  <Lig_Formula>  (14) 
C12H15N3

>  <Lig_SMILES>  (14) 
Cc1c(c[nH]n1)c2ccc(cc2)CCN

>  <Lig_MW>  (14) 
201.268

>  <Lig_ChEMBL_ID>  (14) 
['CHEMBL228224']

>  <Lig_DrugBank_ID>  (14) 
['DB08070']

>  <Occurence>  (14) 
1.0

>  <Lig_SMILES_Uncharged>  (14) 
Cc1n[nH]cc1-c1ccc(CCN)cc1

>  <Lig_Conformer>  (14) 
['NaN']

>  <Lig_Of_Interest>  (14) 
['Y']

>  <Lig_Completeness>  (14) 
[1.0]

>  <Lig_Occupancy>  (14) 
[1.0]

>  <Lig_RSCC>  (14) 
[0.913]

>  <Lig_RSR>  (14) 
[0.142]

>  <Lig_RMSZ_Bonds>  (14) 
[0.99]

>  <Lig_RMSZ_Angles>  (14) 
[2.34]

>  <Lig_Alt_Conf>  (14) 
0.0

>  <Title>  (14) 
Structure of PKA-PKB chimera complexed with 2-(4-(5-methyl-1H-pyrazol- 4-yl)-phenyl)-ethylamine

>  <Nonpolymer_Entity_Count>  (14) 
1.0

>  <Protein_Entity_Count>  (14) 
2.0

>  <Exp_Method>  (14) 
X-Ray Diffraction

>  <Cryst_Method>  (14) 
NaN; NaN

>  <Deposit_Date>  (14) 
2007-03-19

>  <Resolution>  (14) 
2.0

>  <DOI>  (14) 
https://doi.org/10.1021/JM070091B

>  <Source_Organism>  (14) 
Bos taurus

>  <R_Free>  (14) 
0.274

>  <Keywords>  (14) 
Transferase

>  <REMARK_280>  (14) 
 Crystal Solvent Content, Vs (%): 46.50 Matthews Coefficient, Vm (Angstroms**3/Da):2.32 Crystallization Conditions: Null 

>  <REMARK_610>  (14) 
nan

>  <pH>  (14) 
nan

>  <Cryst_Technique>  (14) 
soaked

>  <Sequence>  (14) 
MGNAAAAKKGSEQESVKEFLAKAKEDFLKKWENPAQNTAHLDQFERIKTLGTGSFGRVMLVKHMETGNHYAMKILDKQKVVKLKQIEHTLNEKRILQAVNFPFLTKLEFSFKDNSNLYMVMEYAPGGEMFSHLRRIGRFSEPHARFYAAQIVLTFEYLHSLDLIYRDLKPENLMIDQQGYIKVTDFGFAKRVKGRTWTLCGTPEYLAPEIILSKGYNKAVDWWALGVLIYEMAAGYPPFFADQPIQIYEKIVSGKVRFPSHFSSDLKDLLRNLLQVDLTKRFGNLKNGVNDIKNHKWFATTDWIAIYQRKVEAPFIPKFKGPGDTSNFDDYEEEEIRVSINEKCGKEFSEF

>  <Sequence_Length>  (14) 
351.0

>  <Mutation_Count>  (14) 
4.0

>  <Gene_Name>  (14) 
nan

>  <MW>  (14) 
40.831

>  <Name>  (14) 
cAMP-Dependent Protein Kinase, Alpha-Catalytic Subunit

>  <Mutations>  (14) 
YES

>  <EC_Number>  (14) 
2.7.11.11

>  <Peptidic_Inhibitor>  (14) 
True

>  <Lig_Missing_Atoms>  (14) 
['No']

>  <PDBbind_Resolution>  (14) 
2.0

>  <PDBbind_Release_Year>  (14) 
2007.0

>  <PDBbind_Comment>  (14) 
complex PKA-PKB-3, IC50=5.2+/-3.3uM

>  <PDBbind_Uniprot_Id>  (14) 
P00517

>  <PDBbind_Protein_Name>  (14) 
CAMP-DEPENDENT PROTEIN KINASE, ALPHA-CATALYTIC

>  <PDBbind_-Logkd/Ki>  (14) 
5.28

>  <PDBbind_Kd/Ki>  (14) 
IC=5.2uM

>  <PDBbind_Kd_Or_Ki_Or_Ic50>  (14) 
IC50

>  <PDBbind_Relation>  (14) 
=

>  <PDBbind_Value>  (14) 
5.2

>  <PDBbind_Unit>  (14) 
uM

>  <PDBbind_Standard_Value>  (14) 
5200.0

>  <PDBbind_Standard_Unit>  (14) 
nM

>  <PDB_Chain>  (14) 
['A']

>  <Num_Ligs>  (14) 
[1.0]

>  <Orthosteric>  (14) 
[1.0]

>  <Allosteric>  (14) 
[0.0]

>  <Pockets_Assigned>  (14) 
['A']

>  <Multisite>  (14) 
[False]

>  <Same_Number>  (14) 
True

>  <Same_Binding_Site>  (14) 
True

>  <Same_Orientation>  (14) 
True

>  <Lig_Order_in_.pdb>  (14) 
Orthosteric

$$$$

     RDKit          2D

 21 23  0  0  0  0  0  0  0  0999 V2000
    1.5000    0.0000    0.0000 C   0  0  0  0  0  0  0  0  0  0  0  0
    0.7500   -1.2990    0.0000 C   0  0  0  0  0  0  0  0  0  0  0  0
   -0.7500   -1.2990    0.0000 C   0  0  0  0  0  0  0  0  0  0  0  0
   -1.5000    0.0000    0.0000 C   0  0  0  0  0  0  0  0  0  0  0  0
   -0.7500    1.2990    0.0000 C   0  0  0  0  0  0  0  0  0  0  0  0
    0.7500    1.2990    0.0000 C   0  0  0  0  0  0  0  0  0  0  0  0
    1.5000    2.5981    0.0000 C   0  0  0  0  0  0  0  0  0  0  0  0
    0.8899    3.9684    0.0000 C   0  0  0  0  0  0  0  0  0  0  0  0
    2.0046    4.9721    0.0000 N   0  0  0  0  0  0  0  0  0  0  0  0
    3.3037    4.2221    0.0000 N   0  0  0  0  0  0  0  0  0  0  0  0
    2.9918    2.7549    0.0000 C   0  0  0  0  0  0  0  0  0  0  0  0
   -1.5000   -2.5981    0.0000 C   0  0  0  0  0  0  0  0  0  0  0  0
   -0.7500   -3.8971    0.0000 C   0  0  0  0  0  0  0  0  0  0  0  0
   -1.5000   -5.1962    0.0000 N   0  0  0  0  0  0  0  0  0  0  0  0
   -3.0000   -2.5981    0.0000 C   0  0  0  0  0  0  0  0  0  0  0  0
   -3.7500   -1.2990    0.0000 C   0  0  0  0  0  0  0  0  0  0  0  0
   -5.2500   -1.2990    0.0000 C   0  0  0  0  0  0  0  0  0  0  0  0
   -6.0000   -2.5981    0.0000 C   0  0  0  0  0  0  0  0  0  0  0  0
   -5.2500   -3.8971    0.0000 C   0  0  0  0  0  0  0  0  0  0  0  0
   -3.7500   -3.8971    0.0000 C   0  0  0  0  0  0  0  0  0  0  0  0
   -7.5000   -2.5981    0.0000 Cl  0  0  0  0  0  0  0  0  0  0  0  0
  1  2  2  0
  2  3  1  0
  3  4  2  0
  4  5  1  0
  5  6  2  0
  6  7  1  0
  7  8  2  0
  8  9  1  0
  9 10  1  0
 10 11  2  0
  3 12  1  0
 12 13  1  1
 13 14  1  0
 12 15  1  0
 15 16  2  0
 16 17  1  0
 17 18  2  0
 18 19  1  0
 19 20  2  0
 18 21  1  0
  6  1  1  0
 11  7  1  0
 20 15  1  0
M  END
>  <Structure>  (15) 
2UW5

>  <Dataset>  (15) 
PDB

>  <Chain>  (15) 
A

>  <Spatial_Label>  (15) 
DFGin

>  <Dihedral_Label>  (15) 
BLAminus

>  <C_Helix_Label>  (15) 
Chelix-in

>  <Lig_ID>  (15) 
GVN

>  <Lig_Entity_ID>  (15) 
2UW5_3

>  <Lig_Name>  (15) 
(2R)-2-(4-CHLOROPHENYL)-2-[4-(1H-PYRAZOL-4-YL)PHENYL]ETHANAMINE

>  <Lig_Formula>  (15) 
C17H16ClN3

>  <Lig_SMILES>  (15) 
c1cc(ccc1c2c[nH]nc2)[C@@H](CN)c3ccc(cc3)Cl

>  <Lig_MW>  (15) 
297.782

>  <Lig_ChEMBL_ID>  (15) 
['CHEMBL227924']

>  <Lig_DrugBank_ID>  (15) 
['DB07857']

>  <Occurence>  (15) 
1.0

>  <Lig_SMILES_Uncharged>  (15) 
NC[C@@H](c1ccc(Cl)cc1)c1ccc(-c2cn[nH]c2)cc1

>  <Lig_Conformer>  (15) 
['NaN']

>  <Lig_Of_Interest>  (15) 
['Y']

>  <Lig_Completeness>  (15) 
[1.0]

>  <Lig_Occupancy>  (15) 
[1.0]

>  <Lig_RSCC>  (15) 
[0.946]

>  <Lig_RSR>  (15) 
[0.161]

>  <Lig_RMSZ_Bonds>  (15) 
[1.18]

>  <Lig_RMSZ_Angles>  (15) 
[1.41]

>  <Lig_Alt_Conf>  (15) 
0.0

>  <Title>  (15) 
Structure of PKA-PKB chimera complexed with (R)-2-(4-chloro-phenyl)- 2-(4-1H-pyrazol-4-yl)-phenyl)-ethylamine

>  <Nonpolymer_Entity_Count>  (15) 
1.0

>  <Protein_Entity_Count>  (15) 
2.0

>  <Exp_Method>  (15) 
X-Ray Diffraction

>  <Cryst_Method>  (15) 
NaN; NaN

>  <Deposit_Date>  (15) 
2007-03-19

>  <Resolution>  (15) 
2.14

>  <DOI>  (15) 
https://doi.org/10.1021/JM070091B

>  <Source_Organism>  (15) 
Bos taurus

>  <R_Free>  (15) 
0.259

>  <Keywords>  (15) 
Transferase/Inhibitor

>  <REMARK_280>  (15) 
 Crystal Solvent Content, Vs (%): 47.66 Matthews Coefficient, Vm (Angstroms**3/Da): 2.37 Crystallization Conditions: Null 

>  <REMARK_610>  (15) 
nan

>  <pH>  (15) 
nan

>  <Cryst_Technique>  (15) 
soaked

>  <Sequence>  (15) 
MGNAAAAKKGSEQESVKEFLAKAKEDFLKKWENPAQNTAHLDQFERIKTLGTGSFGRVMLVKHMETGNHYAMKILDKQKVVKLKQIEHTLNEKRILQAVNFPFLTKLEFSFKDNSNLYMVMEYAPGGEMFSHLRRIGRFSEPHARFYAAQIVLTFEYLHSLDLIYRDLKPENLMIDQQGYIKVTDFGFAKRVKGRTWTLCGTPEYLAPEIILSKGYNKAVDWWALGVLIYEMAAGYPPFFADQPIQIYEKIVSGKVRFPSHFSSDLKDLLRNLLQVDLTKRFGNLKNGVNDIKNHKWFATTDWIAIYQRKVEAPFIPKFKGPGDTSNFDDYEEEEIRVSINEKCGKEFSEF

>  <Sequence_Length>  (15) 
351.0

>  <Mutation_Count>  (15) 
4.0

>  <Gene_Name>  (15) 
nan

>  <MW>  (15) 
40.911

>  <Name>  (15) 
cAMP-Dependent Protein Kinase, Alpha-Catalytic Subunit

>  <Mutations>  (15) 
YES

>  <EC_Number>  (15) 
2.7.11.11

>  <Peptidic_Inhibitor>  (15) 
True

>  <Lig_Missing_Atoms>  (15) 
['No']

>  <PDBbind_Resolution>  (15) 
2.14

>  <PDBbind_Release_Year>  (15) 
2007.0

>  <PDBbind_Comment>  (15) 
(R)-enantiomer IC50=34+/-11nM, (S)-enantiomer IC50=0.28+/-0.03uM

>  <PDBbind_Uniprot_Id>  (15) 
P00517

>  <PDBbind_Protein_Name>  (15) 
CAMP-DEPENDENT PROTEIN KINASE, ALPHA-CATALYTIC

>  <PDBbind_-Logkd/Ki>  (15) 
7.51

>  <PDBbind_Kd/Ki>  (15) 
IC=31nM

>  <PDBbind_Kd_Or_Ki_Or_Ic50>  (15) 
IC50

>  <PDBbind_Relation>  (15) 
=

>  <PDBbind_Value>  (15) 
31.0

>  <PDBbind_Unit>  (15) 
nM

>  <PDBbind_Standard_Value>  (15) 
31.0

>  <PDBbind_Standard_Unit>  (15) 
nM

>  <PDB_Chain>  (15) 
['A']

>  <Num_Ligs>  (15) 
[1.0]

>  <Orthosteric>  (15) 
[1.0]

>  <Allosteric>  (15) 
[0.0]

>  <Pockets_Assigned>  (15) 
['A']

>  <Multisite>  (15) 
[False]

>  <Same_Number>  (15) 
True

>  <Same_Binding_Site>  (15) 
True

>  <Same_Orientation>  (15) 
True

>  <Lig_Order_in_.pdb>  (15) 
Orthosteric

$$$$

     RDKit          2D

 16 17  0  0  0  0  0  0  0  0999 V2000
    1.5000    0.0000    0.0000 C   0  0  0  0  0  0  0  0  0  0  0  0
    0.7500   -1.2990    0.0000 C   0  0  0  0  0  0  0  0  0  0  0  0
   -0.7500   -1.2990    0.0000 C   0  0  0  0  0  0  0  0  0  0  0  0
   -1.5000    0.0000    0.0000 C   0  0  0  0  0  0  0  0  0  0  0  0
   -0.7500    1.2990    0.0000 C   0  0  0  0  0  0  0  0  0  0  0  0
    0.7500    1.2990    0.0000 C   0  0  0  0  0  0  0  0  0  0  0  0
   -3.0000    0.0000    0.0000 C   0  0  0  0  0  0  0  0  0  0  0  0
   -3.7500   -1.2990    0.0000 C   0  0  0  0  0  0  0  0  0  0  0  0
   -5.2500   -1.2990    0.0000 N   0  0  0  0  0  0  0  0  0  0  0  0
   -3.7500    1.2990    0.0000 C   0  0  0  0  0  0  0  0  0  0  0  0
   -3.0000    2.5981    0.0000 C   0  0  0  0  0  0  0  0  0  0  0  0
   -3.7500    3.8971    0.0000 C   0  0  0  0  0  0  0  0  0  0  0  0
   -5.2500    3.8971    0.0000 C   0  0  0  0  0  0  0  0  0  0  0  0
   -6.0000    2.5981    0.0000 C   0  0  0  0  0  0  0  0  0  0  0  0
   -5.2500    1.2990    0.0000 C   0  0  0  0  0  0  0  0  0  0  0  0
   -6.0000    5.1962    0.0000 Cl  0  0  0  0  0  0  0  0  0  0  0  0
  1  2  2  0
  2  3  1  0
  3  4  2  0
  4  5  1  0
  5  6  2  0
  4  7  1  0
  7  8  1  1
  8  9  1  0
  7 10  1  0
 10 11  2  0
 11 12  1  0
 12 13  2  0
 13 14  1  0
 14 15  2  0
 13 16  1  0
  6  1  1  0
 15 10  1  0
M  END
>  <Structure>  (16) 
2UW8

>  <Dataset>  (16) 
PDB

>  <Chain>  (16) 
A

>  <Spatial_Label>  (16) 
DFGin

>  <Dihedral_Label>  (16) 
BLAminus

>  <C_Helix_Label>  (16) 
Chelix-in

>  <Lig_ID>  (16) 
GVQ

>  <Lig_Entity_ID>  (16) 
2UW8_3

>  <Lig_Name>  (16) 
(2R)-2-(4-CHLOROPHENYL)-2-PHENYLETHANAMINE

>  <Lig_Formula>  (16) 
C14H14ClN

>  <Lig_SMILES>  (16) 
c1ccc(cc1)[C@@H](CN)c2ccc(cc2)Cl

>  <Lig_MW>  (16) 
231.721

>  <Lig_ChEMBL_ID>  (16) 
nan

>  <Lig_DrugBank_ID>  (16) 
['DB07860']

>  <Occurence>  (16) 
1.0

>  <Lig_SMILES_Uncharged>  (16) 
NC[C@H](c1ccccc1)c1ccc(Cl)cc1

>  <Lig_Conformer>  (16) 
['NaN']

>  <Lig_Of_Interest>  (16) 
['Y']

>  <Lig_Completeness>  (16) 
[1.0]

>  <Lig_Occupancy>  (16) 
[1.0]

>  <Lig_RSCC>  (16) 
[0.832]

>  <Lig_RSR>  (16) 
[0.203]

>  <Lig_RMSZ_Bonds>  (16) 
[1.06]

>  <Lig_RMSZ_Angles>  (16) 
[0.99]

>  <Lig_Alt_Conf>  (16) 
0.0

>  <Title>  (16) 
Structure of PKA-PKB chimera complexed with 2-(4-chloro-phenyl)-2- phenyl-ethylamine

>  <Nonpolymer_Entity_Count>  (16) 
1.0

>  <Protein_Entity_Count>  (16) 
2.0

>  <Exp_Method>  (16) 
X-Ray Diffraction

>  <Cryst_Method>  (16) 
NaN; NaN

>  <Deposit_Date>  (16) 
2007-03-19

>  <Resolution>  (16) 
2.0

>  <DOI>  (16) 
https://doi.org/10.1021/JM070091B

>  <Source_Organism>  (16) 
Bos taurus

>  <R_Free>  (16) 
0.233

>  <Keywords>  (16) 
Transferase/Inhibitor

>  <REMARK_280>  (16) 
 Crystal Solvent Content, Vs (%): 46.01 Matthews Coefficient, Vm (Angstroms**3/Da): 2.30 Crystallization Conditions: Null 

>  <REMARK_610>  (16) 
nan

>  <pH>  (16) 
nan

>  <Cryst_Technique>  (16) 
soaked

>  <Sequence>  (16) 
MGNAAAAKKGSEQESVKEFLAKAKEDFLKKWENPAQNTAHLDQFERIKTLGTGSFGRVMLVKHMETGNHYAMKILDKQKVVKLKQIEHTLNEKRILQAVNFPFLTKLEFSFKDNSNLYMVMEYAPGGEMFSHLRRIGRFSEPHARFYAAQIVLTFEYLHSLDLIYRDLKPENLMIDQQGYIKVTDFGFAKRVKGRTWTLCGTPEYLAPEIILSKGYNKAVDWWALGVLIYEMAAGYPPFFADQPIQIYEKIVSGKVRFPSHFSSDLKDLLRNLLQVDLTKRFGNLKNGVNDIKNHKWFATTDWIAIYQRKVEAPFIPKFKGPGDTSNFDDYEEEEIRVSINEKCGKEFSEF

>  <Sequence_Length>  (16) 
351.0

>  <Mutation_Count>  (16) 
4.0

>  <Gene_Name>  (16) 
nan

>  <MW>  (16) 
40.911

>  <Name>  (16) 
cAMP-Dependent Protein Kinase, Alpha-Catalytic Subunit

>  <Mutations>  (16) 
YES

>  <EC_Number>  (16) 
2.7.11.11

>  <Peptidic_Inhibitor>  (16) 
True

>  <Lig_Missing_Atoms>  (16) 
['No']

>  <PDBbind_Resolution>  (16) 
2.0

>  <PDBbind_Release_Year>  (16) 
2007.0

>  <PDBbind_Comment>  (16) 
IC50=77+/-39.6uM

>  <PDBbind_Uniprot_Id>  (16) 
P00517

>  <PDBbind_Protein_Name>  (16) 
CAMP-DEPENDENT PROTEIN KINASE, ALPHA-CATALYTIC

>  <PDBbind_-Logkd/Ki>  (16) 
4.11

>  <PDBbind_Kd/Ki>  (16) 
IC=77uM

>  <PDBbind_Kd_Or_Ki_Or_Ic50>  (16) 
IC50

>  <PDBbind_Relation>  (16) 
=

>  <PDBbind_Value>  (16) 
77.0

>  <PDBbind_Unit>  (16) 
uM

>  <PDBbind_Standard_Value>  (16) 
77000.0

>  <PDBbind_Standard_Unit>  (16) 
nM

>  <PDB_Chain>  (16) 
['A']

>  <Num_Ligs>  (16) 
[1.0]

>  <Orthosteric>  (16) 
[1.0]

>  <Allosteric>  (16) 
[0.0]

>  <Pockets_Assigned>  (16) 
['A']

>  <Multisite>  (16) 
[False]

>  <Same_Number>  (16) 
True

>  <Same_Binding_Site>  (16) 
True

>  <Same_Orientation>  (16) 
True

>  <Lig_Order_in_.pdb>  (16) 
Orthosteric

$$$$

     RDKit          2D

 27 30  0  0  0  0  0  0  0  0999 V2000
    2.6401   -3.1891    0.0000 C   0  0  0  0  0  0  0  0  0  0  0  0
    1.2135   -2.7256    0.0000 C   0  0  0  0  0  0  0  0  0  0  0  0
    0.7500   -1.2990    0.0000 C   0  0  0  0  0  0  0  0  0  0  0  0
    1.5000    0.0000    0.0000 C   0  0  0  0  0  0  0  0  0  0  0  0
    0.7500    1.2990    0.0000 C   0  0  0  0  0  0  0  0  0  0  0  0
   -0.7500    1.2990    0.0000 C   0  0  0  0  0  0  0  0  0  0  0  0
   -1.5000    0.0000    0.0000 C   0  0  0  0  0  0  0  0  0  0  0  0
   -0.7500   -1.2990    0.0000 C   0  0  0  0  0  0  0  0  0  0  0  0
   -1.2135   -2.7256    0.0000 N   0  0  0  0  0  0  0  0  0  0  0  0
   -0.0000   -3.6073    0.0000 N   0  0  0  0  0  0  0  0  0  0  0  0
    1.5000    2.5981    0.0000 C   0  0  0  0  0  0  0  0  0  0  0  0
    3.0000    2.5981    0.0000 C   0  0  0  0  0  0  0  0  0  0  0  0
    3.7500    3.8971    0.0000 C   0  0  0  0  0  0  0  0  0  0  0  0
    3.0000    5.1962    0.0000 C   0  0  0  0  0  0  0  0  0  0  0  0
    1.5000    5.1962    0.0000 N   0  0  0  0  0  0  0  0  0  0  0  0
    0.7500    3.8971    0.0000 C   0  0  0  0  0  0  0  0  0  0  0  0
    5.2500    3.8971    0.0000 O   0  0  0  0  0  0  0  0  0  0  0  0
    6.0000    2.5981    0.0000 C   0  0  0  0  0  0  0  0  0  0  0  0
    7.5000    2.5981    0.0000 C   0  0  0  0  0  0  0  0  0  0  0  0
    8.2500    1.2990    0.0000 C   0  0  0  0  0  0  0  0  0  0  0  0
    9.7500    1.2990    0.0000 C   0  0  0  0  0  0  0  0  0  0  0  0
   10.5000    0.0000    0.0000 C   0  0  0  0  0  0  0  0  0  0  0  0
   12.0000    0.0000    0.0000 C   0  0  0  0  0  0  0  0  0  0  0  0
   12.7500    1.2990    0.0000 C   0  0  0  0  0  0  0  0  0  0  0  0
   12.0000    2.5981    0.0000 C   0  0  0  0  0  0  0  0  0  0  0  0
   10.5000    2.5981    0.0000 C   0  0  0  0  0  0  0  0  0  0  0  0
    8.2500    3.8971    0.0000 N   0  0  0  0  0  0  0  0  0  0  0  0
  1  2  1  0
  2  3  1  0
  3  4  2  0
  4  5  1  0
  5  6  2  0
  6  7  1  0
  7  8  2  0
  8  9  1  0
  9 10  1  0
  5 11  1  0
 11 12  2  0
 12 13  1  0
 13 14  2  0
 14 15  1  0
 15 16  2  0
 13 17  1  0
 17 18  1  0
 18 19  1  0
 19 20  1  0
 20 21  1  0
 21 22  2  0
 22 23  1  0
 23 24  2  0
 24 25  1  0
 25 26  2  0
 19 27  1  1
 10  2  2  0
  8  3  1  0
 16 11  1  0
 26 21  1  0
M  END
>  <Structure>  (17) 
2UZT

>  <Dataset>  (17) 
PDB

>  <Chain>  (17) 
A

>  <Spatial_Label>  (17) 
DFGin

>  <Dihedral_Label>  (17) 
BLAminus

>  <C_Helix_Label>  (17) 
Chelix-in

>  <Lig_ID>  (17) 
SS3

>  <Lig_Entity_ID>  (17) 
2UZT_3

>  <Lig_Name>  (17) 
(2S)-1-{[5-(3-METHYL-1H-INDAZOL-5-YL)PYRIDIN-3-YL]OXY}-3-PHENYLPROPAN-2-AMINE

>  <Lig_Formula>  (17) 
C22H22N4O

>  <Lig_SMILES>  (17) 
Cc1c2cc(ccc2[nH]n1)c3cc(cnc3)OC[C@H](Cc4ccccc4)N

>  <Lig_MW>  (17) 
358.436

>  <Lig_ChEMBL_ID>  (17) 
['CHEMBL379218']

>  <Lig_DrugBank_ID>  (17) 
['DB08568']

>  <Occurence>  (17) 
1.0

>  <Lig_SMILES_Uncharged>  (17) 
Cc1n[nH]c2ccc(-c3cncc(OC[C@@H](N)Cc4ccccc4)c3)cc12

>  <Lig_Conformer>  (17) 
['NaN']

>  <Lig_Of_Interest>  (17) 
['Y']

>  <Lig_Completeness>  (17) 
[1.0]

>  <Lig_Occupancy>  (17) 
[1.0]

>  <Lig_RSCC>  (17) 
['NaN']

>  <Lig_RSR>  (17) 
['NaN']

>  <Lig_RMSZ_Bonds>  (17) 
[1.76]

>  <Lig_RMSZ_Angles>  (17) 
[1.32]

>  <Lig_Alt_Conf>  (17) 
0.0

>  <Title>  (17) 
PKA structures of AKT, indazole-pyridine inhibitors

>  <Nonpolymer_Entity_Count>  (17) 
1.0

>  <Protein_Entity_Count>  (17) 
2.0

>  <Exp_Method>  (17) 
X-Ray Diffraction

>  <Cryst_Method>  (17) 
NaN; NaN

>  <Deposit_Date>  (17) 
2007-05-01

>  <Resolution>  (17) 
2.1

>  <DOI>  (17) 
https://doi.org/10.1021/JM0701019

>  <Source_Organism>  (17) 
Bos taurus

>  <R_Free>  (17) 
0.313

>  <Keywords>  (17) 
Transferase

>  <REMARK_280>  (17) 
 Crystal Solvent Content, Vs (%): 56.33 Matthews Coefficient, Vm (Angstroms**3/Da): 2.82 Crystallization Conditions: Null 

>  <REMARK_610>  (17) 
nan

>  <pH>  (17) 
nan

>  <Cryst_Technique>  (17) 
co-crystallized

>  <Sequence>  (17) 
VKEFLAKAKEDFLKKWENPAQNTAHLDQFERIKTLGTGSFGRVMLVKHMETGNHYAMKILDKQKVVKLKQIEHTLNEKRILQAVNFPFLVKLEFSFKDNSNLYMVMEYVPGGEMFSHLRRIGRFSEPHARFYAAQIVLTFEYLHSLDLIYRDLKPENLLIDQQGYIQVTDFGFAKRVKGRTWTLCGTPEYLAPEIILSKGYNKAVDWWALGVLIYEMAAGYPPFFADQPIQIYEKIVSGKVRFPSHFSSDLKDLLRNLLQVDLTKRFGNLKDGVNDIKNHKWFATTDWIAIYQRKVEAPFIPKFKGPGDTSNFDDYEEEEIRVSINEKCGKEFSEF

>  <Sequence_Length>  (17) 
336.0

>  <Mutation_Count>  (17) 
0.0

>  <Gene_Name>  (17) 
nan

>  <MW>  (17) 
39.216

>  <Name>  (17) 
cAMP-Dependent Protein Kinase, Alpha-Catalytic Subunit

>  <Mutations>  (17) 
nan

>  <EC_Number>  (17) 
2.7.11.11

>  <Peptidic_Inhibitor>  (17) 
True

>  <Lig_Missing_Atoms>  (17) 
['No']

>  <PDBbind_Resolution>  (17) 
nan

>  <PDBbind_Release_Year>  (17) 
nan

>  <PDBbind_Comment>  (17) 
nan

>  <PDBbind_Uniprot_Id>  (17) 
nan

>  <PDBbind_Protein_Name>  (17) 
nan

>  <PDBbind_-Logkd/Ki>  (17) 
nan

>  <PDBbind_Kd/Ki>  (17) 
nan

>  <PDBbind_Kd_Or_Ki_Or_Ic50>  (17) 
nan

>  <PDBbind_Relation>  (17) 
nan

>  <PDBbind_Value>  (17) 
nan

>  <PDBbind_Unit>  (17) 
nan

>  <PDBbind_Standard_Value>  (17) 
nan

>  <PDBbind_Standard_Unit>  (17) 
nan

>  <PDB_Chain>  (17) 
['A']

>  <Num_Ligs>  (17) 
[1.0]

>  <Orthosteric>  (17) 
[1.0]

>  <Allosteric>  (17) 
[0.0]

>  <Pockets_Assigned>  (17) 
['A']

>  <Multisite>  (17) 
[False]

>  <Same_Number>  (17) 
True

>  <Same_Binding_Site>  (17) 
True

>  <Same_Orientation>  (17) 
True

>  <Lig_Order_in_.pdb>  (17) 
Orthosteric

$$$$

     RDKit          2D

 30 34  0  0  0  0  0  0  0  0999 V2000
    2.6401   -3.1891    0.0000 C   0  0  0  0  0  0  0  0  0  0  0  0
    1.2135   -2.7256    0.0000 C   0  0  0  0  0  0  0  0  0  0  0  0
    0.7500   -1.2990    0.0000 C   0  0  0  0  0  0  0  0  0  0  0  0
    1.5000    0.0000    0.0000 C   0  0  0  0  0  0  0  0  0  0  0  0
    0.7500    1.2990    0.0000 C   0  0  0  0  0  0  0  0  0  0  0  0
   -0.7500    1.2990    0.0000 C   0  0  0  0  0  0  0  0  0  0  0  0
   -1.5000    0.0000    0.0000 C   0  0  0  0  0  0  0  0  0  0  0  0
   -0.7500   -1.2990    0.0000 C   0  0  0  0  0  0  0  0  0  0  0  0
   -1.2135   -2.7256    0.0000 N   0  0  0  0  0  0  0  0  0  0  0  0
   -0.0000   -3.6073    0.0000 N   0  0  0  0  0  0  0  0  0  0  0  0
    1.5000    2.5981    0.0000 C   0  0  0  0  0  0  0  0  0  0  0  0
    3.0000    2.5981    0.0000 C   0  0  0  0  0  0  0  0  0  0  0  0
    3.7500    3.8971    0.0000 C   0  0  0  0  0  0  0  0  0  0  0  0
    3.0000    5.1962    0.0000 C   0  0  0  0  0  0  0  0  0  0  0  0
    1.5000    5.1962    0.0000 N   0  0  0  0  0  0  0  0  0  0  0  0
    0.7500    3.8971    0.0000 C   0  0  0  0  0  0  0  0  0  0  0  0
    5.2500    3.8971    0.0000 O   0  0  0  0  0  0  0  0  0  0  0  0
    6.0000    2.5981    0.0000 C   0  0  0  0  0  0  0  0  0  0  0  0
    7.5000    2.5981    0.0000 C   0  0  0  0  0  0  0  0  0  0  0  0
    8.2500    1.2990    0.0000 C   0  0  0  0  0  0  0  0  0  0  0  0
    9.7500    1.2990    0.0000 C   0  0  0  0  0  0  0  0  0  0  0  0
   10.6317    2.5126    0.0000 C   0  0  0  0  0  0  0  0  0  0  0  0
   12.0583    2.0490    0.0000 N   0  0  0  0  0  0  0  0  0  0  0  0
   12.0583    0.5490    0.0000 C   0  0  0  0  0  0  0  0  0  0  0  0
   10.6317    0.0855    0.0000 C   0  0  0  0  0  0  0  0  0  0  0  0
   10.3198   -1.3817    0.0000 C   0  0  0  0  0  0  0  0  0  0  0  0
   11.4345   -2.3854    0.0000 C   0  0  0  0  0  0  0  0  0  0  0  0
   12.8611   -1.9219    0.0000 C   0  0  0  0  0  0  0  0  0  0  0  0
   13.1730   -0.4547    0.0000 C   0  0  0  0  0  0  0  0  0  0  0  0
    8.2500    3.8971    0.0000 N   0  0  0  0  0  0  0  0  0  0  0  0
  1  2  1  0
  2  3  1  0
  3  4  2  0
  4  5  1  0
  5  6  2  0
  6  7  1  0
  7  8  2  0
  8  9  1  0
  9 10  1  0
  5 11  1  0
 11 12  2  0
 12 13  1  0
 13 14  2  0
 14 15  1  0
 15 16  2  0
 13 17  1  0
 17 18  1  0
 18 19  1  0
 19 20  1  0
 20 21  1  0
 21 22  2  0
 22 23  1  0
 23 24  1  0
 24 25  2  0
 25 26  1  0
 26 27  2  0
 27 28  1  0
 28 29  2  0
 19 30  1  1
 10  2  2  0
  8  3  1  0
 16 11  1  0
 25 21  1  0
 29 24  1  0
M  END
>  <Structure>  (18) 
2UZU

>  <Dataset>  (18) 
PDB

>  <Chain>  (18) 
E

>  <Spatial_Label>  (18) 
DFGin

>  <Dihedral_Label>  (18) 
BLAminus

>  <C_Helix_Label>  (18) 
Chelix-in

>  <Lig_ID>  (18) 
L20

>  <Lig_Entity_ID>  (18) 
2UZU_3

>  <Lig_Name>  (18) 
(2S)-1-(1H-INDOL-3-YL)-3-{[5-(3-METHYL-1H-INDAZOL-5-YL)PYRIDIN-3-YL]OXY}PROPAN-2-AMINE

>  <Lig_Formula>  (18) 
C24H23N5O

>  <Lig_SMILES>  (18) 
Cc1c2cc(ccc2[nH]n1)c3cc(cnc3)OC[C@H](Cc4c[nH]c5c4cccc5)N

>  <Lig_MW>  (18) 
397.472

>  <Lig_ChEMBL_ID>  (18) 
['CHEMBL379300']

>  <Lig_DrugBank_ID>  (18) 
['DB08073']

>  <Occurence>  (18) 
3.0

>  <Lig_SMILES_Uncharged>  (18) 
Cc1n[nH]c2ccc(-c3cncc(OC[C@@H](N)Cc4c[nH]c5ccccc45)c3)cc12

>  <Lig_Conformer>  (18) 
['NaN']

>  <Lig_Of_Interest>  (18) 
['Y']

>  <Lig_Completeness>  (18) 
[1.0]

>  <Lig_Occupancy>  (18) 
[1.0]

>  <Lig_RSCC>  (18) 
['NaN']

>  <Lig_RSR>  (18) 
['NaN']

>  <Lig_RMSZ_Bonds>  (18) 
[1.88]

>  <Lig_RMSZ_Angles>  (18) 
[2.66]

>  <Lig_Alt_Conf>  (18) 
0.0

>  <Title>  (18) 
PKA structures of indazole-pyridine series of AKT inhibitors

>  <Nonpolymer_Entity_Count>  (18) 
1.0

>  <Protein_Entity_Count>  (18) 
2.0

>  <Exp_Method>  (18) 
X-Ray Diffraction

>  <Cryst_Method>  (18) 
NaN; NaN

>  <Deposit_Date>  (18) 
2007-05-01

>  <Resolution>  (18) 
2.4

>  <DOI>  (18) 
https://doi.org/10.1021/JM0701019

>  <Source_Organism>  (18) 
Bos taurus

>  <R_Free>  (18) 
0.3707

>  <Keywords>  (18) 
Transferase

>  <REMARK_280>  (18) 
 Crystal Solvent Content, Vs (%): 53.16 Matthews Coefficient, Vm (Angstroms**3/Da): 2.63 Crystallization Conditions: Null 

>  <REMARK_610>  (18) 
nan

>  <pH>  (18) 
nan

>  <Cryst_Technique>  (18) 
co-crystallized

>  <Sequence>  (18) 
VKEFLAKAKEDFLKKWENPAQNTAHLDQFERIKTLGTGSFGRVMLVKHMETGNHYAMKILDKQKVVKLKQIEHTLNEKRILQAVNFPFLVKLEFSFKDNSNLYMVMEYVPGGEMFSHLRRIGRFSEPHARFYAAQIVLTFEYLHSLDLIYRDLKPENLLIDQQGYIQVTDFGFAKRVKGRTWTLCGTPEYLAPEIILSKGYNKAVDWWALGVLIYEMAAGYPPFFADQPIQIYEKIVSGKVRFPSHFSSDLKDLLRNLLQVDLTKRFGNLKDGVNDIKNHKWFATTDWIAIYQRKVEAPFIPKFKGPGDTSNFDDYEEEEIRVSINEKCGKEFSEF

>  <Sequence_Length>  (18) 
336.0

>  <Mutation_Count>  (18) 
0.0

>  <Gene_Name>  (18) 
nan

>  <MW>  (18) 
39.216

>  <Name>  (18) 
cAMP-Dependent Protein Kinase, Alpha-Catalytic Subunit

>  <Mutations>  (18) 
nan

>  <EC_Number>  (18) 
2.7.11.11

>  <Peptidic_Inhibitor>  (18) 
True

>  <Lig_Missing_Atoms>  (18) 
['No']

>  <PDBbind_Resolution>  (18) 
nan

>  <PDBbind_Release_Year>  (18) 
nan

>  <PDBbind_Comment>  (18) 
nan

>  <PDBbind_Uniprot_Id>  (18) 
nan

>  <PDBbind_Protein_Name>  (18) 
nan

>  <PDBbind_-Logkd/Ki>  (18) 
nan

>  <PDBbind_Kd/Ki>  (18) 
nan

>  <PDBbind_Kd_Or_Ki_Or_Ic50>  (18) 
nan

>  <PDBbind_Relation>  (18) 
nan

>  <PDBbind_Value>  (18) 
nan

>  <PDBbind_Unit>  (18) 
nan

>  <PDBbind_Standard_Value>  (18) 
nan

>  <PDBbind_Standard_Unit>  (18) 
nan

>  <PDB_Chain>  (18) 
['A']

>  <Num_Ligs>  (18) 
[1.0]

>  <Orthosteric>  (18) 
[1.0]

>  <Allosteric>  (18) 
[0.0]

>  <Pockets_Assigned>  (18) 
['A']

>  <Multisite>  (18) 
[False]

>  <Same_Number>  (18) 
True

>  <Same_Binding_Site>  (18) 
True

>  <Same_Orientation>  (18) 
False

>  <Lig_Order_in_.pdb>  (18) 
Orthosteric

$$$$

     RDKit          2D

 35 39  0  0  0  0  0  0  0  0999 V2000
    2.6401   -3.1891    0.0000 C   0  0  0  0  0  0  0  0  0  0  0  0
    1.2135   -2.7256    0.0000 C   0  0  0  0  0  0  0  0  0  0  0  0
    0.7500   -1.2990    0.0000 C   0  0  0  0  0  0  0  0  0  0  0  0
    1.5000    0.0000    0.0000 C   0  0  0  0  0  0  0  0  0  0  0  0
    0.7500    1.2990    0.0000 C   0  0  0  0  0  0  0  0  0  0  0  0
   -0.7500    1.2990    0.0000 C   0  0  0  0  0  0  0  0  0  0  0  0
   -1.5000    0.0000    0.0000 C   0  0  0  0  0  0  0  0  0  0  0  0
   -0.7500   -1.2990    0.0000 C   0  0  0  0  0  0  0  0  0  0  0  0
   -1.2135   -2.7256    0.0000 N   0  0  0  0  0  0  0  0  0  0  0  0
   -0.0000   -3.6073    0.0000 N   0  0  0  0  0  0  0  0  0  0  0  0
    1.5000    2.5981    0.0000 C   0  0  0  0  0  0  0  0  0  0  0  0
    3.0000    2.5981    0.0000 C   0  0  0  0  0  0  0  0  0  0  0  0
    3.7500    3.8971    0.0000 C   0  0  0  0  0  0  0  0  0  0  0  0
    3.0000    5.1962    0.0000 C   0  0  0  0  0  0  0  0  0  0  0  0
    1.5000    5.1962    0.0000 N   0  0  0  0  0  0  0  0  0  0  0  0
    0.7500    3.8971    0.0000 C   0  0  0  0  0  0  0  0  0  0  0  0
    5.2500    3.8971    0.0000 O   0  0  0  0  0  0  0  0  0  0  0  0
    6.0000    2.5981    0.0000 C   0  0  0  0  0  0  0  0  0  0  0  0
    7.5000    2.5981    0.0000 C   0  0  0  0  0  0  0  0  0  0  0  0
    8.2500    1.2990    0.0000 C   0  0  0  0  0  0  0  0  0  0  0  0
    9.7500    1.2990    0.0000 C   0  0  0  0  0  0  0  0  0  0  0  0
   10.5000    0.0000    0.0000 C   0  0  0  0  0  0  0  0  0  0  0  0
   12.0000    0.0000    0.0000 C   0  0  0  0  0  0  0  0  0  0  0  0
   12.7500    1.2990    0.0000 C   0  0  0  0  0  0  0  0  0  0  0  0
   12.0000    2.5981    0.0000 C   0  0  0  0  0  0  0  0  0  0  0  0
   10.5000    2.5981    0.0000 C   0  0  0  0  0  0  0  0  0  0  0  0
   12.7500    3.8971    0.0000 O   0  0  0  0  0  0  0  0  0  0  0  0
   14.2500    3.8971    0.0000 C   0  0  0  0  0  0  0  0  0  0  0  0
   15.0000    5.1962    0.0000 C   0  0  0  0  0  0  0  0  0  0  0  0
   16.5000    5.1962    0.0000 C   0  0  0  0  0  0  0  0  0  0  0  0
   17.2500    6.4952    0.0000 C   0  0  0  0  0  0  0  0  0  0  0  0
   16.5000    7.7942    0.0000 C   0  0  0  0  0  0  0  0  0  0  0  0
   15.0000    7.7942    0.0000 C   0  0  0  0  0  0  0  0  0  0  0  0
   14.2500    6.4952    0.0000 C   0  0  0  0  0  0  0  0  0  0  0  0
    8.2500    3.8971    0.0000 N   0  0  0  0  0  0  0  0  0  0  0  0
  1  2  1  0
  2  3  1  0
  3  4  2  0
  4  5  1  0
  5  6  2  0
  6  7  1  0
  7  8  2  0
  8  9  1  0
  9 10  1  0
  5 11  1  0
 11 12  2  0
 12 13  1  0
 13 14  2  0
 14 15  1  0
 15 16  2  0
 13 17  1  0
 17 18  1  0
 18 19  1  0
 19 20  1  0
 20 21  1  0
 21 22  2  0
 22 23  1  0
 23 24  2  0
 24 25  1  0
 25 26  2  0
 25 27  1  0
 27 28  1  0
 28 29  1  0
 29 30  1  0
 30 31  1  0
 31 32  1  0
 32 33  1  0
 33 34  1  0
 19 35  1  1
 10  2  2  0
  8  3  1  0
 16 11  1  0
 26 21  1  0
 34 29  1  0
M  END
>  <Structure>  (19) 
2UZV

>  <Dataset>  (19) 
PDB

>  <Chain>  (19) 
A

>  <Spatial_Label>  (19) 
DFGin

>  <Dihedral_Label>  (19) 
BLAminus

>  <C_Helix_Label>  (19) 
Chelix-in

>  <Lig_ID>  (19) 
SS5

>  <Lig_Entity_ID>  (19) 
2UZV_3

>  <Lig_Name>  (19) 
(2S)-1-[3-(CYCLOHEXYLMETHOXY)PHENYL]-3-{[5-(3-METHYL-1H-INDAZOL-5-YL)PYRIDIN-3-YL]OXY}PROPAN-2-AMINE

>  <Lig_Formula>  (19) 
C29H34N4O2

>  <Lig_SMILES>  (19) 
Cc1c2cc(ccc2[nH]n1)c3cc(cnc3)OC[C@H](Cc4cccc(c4)OCC5CCCCC5)N

>  <Lig_MW>  (19) 
470.606

>  <Lig_ChEMBL_ID>  (19) 
['CHEMBL226796']

>  <Lig_DrugBank_ID>  (19) 
nan

>  <Occurence>  (19) 
1.0

>  <Lig_SMILES_Uncharged>  (19) 
Cc1n[nH]c2ccc(-c3cncc(OC[C@@H](N)Cc4cccc(OCC5CCCCC5)c4)c3)cc12

>  <Lig_Conformer>  (19) 
['NaN']

>  <Lig_Of_Interest>  (19) 
['Y']

>  <Lig_Completeness>  (19) 
[1.0]

>  <Lig_Occupancy>  (19) 
[1.0]

>  <Lig_RSCC>  (19) 
['NaN']

>  <Lig_RSR>  (19) 
['NaN']

>  <Lig_RMSZ_Bonds>  (19) 
[1.65]

>  <Lig_RMSZ_Angles>  (19) 
[1.27]

>  <Lig_Alt_Conf>  (19) 
0.0

>  <Title>  (19) 
PKA structures of indazole-pyridine series of AKT inhibitors

>  <Nonpolymer_Entity_Count>  (19) 
1.0

>  <Protein_Entity_Count>  (19) 
2.0

>  <Exp_Method>  (19) 
X-Ray Diffraction

>  <Cryst_Method>  (19) 
NaN; NaN

>  <Deposit_Date>  (19) 
2007-05-01

>  <Resolution>  (19) 
2.5

>  <DOI>  (19) 
https://doi.org/10.1021/JM0701019

>  <Source_Organism>  (19) 
Bos taurus

>  <R_Free>  (19) 
0.316

>  <Keywords>  (19) 
Transferase

>  <REMARK_280>  (19) 
 Crystal Solvent Content, Vs (%): 53.16 Matthews Coefficient, Vm (Angstroms**3/Da): 2.63 Crystallization Conditions: Null 

>  <REMARK_610>  (19) 
nan

>  <pH>  (19) 
nan

>  <Cryst_Technique>  (19) 
co-crystallized

>  <Sequence>  (19) 
VKEFLAKAKEDFLKKWENPAQNTAHLDQFERIKTLGTGSFGRVMLVKHMETGNHYAMKILDKQKVVKLKQIEHTLNEKRILQAVNFPFLVKLEFSFKDNSNLYMVMEYVPGGEMFSHLRRIGRFSEPHARFYAAQIVLTFEYLHSLDLIYRDLKPENLLIDQQGYIQVTDFGFAKRVKGRTWTLCGTPEYLAPEIILSKGYNKAVDWWALGVLIYEMAAGYPPFFADQPIQIYEKIVSGKVRFPSHFSSDLKDLLRNLLQVDLTKRFGNLKDGVNDIKNHKWFATTDWIAIYQRKVEAPFIPKFKGPGDTSNFDDYEEEEIRVSINEKCGKEFSEF

>  <Sequence_Length>  (19) 
336.0

>  <Mutation_Count>  (19) 
0.0

>  <Gene_Name>  (19) 
nan

>  <MW>  (19) 
39.216

>  <Name>  (19) 
cAMP-Dependent Protein Kinase, Alpha-Catalytic Subunit

>  <Mutations>  (19) 
nan

>  <EC_Number>  (19) 
2.7.11.11

>  <Peptidic_Inhibitor>  (19) 
True

>  <Lig_Missing_Atoms>  (19) 
['No']

>  <PDBbind_Resolution>  (19) 
2.5

>  <PDBbind_Release_Year>  (19) 
2007.0

>  <PDBbind_Comment>  (19) 
compound 13au, IC50=1360nM

>  <PDBbind_Uniprot_Id>  (19) 
Q3SX13

>  <PDBbind_Protein_Name>  (19) 
CAMP-DEPENDENT PROTEIN KINASE,

>  <PDBbind_-Logkd/Ki>  (19) 
5.87

>  <PDBbind_Kd/Ki>  (19) 
IC=1.36uM

>  <PDBbind_Kd_Or_Ki_Or_Ic50>  (19) 
IC50

>  <PDBbind_Relation>  (19) 
=

>  <PDBbind_Value>  (19) 
1.36

>  <PDBbind_Unit>  (19) 
uM

>  <PDBbind_Standard_Value>  (19) 
1360.0

>  <PDBbind_Standard_Unit>  (19) 
nM

>  <PDB_Chain>  (19) 
['A']

>  <Num_Ligs>  (19) 
[1.0]

>  <Orthosteric>  (19) 
[1.0]

>  <Allosteric>  (19) 
[0.0]

>  <Pockets_Assigned>  (19) 
['A']

>  <Multisite>  (19) 
[False]

>  <Same_Number>  (19) 
True

>  <Same_Binding_Site>  (19) 
True

>  <Same_Orientation>  (19) 
True

>  <Lig_Order_in_.pdb>  (19) 
Orthosteric

$$$$

     RDKit          2D

 28 31  0  0  0  0  0  0  0  0999 V2000
    2.6401   -3.1891    0.0000 C   0  0  0  0  0  0  0  0  0  0  0  0
    1.2135   -2.7256    0.0000 C   0  0  0  0  0  0  0  0  0  0  0  0
    0.7500   -1.2990    0.0000 C   0  0  0  0  0  0  0  0  0  0  0  0
    1.5000    0.0000    0.0000 C   0  0  0  0  0  0  0  0  0  0  0  0
    0.7500    1.2990    0.0000 C   0  0  0  0  0  0  0  0  0  0  0  0
   -0.7500    1.2990    0.0000 C   0  0  0  0  0  0  0  0  0  0  0  0
   -1.5000    0.0000    0.0000 C   0  0  0  0  0  0  0  0  0  0  0  0
   -0.7500   -1.2990    0.0000 C   0  0  0  0  0  0  0  0  0  0  0  0
   -1.2135   -2.7256    0.0000 N   0  0  0  0  0  0  0  0  0  0  0  0
   -0.0000   -3.6073    0.0000 N   0  0  0  0  0  0  0  0  0  0  0  0
    1.5000    2.5981    0.0000 C   0  0  0  0  0  0  0  0  0  0  0  0
    3.0000    2.5981    0.0000 C   0  0  0  0  0  0  0  0  0  0  0  0
    3.7500    3.8971    0.0000 C   0  0  0  0  0  0  0  0  0  0  0  0
    3.0000    5.1962    0.0000 C   0  0  0  0  0  0  0  0  0  0  0  0
    1.5000    5.1962    0.0000 N   0  0  0  0  0  0  0  0  0  0  0  0
    0.7500    3.8971    0.0000 C   0  0  0  0  0  0  0  0  0  0  0  0
    5.2500    3.8971    0.0000 O   0  0  0  0  0  0  0  0  0  0  0  0
    6.0000    2.5981    0.0000 C   0  0  0  0  0  0  0  0  0  0  0  0
    7.5000    2.5981    0.0000 C   0  0  0  0  0  0  0  0  0  0  0  0
    8.2500    1.2990    0.0000 C   0  0  0  0  0  0  0  0  0  0  0  0
    9.7500    1.2990    0.0000 C   0  0  0  0  0  0  0  0  0  0  0  0
   10.5000    0.0000    0.0000 C   0  0  0  0  0  0  0  0  0  0  0  0
   12.0000    0.0000    0.0000 C   0  0  0  0  0  0  0  0  0  0  0  0
   12.7500    1.2990    0.0000 C   0  0  0  0  0  0  0  0  0  0  0  0
   12.0000    2.5981    0.0000 C   0  0  0  0  0  0  0  0  0  0  0  0
   10.5000    2.5981    0.0000 C   0  0  0  0  0  0  0  0  0  0  0  0
   14.2500    1.2990    0.0000 Br  0  0  0  0  0  0  0  0  0  0  0  0
    8.2500    3.8971    0.0000 N   0  0  0  0  0  0  0  0  0  0  0  0
  1  2  1  0
  2  3  1  0
  3  4  2  0
  4  5  1  0
  5  6  2  0
  6  7  1  0
  7  8  2  0
  8  9  1  0
  9 10  1  0
  5 11  1  0
 11 12  2  0
 12 13  1  0
 13 14  2  0
 14 15  1  0
 15 16  2  0
 13 17  1  0
 17 18  1  0
 18 19  1  0
 19 20  1  0
 20 21  1  0
 21 22  2  0
 22 23  1  0
 23 24  2  0
 24 25  1  0
 25 26  2  0
 24 27  1  0
 19 28  1  1
 10  2  2  0
  8  3  1  0
 16 11  1  0
 26 21  1  0
M  END
>  <Structure>  (20) 
2UZW

>  <Dataset>  (20) 
PDB

>  <Chain>  (20) 
E

>  <Spatial_Label>  (20) 
DFGin

>  <Dihedral_Label>  (20) 
BLAminus

>  <C_Helix_Label>  (20) 
Chelix-in

>  <Lig_ID>  (20) 
SS4

>  <Lig_Entity_ID>  (20) 
2UZW_3

>  <Lig_Name>  (20) 
3-PYRIDIN-4-YL-2,4-DIHYDRO-INDENO[1,2-.C.] PYRAZOLE

>  <Lig_Formula>  (20) 
C22H21BrN4O

>  <Lig_SMILES>  (20) 
Cc1c2cc(ccc2[nH]n1)c3cc(cnc3)OC[C@H](Cc4ccc(cc4)Br)N

>  <Lig_MW>  (20) 
437.332

>  <Lig_ChEMBL_ID>  (20) 
['CHEMBL229855']

>  <Lig_DrugBank_ID>  (20) 
['DB08569']

>  <Occurence>  (20) 
1.0

>  <Lig_SMILES_Uncharged>  (20) 
Cc1n[nH]c2ccc(-c3cncc(OC[C@@H](N)Cc4ccc(Br)cc4)c3)cc12

>  <Lig_Conformer>  (20) 
['NaN']

>  <Lig_Of_Interest>  (20) 
['Y']

>  <Lig_Completeness>  (20) 
[1.0]

>  <Lig_Occupancy>  (20) 
[1.0]

>  <Lig_RSCC>  (20) 
['NaN']

>  <Lig_RSR>  (20) 
['NaN']

>  <Lig_RMSZ_Bonds>  (20) 
[1.14]

>  <Lig_RMSZ_Angles>  (20) 
[1.02]

>  <Lig_Alt_Conf>  (20) 
0.0

>  <Title>  (20) 
PKA structures of indazole-pyridine series of AKT inhibitors

>  <Nonpolymer_Entity_Count>  (20) 
1.0

>  <Protein_Entity_Count>  (20) 
2.0

>  <Exp_Method>  (20) 
X-Ray Diffraction

>  <Cryst_Method>  (20) 
NaN; NaN

>  <Deposit_Date>  (20) 
2007-05-01

>  <Resolution>  (20) 
2.2

>  <DOI>  (20) 
https://doi.org/10.1021/JM0701019

>  <Source_Organism>  (20) 
Bos taurus

>  <R_Free>  (20) 
0.3277

>  <Keywords>  (20) 
Transferase

>  <REMARK_280>  (20) 
 Crystal Solvent Content, Vs (%): 53.49 Matthews Coefficient, Vm (Angstroms**3/Da): 2.64 Crystallization Conditions: Null 

>  <REMARK_610>  (20) 
nan

>  <pH>  (20) 
nan

>  <Cryst_Technique>  (20) 
co-crystallized

>  <Sequence>  (20) 
VKEFLAKAKEDFLKKWENPAQNTAHLDQFERIKTLGTGSFGRVMLVKHMETGNHYAMKILDKQKVVKLKQIEHTLNEKRILQAVNFPFLVKLEFSFKDNSNLYMVMEYVPGGEMFSHLRRIGRFSEPHARFYAAQIVLTFEYLHSLDLIYRDLKPENLLIDQQGYIQVTDFGFAKRVKGRTWTLCGTPEYLAPEIILSKGYNKAVDWWALGVLIYEMAAGYPPFFADQPIQIYEKIVSGKVRFPSHFSSDLKDLLRNLLQVDLTKRFGNLKDGVNDIKNHKWFATTDWIAIYQRKVEAPFIPKFKGPGDTSNFDDYEEEEIRVSINEKCGKEFSEF

>  <Sequence_Length>  (20) 
336.0

>  <Mutation_Count>  (20) 
0.0

>  <Gene_Name>  (20) 
nan

>  <MW>  (20) 
39.216

>  <Name>  (20) 
cAMP-Dependent Protein Kinase, Alpha-Catalytic Subunit

>  <Mutations>  (20) 
nan

>  <EC_Number>  (20) 
2.7.11.11

>  <Peptidic_Inhibitor>  (20) 
True

>  <Lig_Missing_Atoms>  (20) 
['No']

>  <PDBbind_Resolution>  (20) 
nan

>  <PDBbind_Release_Year>  (20) 
nan

>  <PDBbind_Comment>  (20) 
nan

>  <PDBbind_Uniprot_Id>  (20) 
nan

>  <PDBbind_Protein_Name>  (20) 
nan

>  <PDBbind_-Logkd/Ki>  (20) 
nan

>  <PDBbind_Kd/Ki>  (20) 
nan

>  <PDBbind_Kd_Or_Ki_Or_Ic50>  (20) 
nan

>  <PDBbind_Relation>  (20) 
nan

>  <PDBbind_Value>  (20) 
nan

>  <PDBbind_Unit>  (20) 
nan

>  <PDBbind_Standard_Value>  (20) 
nan

>  <PDBbind_Standard_Unit>  (20) 
nan

>  <PDB_Chain>  (20) 
['E']

>  <Num_Ligs>  (20) 
[1.0]

>  <Orthosteric>  (20) 
[1.0]

>  <Allosteric>  (20) 
[0.0]

>  <Pockets_Assigned>  (20) 
['A']

>  <Multisite>  (20) 
[False]

>  <Same_Number>  (20) 
True

>  <Same_Binding_Site>  (20) 
True

>  <Same_Orientation>  (20) 
True

>  <Lig_Order_in_.pdb>  (20) 
Orthosteric

$$$$

     RDKit          2D

 17 19  0  0  0  0  0  0  0  0999 V2000
    1.2760    0.0000    0.0000 C   0  0  0  0  0  0  0  0  0  0  0  0
    0.3943    1.2135    0.0000 N   0  0  0  0  0  0  0  0  0  0  0  0
   -1.0323    0.7500    0.0000 C   0  0  0  0  0  0  0  0  0  0  0  0
   -1.0323   -0.7500    0.0000 C   0  0  0  0  0  0  0  0  0  0  0  0
    0.3943   -1.2135    0.0000 N   0  0  0  0  0  0  0  0  0  0  0  0
   -2.3313   -1.5000    0.0000 C   0  0  0  0  0  0  0  0  0  0  0  0
   -3.6304   -0.7500    0.0000 N   0  0  0  0  0  0  0  0  0  0  0  0
   -3.6304    0.7500    0.0000 C   0  0  0  0  0  0  0  0  0  0  0  0
   -2.3313    1.5000    0.0000 N   0  0  0  0  0  0  0  0  0  0  0  0
   -2.3313   -3.0000    0.0000 N   0  0  0  0  0  0  0  0  0  0  0  0
   -3.6304   -3.7500    0.0000 C   0  0  0  0  0  0  0  0  0  0  0  0
   -3.6304   -5.2500    0.0000 C   0  0  0  0  0  0  0  0  0  0  0  0
   -2.3313   -6.0000    0.0000 C   0  0  0  0  0  0  0  0  0  0  0  0
   -1.0323   -5.2500    0.0000 C   0  0  0  0  0  0  0  0  0  0  0  0
   -1.0323   -3.7500    0.0000 C   0  0  0  0  0  0  0  0  0  0  0  0
   -2.3313   -7.5000    0.0000 C   0  0  0  0  0  0  0  0  0  0  0  0
   -3.6304   -8.2500    0.0000 N   0  0  0  0  0  0  0  0  0  0  0  0
  1  2  1  0
  2  3  1  0
  3  4  2  0
  4  5  1  0
  4  6  1  0
  6  7  2  0
  7  8  1  0
  8  9  2  0
  6 10  1  0
 10 11  1  0
 11 12  1  0
 12 13  1  0
 13 14  1  0
 14 15  1  0
 13 16  1  0
 16 17  1  0
  5  1  2  0
  9  3  1  0
 15 10  1  0
M  END
>  <Structure>  (21) 
2VNW

>  <Dataset>  (21) 
PDB

>  <Chain>  (21) 
A

>  <Spatial_Label>  (21) 
DFGin

>  <Dihedral_Label>  (21) 
BLAminus

>  <C_Helix_Label>  (21) 
Chelix-in

>  <Lig_ID>  (21) 
M01

>  <Lig_Entity_ID>  (21) 
2VNW_3

>  <Lig_Name>  (21) 
1-[1-(9H-purin-6-yl)piperidin-4-yl]methanamine

>  <Lig_Formula>  (21) 
C11H16N6

>  <Lig_SMILES>  (21) 
c1[nH]c2c(n1)c(ncn2)N3CCC(CC3)CN

>  <Lig_MW>  (21) 
232.285

>  <Lig_ChEMBL_ID>  (21) 
['CHEMBL259356']

>  <Lig_DrugBank_ID>  (21) 
nan

>  <Occurence>  (21) 
1.0

>  <Lig_SMILES_Uncharged>  (21) 
NCC1CCN(c2ncnc3[nH]cnc23)CC1

>  <Lig_Conformer>  (21) 
['NaN']

>  <Lig_Of_Interest>  (21) 
['Y']

>  <Lig_Completeness>  (21) 
[1.0]

>  <Lig_Occupancy>  (21) 
[1.0]

>  <Lig_RSCC>  (21) 
[0.958]

>  <Lig_RSR>  (21) 
[0.113]

>  <Lig_RMSZ_Bonds>  (21) 
[1.2]

>  <Lig_RMSZ_Angles>  (21) 
[1.02]

>  <Lig_Alt_Conf>  (21) 
0.0

>  <Title>  (21) 
Structure of PKA-PKB chimera complexed with (1-(9H-Purin-6-yl) piperidin-4-yl)methanamine

>  <Nonpolymer_Entity_Count>  (21) 
1.0

>  <Protein_Entity_Count>  (21) 
2.0

>  <Exp_Method>  (21) 
X-Ray Diffraction

>  <Cryst_Method>  (21) 
NaN; NaN

>  <Deposit_Date>  (21) 
2008-02-08

>  <Resolution>  (21) 
2.09

>  <DOI>  (21) 
https://doi.org/10.1021/JM701437D

>  <Source_Organism>  (21) 
Bos taurus

>  <R_Free>  (21) 
0.247

>  <Keywords>  (21) 
Transferase

>  <REMARK_280>  (21) 
 Crystal Solvent Content, Vs (%): 46.26 Matthews Coefficient, Vm (Angstroms**3/Da): 2.31 Crystallization Conditions: Null 

>  <REMARK_610>  (21) 
nan

>  <pH>  (21) 
nan

>  <Cryst_Technique>  (21) 
soaked

>  <Sequence>  (21) 
MGNAAAAKKGSEQESVKEFLAKAKEDFLKKWENPAQNTAHLDQFERIKTLGTGSFGRVMLVKHMETGNHYAMKILDKQKVVKLKQIEHTLNEKRILQAVNFPFLTKLEFSFKDNSNLYMVMEYAPGGEMFSHLRRIGRFSEPHARFYAAQIVLTFEYLHSLDLIYRDLKPENLMIDQQGYIKVTDFGFAKRVKGRTWTLCGTPEYLAPEIILSKGYNKAVDWWALGVLIYEMAAGYPPFFADQPIQIYEKIVSGKVRFPSHFSSDLKDLLRNLLQVDLTKRFGNLKNGVNDIKNHKWFATTDWIAIYQRKVEAPFIPKFKGPGDTSNFDDYEEEEIRVSINEKCGKEFSEF

>  <Sequence_Length>  (21) 
351.0

>  <Mutation_Count>  (21) 
4.0

>  <Gene_Name>  (21) 
nan

>  <MW>  (21) 
40.911

>  <Name>  (21) 
cAMP-Dependent Protein Kinase, Alpha-Catalytic Subunit

>  <Mutations>  (21) 
YES

>  <EC_Number>  (21) 
2.7.11.11

>  <Peptidic_Inhibitor>  (21) 
True

>  <Lig_Missing_Atoms>  (21) 
['No']

>  <PDBbind_Resolution>  (21) 
nan

>  <PDBbind_Release_Year>  (21) 
nan

>  <PDBbind_Comment>  (21) 
nan

>  <PDBbind_Uniprot_Id>  (21) 
nan

>  <PDBbind_Protein_Name>  (21) 
nan

>  <PDBbind_-Logkd/Ki>  (21) 
nan

>  <PDBbind_Kd/Ki>  (21) 
nan

>  <PDBbind_Kd_Or_Ki_Or_Ic50>  (21) 
nan

>  <PDBbind_Relation>  (21) 
nan

>  <PDBbind_Value>  (21) 
nan

>  <PDBbind_Unit>  (21) 
nan

>  <PDBbind_Standard_Value>  (21) 
nan

>  <PDBbind_Standard_Unit>  (21) 
nan

>  <PDB_Chain>  (21) 
['A']

>  <Num_Ligs>  (21) 
[1.0]

>  <Orthosteric>  (21) 
[1.0]

>  <Allosteric>  (21) 
[0.0]

>  <Pockets_Assigned>  (21) 
['A']

>  <Multisite>  (21) 
[False]

>  <Same_Number>  (21) 
True

>  <Same_Binding_Site>  (21) 
True

>  <Same_Orientation>  (21) 
True

>  <Lig_Order_in_.pdb>  (21) 
Orthosteric

$$$$

     RDKit          2D

 16 18  0  0  0  0  0  0  0  0999 V2000
    1.2760    0.0000    0.0000 C   0  0  0  0  0  0  0  0  0  0  0  0
    0.3943    1.2135    0.0000 N   0  0  0  0  0  0  0  0  0  0  0  0
   -1.0323    0.7500    0.0000 C   0  0  0  0  0  0  0  0  0  0  0  0
   -1.0323   -0.7500    0.0000 C   0  0  0  0  0  0  0  0  0  0  0  0
    0.3943   -1.2135    0.0000 N   0  0  0  0  0  0  0  0  0  0  0  0
   -2.3313   -1.5000    0.0000 C   0  0  0  0  0  0  0  0  0  0  0  0
   -3.6304   -0.7500    0.0000 N   0  0  0  0  0  0  0  0  0  0  0  0
   -3.6304    0.7500    0.0000 C   0  0  0  0  0  0  0  0  0  0  0  0
   -2.3313    1.5000    0.0000 N   0  0  0  0  0  0  0  0  0  0  0  0
   -2.3313   -3.0000    0.0000 N   0  0  0  0  0  0  0  0  0  0  0  0
   -3.6304   -3.7500    0.0000 C   0  0  0  0  0  0  0  0  0  0  0  0
   -3.6304   -5.2500    0.0000 C   0  0  0  0  0  0  0  0  0  0  0  0
   -2.3313   -6.0000    0.0000 C   0  0  0  0  0  0  0  0  0  0  0  0
   -1.0323   -5.2500    0.0000 C   0  0  0  0  0  0  0  0  0  0  0  0
   -1.0323   -3.7500    0.0000 C   0  0  0  0  0  0  0  0  0  0  0  0
   -2.3313   -7.5000    0.0000 N   0  0  0  0  0  0  0  0  0  0  0  0
  1  2  1  0
  2  3  1  0
  3  4  2  0
  4  5  1  0
  4  6  1  0
  6  7  2  0
  7  8  1  0
  8  9  2  0
  6 10  1  0
 10 11  1  0
 11 12  1  0
 12 13  1  0
 13 14  1  0
 14 15  1  0
 13 16  1  0
  5  1  2  0
  9  3  1  0
 15 10  1  0
M  END
>  <Structure>  (22) 
2VNY

>  <Dataset>  (22) 
PDB

>  <Chain>  (22) 
A

>  <Spatial_Label>  (22) 
DFGin

>  <Dihedral_Label>  (22) 
BLAminus

>  <C_Helix_Label>  (22) 
Chelix-in

>  <Lig_ID>  (22) 
M02

>  <Lig_Entity_ID>  (22) 
2VNY_3

>  <Lig_Name>  (22) 
1-(9H-purin-6-yl)piperidin-4-amine

>  <Lig_Formula>  (22) 
C10H14N6

>  <Lig_SMILES>  (22) 
c1[nH]c2c(n1)c(ncn2)N3CCC(CC3)N

>  <Lig_MW>  (22) 
218.258

>  <Lig_ChEMBL_ID>  (22) 
['CHEMBL261260']

>  <Lig_DrugBank_ID>  (22) 
nan

>  <Occurence>  (22) 
1.0

>  <Lig_SMILES_Uncharged>  (22) 
NC1CCN(c2ncnc3[nH]cnc23)CC1

>  <Lig_Conformer>  (22) 
['NaN']

>  <Lig_Of_Interest>  (22) 
['Y']

>  <Lig_Completeness>  (22) 
[1.0]

>  <Lig_Occupancy>  (22) 
[1.0]

>  <Lig_RSCC>  (22) 
[0.926]

>  <Lig_RSR>  (22) 
[0.108]

>  <Lig_RMSZ_Bonds>  (22) 
[1.2]

>  <Lig_RMSZ_Angles>  (22) 
[1.21]

>  <Lig_Alt_Conf>  (22) 
0.0

>  <Title>  (22) 
Structure of PKA-PKB chimera complexed with (1-(9H-Purin-6-yl) piperidin-4-yl)amine

>  <Nonpolymer_Entity_Count>  (22) 
1.0

>  <Protein_Entity_Count>  (22) 
2.0

>  <Exp_Method>  (22) 
X-Ray Diffraction

>  <Cryst_Method>  (22) 
NaN; NaN

>  <Deposit_Date>  (22) 
2008-02-08

>  <Resolution>  (22) 
1.96

>  <DOI>  (22) 
https://doi.org/10.1021/JM701437D

>  <Source_Organism>  (22) 
Bos taurus

>  <R_Free>  (22) 
0.292

>  <Keywords>  (22) 
Transferase

>  <REMARK_280>  (22) 
 Crystal Solvent Content, Vs (%): 46.20 Matthews Coefficient, Vm (Angstroms**3/Da): 2.30 Crystallization Conditions: Null 

>  <REMARK_610>  (22) 
nan

>  <pH>  (22) 
nan

>  <Cryst_Technique>  (22) 
soaked

>  <Sequence>  (22) 
MGNAAAAKKGSEQESVKEFLAKAKEDFLKKWENPAQNTAHLDQFERIKTLGTGSFGRVMLVKHMETGNHYAMKILDKQKVVKLKQIEHTLNEKRILQAVNFPFLTKLEFSFKDNSNLYMVMEYAPGGEMFSHLRRIGRFSEPHARFYAAQIVLTFEYLHSLDLIYRDLKPENLMIDQQGYIKVTDFGFAKRVKGRTWTLCGTPEYLAPEIILSKGYNKAVDWWALGVLIYEMAAGYPPFFADQPIQIYEKIVSGKVRFPSHFSSDLKDLLRNLLQVDLTKRFGNLKNGVNDIKNHKWFATTDWIAIYQRKVEAPFIPKFKGPGDTSNFDDYEEEEIRVSINEKCGKEFSEF

>  <Sequence_Length>  (22) 
351.0

>  <Mutation_Count>  (22) 
4.0

>  <Gene_Name>  (22) 
nan

>  <MW>  (22) 
40.911

>  <Name>  (22) 
cAMP-Dependent Protein Kinase, Alpha-Catalytic Subunit

>  <Mutations>  (22) 
YES

>  <EC_Number>  (22) 
2.7.11.11

>  <Peptidic_Inhibitor>  (22) 
True

>  <Lig_Missing_Atoms>  (22) 
['No']

>  <PDBbind_Resolution>  (22) 
nan

>  <PDBbind_Release_Year>  (22) 
nan

>  <PDBbind_Comment>  (22) 
nan

>  <PDBbind_Uniprot_Id>  (22) 
nan

>  <PDBbind_Protein_Name>  (22) 
nan

>  <PDBbind_-Logkd/Ki>  (22) 
nan

>  <PDBbind_Kd/Ki>  (22) 
nan

>  <PDBbind_Kd_Or_Ki_Or_Ic50>  (22) 
nan

>  <PDBbind_Relation>  (22) 
nan

>  <PDBbind_Value>  (22) 
nan

>  <PDBbind_Unit>  (22) 
nan

>  <PDBbind_Standard_Value>  (22) 
nan

>  <PDBbind_Standard_Unit>  (22) 
nan

>  <PDB_Chain>  (22) 
['A']

>  <Num_Ligs>  (22) 
[1.0]

>  <Orthosteric>  (22) 
[1.0]

>  <Allosteric>  (22) 
[0.0]

>  <Pockets_Assigned>  (22) 
['A']

>  <Multisite>  (22) 
[False]

>  <Same_Number>  (22) 
True

>  <Same_Binding_Site>  (22) 
True

>  <Same_Orientation>  (22) 
True

>  <Lig_Order_in_.pdb>  (22) 
Orthosteric

$$$$

     RDKit          2D

 24 27  0  0  0  0  0  0  0  0999 V2000
    5.0766    6.6678    0.0000 C   0  0  0  0  0  0  0  0  0  0  0  0
    5.8715    7.9399    0.0000 C   0  0  0  0  0  0  0  0  0  0  0  0
    7.3706    7.8875    0.0000 C   0  0  0  0  0  0  0  0  0  0  0  0
    8.0748    6.5631    0.0000 C   0  0  0  0  0  0  0  0  0  0  0  0
    7.2799    5.2910    0.0000 C   0  0  0  0  0  0  0  0  0  0  0  0
    5.7808    5.3434    0.0000 C   0  0  0  0  0  0  0  0  0  0  0  0
    4.9859    4.0713    0.0000 C   0  0  0  0  0  0  0  0  0  0  0  0
    3.8712    5.0750    0.0000 C   0  0  0  0  0  0  0  0  0  0  0  0
    2.4446    4.6115    0.0000 C   0  0  0  0  0  0  0  0  0  0  0  0
    2.1328    3.1443    0.0000 N   0  0  0  0  0  0  0  0  0  0  0  0
    3.2475    2.1406    0.0000 C   0  0  0  0  0  0  0  0  0  0  0  0
    4.6741    2.6041    0.0000 C   0  0  0  0  0  0  0  0  0  0  0  0
    0.7062    2.6807    0.0000 C   0  0  0  0  0  0  0  0  0  0  0  0
    0.3943    1.2135    0.0000 C   0  0  0  0  0  0  0  0  0  0  0  0
    1.2760    0.0000    0.0000 C   0  0  0  0  0  0  0  0  0  0  0  0
    0.3943   -1.2135    0.0000 C   0  0  0  0  0  0  0  0  0  0  0  0
   -1.0323   -0.7500    0.0000 N   0  0  0  0  0  0  0  0  0  0  0  0
   -1.0323    0.7500    0.0000 C   0  0  0  0  0  0  0  0  0  0  0  0
   -2.1470    1.7537    0.0000 N   0  0  0  0  0  0  0  0  0  0  0  0
   -1.8351    3.2209    0.0000 C   0  0  0  0  0  0  0  0  0  0  0  0
   -0.4086    3.6844    0.0000 N   0  0  0  0  0  0  0  0  0  0  0  0
    6.3767    3.5094    0.0000 C   0  0  0  0  0  0  0  0  0  0  0  0
    6.5855    2.0240    0.0000 N   0  0  0  0  0  0  0  0  0  0  0  0
    8.1654    9.1596    0.0000 Cl  0  0  0  0  0  0  0  0  0  0  0  0
  1  2  2  0
  2  3  1  0
  3  4  2  0
  4  5  1  0
  5  6  2  0
  6  7  1  0
  7  8  1  0
  8  9  1  0
  9 10  1  0
 10 11  1  0
 11 12  1  0
 10 13  1  0
 13 14  2  0
 14 15  1  0
 15 16  2  0
 16 17  1  0
 17 18  1  0
 18 19  2  0
 19 20  1  0
 20 21  2  0
  7 22  1  0
 22 23  1  0
  3 24  1  0
  6  1  1  0
 12  7  1  0
 21 13  1  0
 18 14  1  0
M  END
>  <Structure>  (23) 
2VO0

>  <Dataset>  (23) 
PDB

>  <Chain>  (23) 
A

>  <Spatial_Label>  (23) 
DFGin

>  <Dihedral_Label>  (23) 
BLAminus

>  <C_Helix_Label>  (23) 
Chelix-in

>  <Lig_ID>  (23) 
M03

>  <Lig_Entity_ID>  (23) 
2VO0_6

>  <Lig_Name>  (23) 
1-[4-(4-chlorophenyl)-1-(7H-pyrrolo[2,3-d]pyrimidin-4-yl)piperidin-4-yl]methanamine

>  <Lig_Formula>  (23) 
C18H20ClN5

>  <Lig_SMILES>  (23) 
c1cc(ccc1C2(CCN(CC2)c3c4cc[nH]c4ncn3)CN)Cl

>  <Lig_MW>  (23) 
341.838

>  <Lig_ChEMBL_ID>  (23) 
['CHEMBL406863']

>  <Lig_DrugBank_ID>  (23) 
['DB08148']

>  <Occurence>  (23) 
1.0

>  <Lig_SMILES_Uncharged>  (23) 
NCC1(c2ccc(Cl)cc2)CCN(c2ncnc3[nH]ccc23)CC1

>  <Lig_Conformer>  (23) 
['NaN', 'NaN']

>  <Lig_Of_Interest>  (23) 
['Y', 'Y']

>  <Lig_Completeness>  (23) 
[1.0, 1.0]

>  <Lig_Occupancy>  (23) 
[1.0, 1.0]

>  <Lig_RSCC>  (23) 
[0.941, 0.978]

>  <Lig_RSR>  (23) 
[0.108, 0.084]

>  <Lig_RMSZ_Bonds>  (23) 
[0.89, 0.83]

>  <Lig_RMSZ_Angles>  (23) 
[0.85, 0.97]

>  <Lig_Alt_Conf>  (23) 
0.0

>  <Title>  (23) 
Structure of PKA-PKB chimera complexed with C-(4-(4-Chlorophenyl)-1-(7H-pyrrolo(2,3-d)pyrimidin-4-yl)piperidin-4-yl)methylamine

>  <Nonpolymer_Entity_Count>  (23) 
6.0

>  <Protein_Entity_Count>  (23) 
2.0

>  <Exp_Method>  (23) 
X-Ray Diffraction

>  <Cryst_Method>  (23) 
NaN; NaN

>  <Deposit_Date>  (23) 
2008-02-08

>  <Resolution>  (23) 
1.94

>  <DOI>  (23) 
https://doi.org/10.1021/JM701437D

>  <Source_Organism>  (23) 
Bos taurus

>  <R_Free>  (23) 
0.216

>  <Keywords>  (23) 
Transferase

>  <REMARK_280>  (23) 
 Crystal Solvent Content, Vs (%): 51.22 Matthews Coefficient, Vm (Angstroms**3/Da): 2.18 Crystallization Conditions: Null 

>  <REMARK_610>  (23) 
nan

>  <pH>  (23) 
nan

>  <Cryst_Technique>  (23) 
soaked

>  <Sequence>  (23) 
MGNAAAAKKGSEQESVKEFLAKAKEDFLKKWENPAQNTAHLDQFERIKTLGTGSFGRVMLVKHMETGNHYAMKILDKQKVVKLKQIEHTLNEKRILQAVNFPFLTKLEFSFKDNSNLYMVMEYAPGGEMFSHLRRIGRFSEPHARFYAAQIVLTFEYLHSLDLIYRDLKPENLMIDQQGYIKVTDFGFAKRVKGRTWTLCGTPEYLAPEIILSKGYNKAVDWWALGVLIYEMAAGYPPFFADQPIQIYEKIVSGKVRFPSHFSSDLKDLLRNLLQVDLTKRFGNLKNGVNDIKNHKWFATTDWIAIYQRKVEAPFIPKFKGPGDTSNFDDYEEEEIRVSINEKCGKEFSEF

>  <Sequence_Length>  (23) 
351.0

>  <Mutation_Count>  (23) 
4.0

>  <Gene_Name>  (23) 
nan

>  <MW>  (23) 
40.911

>  <Name>  (23) 
cAMP-Dependent Protein Kinase, Alpha-Catalytic Subunitprote

>  <Mutations>  (23) 
YES

>  <EC_Number>  (23) 
2.7.11.11

>  <Peptidic_Inhibitor>  (23) 
True

>  <Lig_Missing_Atoms>  (23) 
['No', 'No']

>  <PDBbind_Resolution>  (23) 
nan

>  <PDBbind_Release_Year>  (23) 
nan

>  <PDBbind_Comment>  (23) 
nan

>  <PDBbind_Uniprot_Id>  (23) 
nan

>  <PDBbind_Protein_Name>  (23) 
nan

>  <PDBbind_-Logkd/Ki>  (23) 
nan

>  <PDBbind_Kd/Ki>  (23) 
nan

>  <PDBbind_Kd_Or_Ki_Or_Ic50>  (23) 
nan

>  <PDBbind_Relation>  (23) 
nan

>  <PDBbind_Value>  (23) 
nan

>  <PDBbind_Unit>  (23) 
nan

>  <PDBbind_Standard_Value>  (23) 
nan

>  <PDBbind_Standard_Unit>  (23) 
nan

>  <PDB_Chain>  (23) 
['A']

>  <Num_Ligs>  (23) 
[2.0]

>  <Orthosteric>  (23) 
[1.0]

>  <Allosteric>  (23) 
[1.0]

>  <Pockets_Assigned>  (23) 
['A, X']

>  <Multisite>  (23) 
[True]

>  <Same_Number>  (23) 
True

>  <Same_Binding_Site>  (23) 
True

>  <Same_Orientation>  (23) 
True

>  <Lig_Order_in_.pdb>  (23) 
Orthosteric, Allosteric

$$$$

     RDKit          2D

 25 28  0  0  0  0  0  0  0  0999 V2000
    8.0748    6.5631    0.0000 C   0  0  0  0  0  0  0  0  0  0  0  0
    9.5739    6.5108    0.0000 C   0  0  0  0  0  0  0  0  0  0  0  0
   10.2781    5.1863    0.0000 C   0  0  0  0  0  0  0  0  0  0  0  0
    9.4832    3.9143    0.0000 C   0  0  0  0  0  0  0  0  0  0  0  0
    7.9841    3.9666    0.0000 C   0  0  0  0  0  0  0  0  0  0  0  0
    7.2799    5.2910    0.0000 C   0  0  0  0  0  0  0  0  0  0  0  0
    5.7808    5.3434    0.0000 C   0  0  0  0  0  0  0  0  0  0  0  0
    4.9859    4.0713    0.0000 C   0  0  0  0  0  0  0  0  0  0  0  0
    3.8712    5.0750    0.0000 C   0  0  0  0  0  0  0  0  0  0  0  0
    2.4446    4.6115    0.0000 C   0  0  0  0  0  0  0  0  0  0  0  0
    2.1328    3.1443    0.0000 N   0  0  0  0  0  0  0  0  0  0  0  0
    3.2475    2.1406    0.0000 C   0  0  0  0  0  0  0  0  0  0  0  0
    4.6741    2.6041    0.0000 C   0  0  0  0  0  0  0  0  0  0  0  0
    0.7062    2.6807    0.0000 C   0  0  0  0  0  0  0  0  0  0  0  0
    0.3943    1.2135    0.0000 C   0  0  0  0  0  0  0  0  0  0  0  0
    1.2760    0.0000    0.0000 C   0  0  0  0  0  0  0  0  0  0  0  0
    0.3943   -1.2135    0.0000 C   0  0  0  0  0  0  0  0  0  0  0  0
   -1.0323   -0.7500    0.0000 N   0  0  0  0  0  0  0  0  0  0  0  0
   -1.0323    0.7500    0.0000 C   0  0  0  0  0  0  0  0  0  0  0  0
   -2.1470    1.7537    0.0000 N   0  0  0  0  0  0  0  0  0  0  0  0
   -1.8351    3.2209    0.0000 C   0  0  0  0  0  0  0  0  0  0  0  0
   -0.4086    3.6844    0.0000 N   0  0  0  0  0  0  0  0  0  0  0  0
    6.3767    3.5094    0.0000 C   0  0  0  0  0  0  0  0  0  0  0  0
    6.5855    2.0240    0.0000 N   0  0  0  0  0  0  0  0  0  0  0  0
   11.7771    5.1340    0.0000 Cl  0  0  0  0  0  0  0  0  0  0  0  0
  1  2  2  0
  2  3  1  0
  3  4  2  0
  4  5  1  0
  5  6  2  0
  6  7  1  0
  7  8  1  0
  8  9  1  0
  9 10  1  0
 10 11  1  0
 11 12  1  0
 12 13  1  0
 11 14  1  0
 14 15  2  0
 15 16  1  0
 16 17  2  0
 17 18  1  0
 18 19  1  0
 19 20  2  0
 20 21  1  0
 21 22  2  0
  8 23  1  0
 23 24  1  0
  3 25  1  0
  6  1  1  0
 13  8  1  0
 22 14  1  0
 19 15  1  0
M  END
>  <Structure>  (24) 
2VO3

>  <Dataset>  (24) 
PDB

>  <Chain>  (24) 
A

>  <Spatial_Label>  (24) 
DFGin

>  <Dihedral_Label>  (24) 
BLAminus

>  <C_Helix_Label>  (24) 
Chelix-in

>  <Lig_ID>  (24) 
M04

>  <Lig_Entity_ID>  (24) 
2VO3_4

>  <Lig_Name>  (24) 
1-[4-(4-chlorobenzyl)-1-(7H-pyrrolo[2,3-d]pyrimidin-4-yl)piperidin-4-yl]methanamine

>  <Lig_Formula>  (24) 
C19H22ClN5

>  <Lig_SMILES>  (24) 
c1cc(ccc1CC2(CCN(CC2)c3c4cc[nH]c4ncn3)CN)Cl

>  <Lig_MW>  (24) 
355.864

>  <Lig_ChEMBL_ID>  (24) 
['CHEMBL260000']

>  <Lig_DrugBank_ID>  (24) 
['DB08149']

>  <Occurence>  (24) 
1.0

>  <Lig_SMILES_Uncharged>  (24) 
NCC1(Cc2ccc(Cl)cc2)CCN(c2ncnc3[nH]ccc23)CC1

>  <Lig_Conformer>  (24) 
['NaN']

>  <Lig_Of_Interest>  (24) 
['Y']

>  <Lig_Completeness>  (24) 
[1.0]

>  <Lig_Occupancy>  (24) 
[1.0]

>  <Lig_RSCC>  (24) 
[0.958]

>  <Lig_RSR>  (24) 
[0.129]

>  <Lig_RMSZ_Bonds>  (24) 
[0.89]

>  <Lig_RMSZ_Angles>  (24) 
[0.94]

>  <Lig_Alt_Conf>  (24) 
0.0

>  <Title>  (24) 
Structure of PKA-PKB chimera complexed with C-(4-(4-Chlorophenyl)-1-(7H-pyrrolo(2,3-d)pyrimidin-4-yl)piperidin-4-yl)methylamine

>  <Nonpolymer_Entity_Count>  (24) 
2.0

>  <Protein_Entity_Count>  (24) 
2.0

>  <Exp_Method>  (24) 
X-Ray Diffraction

>  <Cryst_Method>  (24) 
NaN; NaN

>  <Deposit_Date>  (24) 
2008-02-08

>  <Resolution>  (24) 
1.98

>  <DOI>  (24) 
https://doi.org/10.1021/JM701437D

>  <Source_Organism>  (24) 
Bos taurus

>  <R_Free>  (24) 
0.246

>  <Keywords>  (24) 
Transferase

>  <REMARK_280>  (24) 
 Crystal Solvent Content, Vs (%): 47.18 Matthews Coefficient, Vm (Angstroms**3/Da): 2.35 Crystallization Conditions: Null 

>  <REMARK_610>  (24) 
nan

>  <pH>  (24) 
nan

>  <Cryst_Technique>  (24) 
soaked

>  <Sequence>  (24) 
MGNAAAAKKGSEQESVKEFLAKAKEDFLKKWENPAQNTAHLDQFERIKTLGTGSFGRVMLVKHMETGNHYAMKILDKQKVVKLKQIEHTLNEKRILQAVNFPFLTKLEFSFKDNSNLYMVMEYAPGGEMFSHLRRIGRFSEPHARFYAAQIVLTFEYLHSLDLIYRDLKPENLMIDQQGYIKVTDFGFAKRVKGRTWTLCGTPEYLAPEIILSKGYNKAVDWWALGVLIYEMAAGYPPFFADQPIQIYEKIVSGKVRFPSHFSSDLKDLLRNLLQVDLTKRFGNLKNGVNDIKNHKWFATTDWIAIYQRKVEAPFIPKFKGPGDTSNFDDYEEEEIRVSINEKCGKEFSEF

>  <Sequence_Length>  (24) 
351.0

>  <Mutation_Count>  (24) 
4.0

>  <Gene_Name>  (24) 
nan

>  <MW>  (24) 
40.911

>  <Name>  (24) 
cAMP-Dependent Protein Kinase, Alpha-Catalytic Subunit

>  <Mutations>  (24) 
YES

>  <EC_Number>  (24) 
2.7.11.11

>  <Peptidic_Inhibitor>  (24) 
True

>  <Lig_Missing_Atoms>  (24) 
['No']

>  <PDBbind_Resolution>  (24) 
nan

>  <PDBbind_Release_Year>  (24) 
nan

>  <PDBbind_Comment>  (24) 
nan

>  <PDBbind_Uniprot_Id>  (24) 
nan

>  <PDBbind_Protein_Name>  (24) 
nan

>  <PDBbind_-Logkd/Ki>  (24) 
nan

>  <PDBbind_Kd/Ki>  (24) 
nan

>  <PDBbind_Kd_Or_Ki_Or_Ic50>  (24) 
nan

>  <PDBbind_Relation>  (24) 
nan

>  <PDBbind_Value>  (24) 
nan

>  <PDBbind_Unit>  (24) 
nan

>  <PDBbind_Standard_Value>  (24) 
nan

>  <PDBbind_Standard_Unit>  (24) 
nan

>  <PDB_Chain>  (24) 
['A']

>  <Num_Ligs>  (24) 
[1.0]

>  <Orthosteric>  (24) 
[1.0]

>  <Allosteric>  (24) 
[0.0]

>  <Pockets_Assigned>  (24) 
['A']

>  <Multisite>  (24) 
[False]

>  <Same_Number>  (24) 
True

>  <Same_Binding_Site>  (24) 
True

>  <Same_Orientation>  (24) 
True

>  <Lig_Order_in_.pdb>  (24) 
Orthosteric

$$$$

     RDKit          2D

 24 27  0  0  0  0  0  0  0  0999 V2000
    8.0748    6.5631    0.0000 C   0  0  0  0  0  0  0  0  0  0  0  0
    9.5739    6.5108    0.0000 C   0  0  0  0  0  0  0  0  0  0  0  0
   10.2781    5.1863    0.0000 C   0  0  0  0  0  0  0  0  0  0  0  0
    9.4832    3.9143    0.0000 C   0  0  0  0  0  0  0  0  0  0  0  0
    7.9841    3.9666    0.0000 C   0  0  0  0  0  0  0  0  0  0  0  0
    7.2799    5.2910    0.0000 C   0  0  0  0  0  0  0  0  0  0  0  0
    5.7808    5.3434    0.0000 C   0  0  0  0  0  0  0  0  0  0  0  0
    4.9859    4.0713    0.0000 C   0  0  0  0  0  0  0  0  0  0  0  0
    3.8712    5.0750    0.0000 C   0  0  0  0  0  0  0  0  0  0  0  0
    2.4446    4.6115    0.0000 C   0  0  0  0  0  0  0  0  0  0  0  0
    2.1328    3.1443    0.0000 N   0  0  0  0  0  0  0  0  0  0  0  0
    3.2475    2.1406    0.0000 C   0  0  0  0  0  0  0  0  0  0  0  0
    4.6741    2.6041    0.0000 C   0  0  0  0  0  0  0  0  0  0  0  0
    0.7062    2.6807    0.0000 C   0  0  0  0  0  0  0  0  0  0  0  0
    0.3943    1.2135    0.0000 C   0  0  0  0  0  0  0  0  0  0  0  0
    1.2760    0.0000    0.0000 C   0  0  0  0  0  0  0  0  0  0  0  0
    0.3943   -1.2135    0.0000 C   0  0  0  0  0  0  0  0  0  0  0  0
   -1.0323   -0.7500    0.0000 N   0  0  0  0  0  0  0  0  0  0  0  0
   -1.0323    0.7500    0.0000 C   0  0  0  0  0  0  0  0  0  0  0  0
   -2.1470    1.7537    0.0000 N   0  0  0  0  0  0  0  0  0  0  0  0
   -1.8351    3.2209    0.0000 C   0  0  0  0  0  0  0  0  0  0  0  0
   -0.4086    3.6844    0.0000 N   0  0  0  0  0  0  0  0  0  0  0  0
    6.3767    3.5094    0.0000 N   0  0  0  0  0  4  0  0  0  0  0  0
   11.7771    5.1340    0.0000 Cl  0  0  0  0  0  0  0  0  0  0  0  0
  1  2  2  0
  2  3  1  0
  3  4  2  0
  4  5  1  0
  5  6  2  0
  6  7  1  0
  7  8  1  0
  8  9  1  0
  9 10  1  0
 10 11  1  0
 11 12  1  0
 12 13  1  0
 11 14  1  0
 14 15  2  0
 15 16  1  0
 16 17  2  0
 17 18  1  0
 18 19  1  0
 19 20  2  0
 20 21  1  0
 21 22  2  0
  8 23  1  0
  3 24  1  0
  6  1  1  0
 13  8  1  0
 22 14  1  0
 19 15  1  0
M  CHG  1  23   1
M  END
>  <Structure>  (25) 
2VO6

>  <Dataset>  (25) 
PDB

>  <Chain>  (25) 
A

>  <Spatial_Label>  (25) 
DFGin

>  <Dihedral_Label>  (25) 
BLAminus

>  <C_Helix_Label>  (25) 
Chelix-in

>  <Lig_ID>  (25) 
M05

>  <Lig_Entity_ID>  (25) 
2VO6_4

>  <Lig_Name>  (25) 
4-(4-chlorobenzyl)-1-(7H-pyrrolo[2,3-d]pyrimidin-4-yl)piperidin-4-aminium

>  <Lig_Formula>  (25) 
C18H21ClN5

>  <Lig_SMILES>  (25) 
c1cc(ccc1CC2(CCN(CC2)c3c4cc[nH]c4ncn3)[NH3+])Cl

>  <Lig_MW>  (25) 
342.846

>  <Lig_ChEMBL_ID>  (25) 
nan

>  <Lig_DrugBank_ID>  (25) 
['DB08150']

>  <Occurence>  (25) 
2.0

>  <Lig_SMILES_Uncharged>  (25) 
NC1(Cc2ccc(Cl)cc2)CCN(c2ncnc3[nH]ccc23)CC1

>  <Lig_Conformer>  (25) 
['NaN']

>  <Lig_Of_Interest>  (25) 
['Y']

>  <Lig_Completeness>  (25) 
[1.0]

>  <Lig_Occupancy>  (25) 
[1.0]

>  <Lig_RSCC>  (25) 
[0.968]

>  <Lig_RSR>  (25) 
[0.115]

>  <Lig_RMSZ_Bonds>  (25) 
[0.9]

>  <Lig_RMSZ_Angles>  (25) 
[0.89]

>  <Lig_Alt_Conf>  (25) 
0.0

>  <Title>  (25) 
Structure of PKA-PKB chimera complexed with 4-(4-Chlorobenzyl)-1-(7H- pyrrolo(2,3-d)pyrimidin-4-yl)piperidin-4-ylamine

>  <Nonpolymer_Entity_Count>  (25) 
2.0

>  <Protein_Entity_Count>  (25) 
2.0

>  <Exp_Method>  (25) 
X-Ray Diffraction

>  <Cryst_Method>  (25) 
NaN; NaN

>  <Deposit_Date>  (25) 
2008-02-08

>  <Resolution>  (25) 
1.97

>  <DOI>  (25) 
https://doi.org/10.1021/JM701437D

>  <Source_Organism>  (25) 
Bos taurus

>  <R_Free>  (25) 
0.229

>  <Keywords>  (25) 
Transferase

>  <REMARK_280>  (25) 
 Crystal Solvent Content, Vs (%): 45.17 Matthews Coefficient, Vm (Angstroms**3/Da): 2.26 Crystallization Conditions: Null 

>  <REMARK_610>  (25) 
nan

>  <pH>  (25) 
nan

>  <Cryst_Technique>  (25) 
soaked

>  <Sequence>  (25) 
MGNAAAAKKGSEQESVKEFLAKAKEDFLKKWENPAQNTAHLDQFERIKTLGTGSFGRVMLVKHMETGNHYAMKILDKQKVVKLKQIEHTLNEKRILQAVNFPFLTKLEFSFKDNSNLYMVMEYAPGGEMFSHLRRIGRFSEPHARFYAAQIVLTFEYLHSLDLIYRDLKPENLMIDQQGYIKVTDFGFAKRVKGRTWTLCGTPEYLAPEIILSKGYNKAVDWWALGVLIYEMAAGYPPFFADQPIQIYEKIVSGKVRFPSHFSSDLKDLLRNLLQVDLTKRFGNLKNGVNDIKNHKWFATTDWIAIYQRKVEAPFIPKFKGPGDTSNFDDYEEEEIRVSINEKCGKEFSEF

>  <Sequence_Length>  (25) 
351.0

>  <Mutation_Count>  (25) 
4.0

>  <Gene_Name>  (25) 
nan

>  <MW>  (25) 
40.911

>  <Name>  (25) 
cAMP-Dependent Protein Kinase, Alpha-Catalytic Subunit

>  <Mutations>  (25) 
YES

>  <EC_Number>  (25) 
2.7.11.11

>  <Peptidic_Inhibitor>  (25) 
True

>  <Lig_Missing_Atoms>  (25) 
['No']

>  <PDBbind_Resolution>  (25) 
nan

>  <PDBbind_Release_Year>  (25) 
nan

>  <PDBbind_Comment>  (25) 
nan

>  <PDBbind_Uniprot_Id>  (25) 
nan

>  <PDBbind_Protein_Name>  (25) 
nan

>  <PDBbind_-Logkd/Ki>  (25) 
nan

>  <PDBbind_Kd/Ki>  (25) 
nan

>  <PDBbind_Kd_Or_Ki_Or_Ic50>  (25) 
nan

>  <PDBbind_Relation>  (25) 
nan

>  <PDBbind_Value>  (25) 
nan

>  <PDBbind_Unit>  (25) 
nan

>  <PDBbind_Standard_Value>  (25) 
nan

>  <PDBbind_Standard_Unit>  (25) 
nan

>  <PDB_Chain>  (25) 
['A']

>  <Num_Ligs>  (25) 
[1.0]

>  <Orthosteric>  (25) 
[1.0]

>  <Allosteric>  (25) 
[0.0]

>  <Pockets_Assigned>  (25) 
['A']

>  <Multisite>  (25) 
[True]

>  <Same_Number>  (25) 
False

>  <Same_Binding_Site>  (25) 
True

>  <Same_Orientation>  (25) 
True

>  <Lig_Order_in_.pdb>  (25) 
Orthosteric

$$$$

     RDKit          2D

 24 27  0  0  0  0  0  0  0  0999 V2000
    8.0748    6.5631    0.0000 C   0  0  0  0  0  0  0  0  0  0  0  0
    9.5739    6.5108    0.0000 C   0  0  0  0  0  0  0  0  0  0  0  0
   10.2781    5.1863    0.0000 C   0  0  0  0  0  0  0  0  0  0  0  0
    9.4832    3.9143    0.0000 C   0  0  0  0  0  0  0  0  0  0  0  0
    7.9841    3.9666    0.0000 C   0  0  0  0  0  0  0  0  0  0  0  0
    7.2799    5.2910    0.0000 C   0  0  0  0  0  0  0  0  0  0  0  0
    5.7808    5.3434    0.0000 C   0  0  0  0  0  0  0  0  0  0  0  0
    4.9859    4.0713    0.0000 C   0  0  0  0  0  0  0  0  0  0  0  0
    3.8712    5.0750    0.0000 C   0  0  0  0  0  0  0  0  0  0  0  0
    2.4446    4.6115    0.0000 C   0  0  0  0  0  0  0  0  0  0  0  0
    2.1328    3.1443    0.0000 N   0  0  0  0  0  0  0  0  0  0  0  0
    3.2475    2.1406    0.0000 C   0  0  0  0  0  0  0  0  0  0  0  0
    4.6741    2.6041    0.0000 C   0  0  0  0  0  0  0  0  0  0  0  0
    0.7062    2.6807    0.0000 C   0  0  0  0  0  0  0  0  0  0  0  0
    0.3943    1.2135    0.0000 C   0  0  0  0  0  0  0  0  0  0  0  0
    1.2760    0.0000    0.0000 C   0  0  0  0  0  0  0  0  0  0  0  0
    0.3943   -1.2135    0.0000 C   0  0  0  0  0  0  0  0  0  0  0  0
   -1.0323   -0.7500    0.0000 N   0  0  0  0  0  0  0  0  0  0  0  0
   -1.0323    0.7500    0.0000 C   0  0  0  0  0  0  0  0  0  0  0  0
   -2.1470    1.7537    0.0000 N   0  0  0  0  0  0  0  0  0  0  0  0
   -1.8351    3.2209    0.0000 C   0  0  0  0  0  0  0  0  0  0  0  0
   -0.4086    3.6844    0.0000 N   0  0  0  0  0  0  0  0  0  0  0  0
    6.3767    3.5094    0.0000 N   0  0  0  0  0  4  0  0  0  0  0  0
   11.7771    5.1340    0.0000 Cl  0  0  0  0  0  0  0  0  0  0  0  0
  1  2  2  0
  2  3  1  0
  3  4  2  0
  4  5  1  0
  5  6  2  0
  6  7  1  0
  7  8  1  0
  8  9  1  0
  9 10  1  0
 10 11  1  0
 11 12  1  0
 12 13  1  0
 11 14  1  0
 14 15  2  0
 15 16  1  0
 16 17  2  0
 17 18  1  0
 18 19  1  0
 19 20  2  0
 20 21  1  0
 21 22  2  0
  8 23  1  0
  3 24  1  0
  6  1  1  0
 13  8  1  0
 22 14  1  0
 19 15  1  0
M  CHG  1  23   1
M  END
>  <Structure>  (26) 
2VO7

>  <Dataset>  (26) 
PDB

>  <Chain>  (26) 
A

>  <Spatial_Label>  (26) 
DFGin

>  <Dihedral_Label>  (26) 
BLAminus

>  <C_Helix_Label>  (26) 
Chelix-in

>  <Lig_ID>  (26) 
M05

>  <Lig_Entity_ID>  (26) 
2VO7_3

>  <Lig_Name>  (26) 
4-(4-chlorobenzyl)-1-(7H-pyrrolo[2,3-d]pyrimidin-4-yl)piperidin-4-aminium

>  <Lig_Formula>  (26) 
C18H21ClN5

>  <Lig_SMILES>  (26) 
c1cc(ccc1CC2(CCN(CC2)c3c4cc[nH]c4ncn3)[NH3+])Cl

>  <Lig_MW>  (26) 
342.846

>  <Lig_ChEMBL_ID>  (26) 
nan

>  <Lig_DrugBank_ID>  (26) 
['DB08150']

>  <Occurence>  (26) 
2.0

>  <Lig_SMILES_Uncharged>  (26) 
NC1(Cc2ccc(Cl)cc2)CCN(c2ncnc3[nH]ccc23)CC1

>  <Lig_Conformer>  (26) 
['NaN', 'NaN']

>  <Lig_Of_Interest>  (26) 
['Y', 'Y']

>  <Lig_Completeness>  (26) 
[1.0, 1.0]

>  <Lig_Occupancy>  (26) 
[1.0, 1.0]

>  <Lig_RSCC>  (26) 
[0.669, 0.9]

>  <Lig_RSR>  (26) 
[0.259, 0.126]

>  <Lig_RMSZ_Bonds>  (26) 
[0.79, 1.05]

>  <Lig_RMSZ_Angles>  (26) 
[1.09, 0.89]

>  <Lig_Alt_Conf>  (26) 
0.0

>  <Title>  (26) 
Structure of PKA complexed with 4-(4-Chlorobenzyl)-1-(7H-pyrrolo(2,3- d)pyrimidin-4-yl)piperidin-4-ylamine

>  <Nonpolymer_Entity_Count>  (26) 
2.0

>  <Protein_Entity_Count>  (26) 
2.0

>  <Exp_Method>  (26) 
X-Ray Diffraction

>  <Cryst_Method>  (26) 
NaN; NaN

>  <Deposit_Date>  (26) 
2008-02-08

>  <Resolution>  (26) 
1.98

>  <DOI>  (26) 
https://doi.org/10.1021/JM701437D

>  <Source_Organism>  (26) 
Bos taurus

>  <R_Free>  (26) 
0.241

>  <Keywords>  (26) 
Transferase

>  <REMARK_280>  (26) 
 Crystal Solvent Content, Vs (%): 46.89 Matthews Coefficient, Vm (Angstroms**3/Da): 2.33 Crystallization Conditions: Null 

>  <REMARK_610>  (26) 
nan

>  <pH>  (26) 
nan

>  <Cryst_Technique>  (26) 
soaked

>  <Sequence>  (26) 
MGNAAAAKKGSEQESVKEFLAKAKEDFLKKWENPAQNTAHLDQFERIKTLGTGSFGRVMLVKHMETGNHYAMKILDKQKVVKLKQIEHTLNEKRILQAVNFPFLVKLEFSFKDNSNLYMVMEYVPGGEMFSHLRRIGRFSEPHARFYAAQIVLTFEYLHSLDLIYRDLKPENLLIDQQGYIQVTDFGFAKRVKGRTWTLCGTPEYLAPEIILSKGYNKAVDWWALGVLIYEMAAGYPPFFADQPIQIYEKIVSGKVRFPSHFSSDLKDLLRNLLQVDLTKRFGNLKNGVNDIKNHKWFATTDWIAIYQRKVEAPFIPKFKGPGDTSNFDDYEEEEIRVSINEKCGKEFSEF

>  <Sequence_Length>  (26) 
351.0

>  <Mutation_Count>  (26) 
0.0

>  <Gene_Name>  (26) 
nan

>  <MW>  (26) 
40.838

>  <Name>  (26) 
cAMP-Dependent Protein Kinase, Alpha-Catalytic Subunit

>  <Mutations>  (26) 
nan

>  <EC_Number>  (26) 
2.7.11.11

>  <Peptidic_Inhibitor>  (26) 
True

>  <Lig_Missing_Atoms>  (26) 
['No', 'No']

>  <PDBbind_Resolution>  (26) 
1.98

>  <PDBbind_Release_Year>  (26) 
2008.0

>  <PDBbind_Comment>  (26) 
IC50=168+/-36nM

>  <PDBbind_Uniprot_Id>  (26) 
P00517

>  <PDBbind_Protein_Name>  (26) 
CAMP-DEPENDENT PROTEIN KINASE, ALPHA-CATALYTIC

>  <PDBbind_-Logkd/Ki>  (26) 
6.77

>  <PDBbind_Kd/Ki>  (26) 
IC=168nM

>  <PDBbind_Kd_Or_Ki_Or_Ic50>  (26) 
IC50

>  <PDBbind_Relation>  (26) 
=

>  <PDBbind_Value>  (26) 
168.0

>  <PDBbind_Unit>  (26) 
nM

>  <PDBbind_Standard_Value>  (26) 
168.0

>  <PDBbind_Standard_Unit>  (26) 
nM

>  <PDB_Chain>  (26) 
['A']

>  <Num_Ligs>  (26) 
[2.0]

>  <Orthosteric>  (26) 
[1.0]

>  <Allosteric>  (26) 
[1.0]

>  <Pockets_Assigned>  (26) 
['X, A']

>  <Multisite>  (26) 
[True]

>  <Same_Number>  (26) 
False

>  <Same_Binding_Site>  (26) 
True

>  <Same_Orientation>  (26) 
True

>  <Lig_Order_in_.pdb>  (26) 
Allosteric, Orthosteric

$$$$

     RDKit          2D

 69 71  0  0  0  0  0  0  0  0999 V2000
   -3.1901  -38.0897    0.0000 H   0  0  0  0  0  0  0  0  0  0  0  0
   -2.5800  -36.7194    0.0000 N   0  0  0  0  0  0  0  0  0  0  0  0
   -3.4616  -35.5059    0.0000 C   0  0  0  0  0  0  0  0  0  0  0  0
   -4.9534  -35.6627    0.0000 N   0  0  0  0  0  0  0  0  0  0  0  0
   -2.8515  -34.1356    0.0000 N   0  0  0  0  0  0  0  0  0  0  0  0
   -3.7332  -32.9220    0.0000 C   0  0  0  0  0  0  0  0  0  0  0  0
   -3.1231  -31.5517    0.0000 C   0  0  0  0  0  0  0  0  0  0  0  0
   -4.0048  -30.3382    0.0000 C   0  0  0  0  0  0  0  0  0  0  0  0
   -3.3947  -28.9679    0.0000 C   0  0  0  0  0  0  0  0  0  0  0  0
   -1.9029  -28.8111    0.0000 C   0  0  0  0  0  0  0  0  0  0  0  0
   -1.2928  -27.4408    0.0000 O   0  0  0  0  0  0  0  0  0  0  0  0
   -1.0212  -30.0246    0.0000 N   0  0  0  0  0  0  0  0  0  0  0  0
   -4.2764  -27.7543    0.0000 N   0  0  0  0  0  0  0  0  0  0  0  0
   -3.6663  -26.3840    0.0000 C   0  0  0  0  0  0  0  0  0  0  0  0
   -2.1745  -26.2272    0.0000 O   0  0  0  0  0  0  0  0  0  0  0  0
   -4.5479  -25.1705    0.0000 C   0  0  0  0  0  0  0  0  0  0  0  0
   -6.0397  -25.3273    0.0000 C   0  0  0  0  0  0  0  0  0  0  0  0
   -6.6498  -26.6976    0.0000 C   0  0  0  0  0  0  0  0  0  0  0  0
   -8.1416  -26.8544    0.0000 C   0  0  0  0  0  0  0  0  0  0  0  0
   -8.7517  -28.2247    0.0000 N   0  0  0  0  0  0  0  0  0  0  0  0
  -10.2435  -28.3815    0.0000 C   0  0  0  0  0  0  0  0  0  0  0  0
  -10.8536  -29.7518    0.0000 N   0  0  0  0  0  0  0  0  0  0  0  0
  -12.3454  -29.9086    0.0000 H   0  0  0  0  0  0  0  0  0  0  0  0
  -11.1252  -27.1680    0.0000 N   0  0  0  0  0  0  0  0  0  0  0  0
   -3.9378  -23.8002    0.0000 N   0  0  0  0  0  0  0  0  0  0  0  0
   -2.4461  -23.6434    0.0000 C   0  0  0  0  0  0  0  0  0  0  0  0
   -1.5644  -24.8569    0.0000 O   0  0  0  0  0  0  0  0  0  0  0  0
   -1.8359  -22.2731    0.0000 C   0  0  0  0  0  0  0  0  0  0  0  0
   -0.3442  -22.1163    0.0000 C   0  0  0  0  0  0  0  0  0  0  0  0
    0.2659  -20.7460    0.0000 C   0  0  0  0  0  0  0  0  0  0  0  0
    1.7577  -20.5892    0.0000 C   0  0  0  0  0  0  0  0  0  0  0  0
    2.3678  -19.2189    0.0000 C   0  0  0  0  0  0  0  0  0  0  0  0
    3.8596  -19.0621    0.0000 N   0  0  0  0  0  0  0  0  0  0  0  0
    4.4697  -17.6917    0.0000 C   0  0  0  0  0  0  0  0  0  0  0  0
    3.5880  -16.4782    0.0000 O   0  0  0  0  0  0  0  0  0  0  0  0
    5.9615  -17.5350    0.0000 C   0  0  0  0  0  0  0  0  0  0  0  0
    6.8432  -18.7485    0.0000 C   0  0  0  0  0  0  0  0  0  0  0  0
    6.2331  -20.1188    0.0000 C   0  0  0  0  0  0  0  0  0  0  0  0
    7.1148  -21.3323    0.0000 C   0  0  0  0  0  0  0  0  0  0  0  0
    6.5046  -22.7026    0.0000 C   0  0  0  0  0  0  0  0  0  0  0  0
    7.3863  -23.9162    0.0000 N   0  0  0  0  0  0  0  0  0  0  0  0
    6.5716  -16.1646    0.0000 N   0  0  0  0  0  0  0  0  0  0  0  0
    5.6899  -14.9511    0.0000 C   0  0  0  0  0  0  0  0  0  0  0  0
    4.1981  -15.1079    0.0000 O   0  0  0  0  0  0  0  0  0  0  0  0
    6.3000  -13.5808    0.0000 C   0  0  0  0  0  0  0  0  0  0  0  0
    5.4184  -12.3673    0.0000 C   0  0  0  0  0  0  0  0  0  0  0  0
    6.0285  -10.9969    0.0000 C   0  0  0  0  0  0  0  0  0  0  0  0
    5.1468   -9.7834    0.0000 C   0  0  0  0  0  0  0  0  0  0  0  0
    5.7569   -8.4131    0.0000 C   0  0  0  0  0  0  0  0  0  0  0  0
    4.8752   -7.1996    0.0000 N   0  0  0  0  0  0  0  0  0  0  0  0
    5.4853   -5.8293    0.0000 C   0  0  0  0  0  0  0  0  0  0  0  0
    6.9771   -5.6725    0.0000 O   0  0  0  0  0  0  0  0  0  0  0  0
    4.6036   -4.6157    0.0000 C   0  0  0  0  0  0  0  0  0  0  0  0
    5.0672   -3.1891    0.0000 C   0  0  0  0  0  0  0  0  0  0  0  0
    3.8536   -2.3075    0.0000 C   0  0  0  0  0  0  0  0  0  0  0  0
    2.6401   -3.1891    0.0000 C   0  0  0  0  0  0  0  0  0  0  0  0
    3.1036   -4.6157    0.0000 O   0  0  0  0  0  0  0  0  0  0  0  0
    1.2135   -2.7256    0.0000 N   0  0  0  0  0  0  0  0  0  0  0  0
   -0.0000   -3.6073    0.0000 C   0  0  0  0  0  0  0  0  0  0  0  0
   -1.2135   -2.7256    0.0000 N   0  0  0  0  0  0  0  0  0  0  0  0
   -0.7500   -1.2990    0.0000 C   0  0  0  0  0  0  0  0  0  0  0  0
    0.7500   -1.2990    0.0000 C   0  0  0  0  0  0  0  0  0  0  0  0
    1.5000    0.0000    0.0000 N   0  0  0  0  0  0  0  0  0  0  0  0
    0.7500    1.2990    0.0000 C   0  0  0  0  0  0  0  0  0  0  0  0
   -0.7500    1.2990    0.0000 N   0  0  0  0  0  0  0  0  0  0  0  0
   -1.5000    0.0000    0.0000 C   0  0  0  0  0  0  0  0  0  0  0  0
   -3.0000    0.0000    0.0000 N   0  0  0  0  0  0  0  0  0  0  0  0
    3.8536   -0.8075    0.0000 O   0  0  0  0  0  0  0  0  0  0  0  0
    6.4937   -2.7256    0.0000 O   0  0  0  0  0  0  0  0  0  0  0  0
  1  2  1  0
  2  3  2  0
  3  4  1  0
  3  5  1  0
  5  6  1  0
  6  7  1  0
  7  8  1  0
  9  8  1  1
  9 10  1  0
 10 11  2  0
 10 12  1  0
  9 13  1  0
 13 14  1  0
 14 15  2  0
 14 16  1  0
 16 17  1  1
 17 18  1  0
 18 19  1  0
 19 20  1  0
 20 21  1  0
 21 22  2  0
 22 23  1  0
 21 24  1  0
 16 25  1  0
 25 26  1  0
 26 27  2  0
 26 28  1  0
 28 29  1  0
 29 30  1  0
 30 31  1  0
 31 32  1  0
 32 33  1  0
 33 34  1  0
 34 35  2  0
 34 36  1  0
 36 37  1  6
 37 38  1  0
 38 39  1  0
 39 40  1  0
 40 41  1  0
 36 42  1  0
 42 43  1  0
 43 44  2  0
 43 45  1  0
 45 46  1  0
 46 47  1  0
 47 48  1  0
 48 49  1  0
 49 50  1  0
 50 51  1  0
 51 52  2  0
 53 51  1  1
 53 54  1  0
 54 55  1  0
 55 56  1  0
 56 57  1  0
 56 58  1  1
 58 59  1  0
 59 60  2  0
 60 61  1  0
 61 62  2  0
 62 63  1  0
 63 64  2  0
 64 65  1  0
 65 66  2  0
 66 67  1  0
 55 68  1  6
 54 69  1  6
 57 53  1  0
 62 58  1  0
 66 61  1  0
M  END
>  <Structure>  (27) 
3AG9

>  <Dataset>  (27) 
PDB

>  <Chain>  (27) 
['A', 'B']

>  <Spatial_Label>  (27) 
DFGin

>  <Dihedral_Label>  (27) 
BLAminus

>  <C_Helix_Label>  (27) 
['Chelix-out', 'Chelix-in']

>  <Lig_ID>  (27) 
A02

>  <Lig_Entity_ID>  (27) 
3AG9_2

>  <Lig_Name>  (27) 
(10R,20R,23R)-10-(4-aminobutyl)-1-[(2S,3S,4R,5R)-5-(6-amino-9H-purin-9-yl)-3,4-dihydroxytetrahydrofuran-2-yl]-20,23-bis(3-carbamimidamidopropyl)-1,8,11,18,21-pentaoxo-2,9,12,19,22-pentaazatetracosan-24-amide

>  <Lig_Formula>  (27) 
C40H70N18O9

>  <Lig_SMILES>  (27) 
[H]/N=C(\N)/NCCC[C@H](C(=O)N)NC(=O)[C@@H](CCCN/C(=N/[H])/N)NC(=O)CCCCCNC(=O)[C@@H](CCCCN)NC(=O)CCCCCNC(=O)[C@@H]1[C@H]([C@H]([C@@H](O1)n2cnc3c2ncnc3N)O)O

>  <Lig_MW>  (27) 
947.099

>  <Lig_ChEMBL_ID>  (27) 
['CHEMBL297394']

>  <Lig_DrugBank_ID>  (27) 
nan

>  <Occurence>  (27) 
1.0

>  <Lig_SMILES_Uncharged>  (27) 
[H]/N=C(\N)NCCC[C@@H](NC(=O)[C@@H](CCCN/C(N)=N/[H])NC(=O)CCCCCNC(=O)[C@@H](CCCCN)NC(=O)CCCCCNC(=O)[C@H]1O[C@@H](n2cnc3c(N)ncnc32)[C@H](O)[C@@H]1O)C(N)=O

>  <Lig_Conformer>  (27) 
['NaN']

>  <Lig_Of_Interest>  (27) 
['Y']

>  <Lig_Completeness>  (27) 
[1.0]

>  <Lig_Occupancy>  (27) 
[1.0]

>  <Lig_RSCC>  (27) 
[0.85]

>  <Lig_RSR>  (27) 
[0.208]

>  <Lig_RMSZ_Bonds>  (27) 
[0.87]

>  <Lig_RMSZ_Angles>  (27) 
[0.93]

>  <Lig_Alt_Conf>  (27) 
0.0

>  <Title>  (27) 
Complex of PKA with the bisubstrate protein kinase inhibitor ARC-1012

>  <Nonpolymer_Entity_Count>  (27) 
1.0

>  <Protein_Entity_Count>  (27) 
2.0

>  <Exp_Method>  (27) 
X-Ray Diffraction

>  <Cryst_Method>  (27) 
Vapor Diffusion, Hanging Drop; Mes-Bis-Tris, Licl, Meoh, pH 6.5, Vapor Diffusion, Hanging Drop, Temperature 277K

>  <Deposit_Date>  (27) 
2010-03-26

>  <Resolution>  (27) 
2.0

>  <DOI>  (27) 
https://doi.org/10.1016/j.jmb.2010.08.028

>  <Source_Organism>  (27) 
Bos taurus

>  <R_Free>  (27) 
0.246

>  <Keywords>  (27) 
Transferase/Transferase Inhibitor

>  <REMARK_280>  (27) 
 Crystal Solvent Content, Vs (%): 47.06 Matthews Coefficient, Vm (Angstroms**3/Da): 2.32 Crystallization Conditions: Mes-Bis-Tris, Licl, Meoh, pH 6.5, Vapor Diffusion, Hanging Drop, Temperature 277K 

>  <REMARK_610>  (27) 
nan

>  <pH>  (27) 
6.5

>  <Cryst_Technique>  (27) 
co-crystallized

>  <Sequence>  (27) 
MGNAAAAKKGSEQESVKEFLAKAKEDFLKKWENPAQNTAHLDQFERIKTLGTGSFGRVMLVKHMETGNHYAMKILDKQKVVKLKQIEHTLNEKRILQAVNFPFLVKLEFSFKDNSNLYMVMEYVPGGEMFSHLRRIGRFSEPHARFYAAQIVLTFEYLHSLDLIYRDLKPENLLIDQQGYIQVTDFGFAKRVKGRTWTLCGTPEYLAPEIILSKGYNKAVDWWALGVLIYEMAAGYPPFFADQPIQIYEKIVSGKVRFPSHFSSDLKDLLRNLLQVDLTKRFGNLKNGVNDIKNHKWFATTDWIAIYQRKVEAPFIPKFKGPGDTSNFDDYEEEEIRVSINEKCGKEFSEF

>  <Sequence_Length>  (27) 
351.0

>  <Mutation_Count>  (27) 
0.0

>  <Gene_Name>  (27) 
PKACA

>  <MW>  (27) 
40.838

>  <Name>  (27) 
cAMP-Dependent Protein Kinase Catalytic Subunit Alpha

>  <Mutations>  (27) 
nan

>  <EC_Number>  (27) 
2.7.11.11

>  <Peptidic_Inhibitor>  (27) 
False

>  <Lig_Missing_Atoms>  (27) 
['No']

>  <PDBbind_Resolution>  (27) 
2.0

>  <PDBbind_Release_Year>  (27) 
2010.0

>  <PDBbind_Comment>  (27) 
ligand is compound ARC-1012; IC50=54nM

>  <PDBbind_Uniprot_Id>  (27) 
P00517

>  <PDBbind_Protein_Name>  (27) 
CAMP-DEPENDENT PROTEIN KINASE

>  <PDBbind_-Logkd/Ki>  (27) 
8.05

>  <PDBbind_Kd/Ki>  (27) 
Ki=9nM

>  <PDBbind_Kd_Or_Ki_Or_Ic50>  (27) 
Ki

>  <PDBbind_Relation>  (27) 
=

>  <PDBbind_Value>  (27) 
9.0

>  <PDBbind_Unit>  (27) 
nM

>  <PDBbind_Standard_Value>  (27) 
9.0

>  <PDBbind_Standard_Unit>  (27) 
nM

>  <PDB_Chain>  (27) 
['B', 'A']

>  <Num_Ligs>  (27) 
[1.0, 0.0]

>  <Orthosteric>  (27) 
[1.0, 0.0]

>  <Allosteric>  (27) 
[0.0, 0.0]

>  <Pockets_Assigned>  (27) 
['A', nan]

>  <Multisite>  (27) 
[False, False]

>  <Same_Number>  (27) 
False

>  <Same_Binding_Site>  (27) 
True

>  <Same_Orientation>  (27) 
True

>  <Lig_Order_in_.pdb>  (27) 
Orthosteric; nan

$$$$

     RDKit          2D

 65 67  0  0  0  0  0  0  0  0999 V2000
   -3.1901  -38.0897    0.0000 H   0  0  0  0  0  0  0  0  0  0  0  0
   -2.5800  -36.7194    0.0000 N   0  0  0  0  0  0  0  0  0  0  0  0
   -3.4616  -35.5059    0.0000 C   0  0  0  0  0  0  0  0  0  0  0  0
   -4.9534  -35.6627    0.0000 N   0  0  0  0  0  0  0  0  0  0  0  0
   -2.8515  -34.1356    0.0000 N   0  0  0  0  0  0  0  0  0  0  0  0
   -3.7332  -32.9220    0.0000 C   0  0  0  0  0  0  0  0  0  0  0  0
   -3.1231  -31.5517    0.0000 C   0  0  0  0  0  0  0  0  0  0  0  0
   -4.0048  -30.3382    0.0000 C   0  0  0  0  0  0  0  0  0  0  0  0
   -3.3947  -28.9679    0.0000 C   0  0  0  0  0  0  0  0  0  0  0  0
   -1.9029  -28.8111    0.0000 C   0  0  0  0  0  0  0  0  0  0  0  0
   -1.2928  -27.4408    0.0000 O   0  0  0  0  0  0  0  0  0  0  0  0
   -1.0212  -30.0246    0.0000 N   0  0  0  0  0  0  0  0  0  0  0  0
   -4.2764  -27.7543    0.0000 N   0  0  0  0  0  0  0  0  0  0  0  0
   -3.6663  -26.3840    0.0000 C   0  0  0  0  0  0  0  0  0  0  0  0
   -2.1745  -26.2272    0.0000 O   0  0  0  0  0  0  0  0  0  0  0  0
   -4.5479  -25.1705    0.0000 C   0  0  0  0  0  0  0  0  0  0  0  0
   -6.0397  -25.3273    0.0000 C   0  0  0  0  0  0  0  0  0  0  0  0
   -6.6498  -26.6976    0.0000 C   0  0  0  0  0  0  0  0  0  0  0  0
   -8.1416  -26.8544    0.0000 C   0  0  0  0  0  0  0  0  0  0  0  0
   -8.7517  -28.2247    0.0000 N   0  0  0  0  0  0  0  0  0  0  0  0
  -10.2435  -28.3815    0.0000 C   0  0  0  0  0  0  0  0  0  0  0  0
  -10.8536  -29.7518    0.0000 N   0  0  0  0  0  0  0  0  0  0  0  0
  -12.3454  -29.9086    0.0000 H   0  0  0  0  0  0  0  0  0  0  0  0
  -11.1252  -27.1680    0.0000 N   0  0  0  0  0  0  0  0  0  0  0  0
   -3.9378  -23.8002    0.0000 N   0  0  0  0  0  0  0  0  0  0  0  0
   -2.4461  -23.6434    0.0000 C   0  0  0  0  0  0  0  0  0  0  0  0
   -1.5644  -24.8569    0.0000 O   0  0  0  0  0  0  0  0  0  0  0  0
   -1.8359  -22.2731    0.0000 C   0  0  0  0  0  0  0  0  0  0  0  0
   -0.3442  -22.1163    0.0000 C   0  0  0  0  0  0  0  0  0  0  0  0
    0.2659  -20.7460    0.0000 C   0  0  0  0  0  0  0  0  0  0  0  0
    1.7577  -20.5892    0.0000 C   0  0  0  0  0  0  0  0  0  0  0  0
    2.3678  -19.2189    0.0000 C   0  0  0  0  0  0  0  0  0  0  0  0
    3.8596  -19.0621    0.0000 N   0  0  0  0  0  0  0  0  0  0  0  0
    4.4697  -17.6917    0.0000 C   0  0  0  0  0  0  0  0  0  0  0  0
    3.5880  -16.4782    0.0000 O   0  0  0  0  0  0  0  0  0  0  0  0
    5.9615  -17.5350    0.0000 C   0  0  0  0  0  0  0  0  0  0  0  0
    6.8432  -18.7485    0.0000 C   0  0  0  0  0  0  0  0  0  0  0  0
    6.5716  -16.1646    0.0000 N   0  0  0  0  0  0  0  0  0  0  0  0
    5.6899  -14.9511    0.0000 C   0  0  0  0  0  0  0  0  0  0  0  0
    4.1981  -15.1079    0.0000 O   0  0  0  0  0  0  0  0  0  0  0  0
    6.3000  -13.5808    0.0000 C   0  0  0  0  0  0  0  0  0  0  0  0
    5.4184  -12.3673    0.0000 C   0  0  0  0  0  0  0  0  0  0  0  0
    6.0285  -10.9969    0.0000 C   0  0  0  0  0  0  0  0  0  0  0  0
    5.1468   -9.7834    0.0000 C   0  0  0  0  0  0  0  0  0  0  0  0
    5.7569   -8.4131    0.0000 C   0  0  0  0  0  0  0  0  0  0  0  0
    4.8752   -7.1996    0.0000 N   0  0  0  0  0  0  0  0  0  0  0  0
    5.4853   -5.8293    0.0000 C   0  0  0  0  0  0  0  0  0  0  0  0
    6.9771   -5.6725    0.0000 O   0  0  0  0  0  0  0  0  0  0  0  0
    4.6036   -4.6157    0.0000 C   0  0  0  0  0  0  0  0  0  0  0  0
    5.0672   -3.1891    0.0000 C   0  0  0  0  0  0  0  0  0  0  0  0
    3.8536   -2.3075    0.0000 C   0  0  0  0  0  0  0  0  0  0  0  0
    2.6401   -3.1891    0.0000 C   0  0  0  0  0  0  0  0  0  0  0  0
    3.1036   -4.6157    0.0000 O   0  0  0  0  0  0  0  0  0  0  0  0
    1.2135   -2.7256    0.0000 N   0  0  0  0  0  0  0  0  0  0  0  0
   -0.0000   -3.6073    0.0000 C   0  0  0  0  0  0  0  0  0  0  0  0
   -1.2135   -2.7256    0.0000 N   0  0  0  0  0  0  0  0  0  0  0  0
   -0.7500   -1.2990    0.0000 C   0  0  0  0  0  0  0  0  0  0  0  0
    0.7500   -1.2990    0.0000 C   0  0  0  0  0  0  0  0  0  0  0  0
    1.5000    0.0000    0.0000 N   0  0  0  0  0  0  0  0  0  0  0  0
    0.7500    1.2990    0.0000 C   0  0  0  0  0  0  0  0  0  0  0  0
   -0.7500    1.2990    0.0000 N   0  0  0  0  0  0  0  0  0  0  0  0
   -1.5000    0.0000    0.0000 C   0  0  0  0  0  0  0  0  0  0  0  0
   -3.0000    0.0000    0.0000 N   0  0  0  0  0  0  0  0  0  0  0  0
    3.8536   -0.8075    0.0000 O   0  0  0  0  0  0  0  0  0  0  0  0
    6.4937   -2.7256    0.0000 O   0  0  0  0  0  0  0  0  0  0  0  0
  1  2  1  0
  2  3  2  0
  3  4  1  0
  3  5  1  0
  5  6  1  0
  6  7  1  0
  7  8  1  0
  9  8  1  1
  9 10  1  0
 10 11  2  0
 10 12  1  0
  9 13  1  0
 13 14  1  0
 14 15  2  0
 14 16  1  0
 16 17  1  1
 17 18  1  0
 18 19  1  0
 19 20  1  0
 20 21  1  0
 21 22  2  0
 22 23  1  0
 21 24  1  0
 16 25  1  0
 25 26  1  0
 26 27  2  0
 26 28  1  0
 28 29  1  0
 29 30  1  0
 30 31  1  0
 31 32  1  0
 32 33  1  0
 33 34  1  0
 34 35  2  0
 34 36  1  0
 36 37  1  6
 36 38  1  0
 38 39  1  0
 39 40  2  0
 39 41  1  0
 41 42  1  0
 42 43  1  0
 43 44  1  0
 44 45  1  0
 45 46  1  0
 46 47  1  0
 47 48  2  0
 49 47  1  1
 49 50  1  0
 50 51  1  0
 51 52  1  0
 52 53  1  0
 52 54  1  1
 54 55  1  0
 55 56  2  0
 56 57  1  0
 57 58  2  0
 58 59  1  0
 59 60  2  0
 60 61  1  0
 61 62  2  0
 62 63  1  0
 51 64  1  6
 50 65  1  6
 53 49  1  0
 58 54  1  0
 62 57  1  0
M  END
>  <Structure>  (28) 
3AGL

>  <Dataset>  (28) 
PDB

>  <Chain>  (28) 
A and B

>  <Spatial_Label>  (28) 
DFGin

>  <Dihedral_Label>  (28) 
BLAminus

>  <C_Helix_Label>  (28) 
Chelix-in

>  <Lig_ID>  (28) 
A03

>  <Lig_Entity_ID>  (28) 
3AGL_2

>  <Lig_Name>  (28) 
(10R,20R,23R)-1-[(2S,3S,4R,5R)-5-(6-amino-9H-purin-9-yl)-3,4-dihydroxytetrahydrofuran-2-yl]-20,23-bis(3-carbamimidamido
propyl)-10-methyl-1,8,11,18,21-pentaoxo-2,9,12,19,22-pentaazatetracosan-24-amide

>  <Lig_Formula>  (28) 
C37H63N17O9

>  <Lig_SMILES>  (28) 
[H]/N=C(\N)/NCCC[C@H](C(=O)N)NC(=O)[C@@H](CCCN/C(=N/[H])/N)NC(=O)CCCCCNC(=O)[C@@H](C)NC(=O)CCCCCNC(=O)[C@@H]1[C@H]([C@H]([C@@H](O1)n2cnc3c2ncnc3N)O)O

>  <Lig_MW>  (28) 
890.005

>  <Lig_ChEMBL_ID>  (28) 
['CHEMBL505949']

>  <Lig_DrugBank_ID>  (28) 
nan

>  <Occurence>  (28) 
1.0

>  <Lig_SMILES_Uncharged>  (28) 
[H]/N=C(\N)NCCC[C@@H](NC(=O)[C@@H](CCCN/C(N)=N/[H])NC(=O)CCCCCNC(=O)[C@@H](C)NC(=O)CCCCCNC(=O)[C@H]1O[C@@H](n2cnc3c(N)ncnc32)[C@H](O)[C@@H]1O)C(N)=O

>  <Lig_Conformer>  (28) 
['NaN', 'NaN']

>  <Lig_Of_Interest>  (28) 
['Y', 'Y']

>  <Lig_Completeness>  (28) 
[1.0, 1.0]

>  <Lig_Occupancy>  (28) 
[1.0, 1.0]

>  <Lig_RSCC>  (28) 
[0.842, 0.926]

>  <Lig_RSR>  (28) 
[0.243, 0.14]

>  <Lig_RMSZ_Bonds>  (28) 
[0.86, 0.9]

>  <Lig_RMSZ_Angles>  (28) 
[0.94, 0.99]

>  <Lig_Alt_Conf>  (28) 
0.0

>  <Title>  (28) 
Complex of PKA with the bisubstrate protein kinase inhibitor ARC-1039

>  <Nonpolymer_Entity_Count>  (28) 
2.0

>  <Protein_Entity_Count>  (28) 
2.0

>  <Exp_Method>  (28) 
X-Ray Diffraction

>  <Cryst_Method>  (28) 
Vapor Diffusion, Hanging Drop; 80 Mm Mes-Bistris, 75 Mm Licl, 1.5 Mm Octanoyl-N-Methylglucamide; Mixed 2:1 With And Equilibrated Against 40%(V/V) Mpd, pH 6.9, Vapor Diffusion, Hanging Drop, Temperature 277K

>  <Deposit_Date>  (28) 
2010-04-02

>  <Resolution>  (28) 
2.1

>  <DOI>  (28) 
https://doi.org/10.1016/j.jmb.2010.08.028

>  <Source_Organism>  (28) 
Homo sapiens

>  <R_Free>  (28) 
0.237

>  <Keywords>  (28) 
Transferase/Transferase Inhibitor

>  <REMARK_280>  (28) 
 Crystal Solvent Content, Vs (%): 51.06 Matthews Coefficient, Vm (Angstroms**3/Da): 2.51 Crystallization Conditions: 80 Mm Mes-Bistris, 75 Mm Licl, 1.5 Mm Octanoyl-N-Methylglucamide; Mixed 2:1 With And Equilibrated Against 40%(V/V) Mpd, pH 6.9, Vapor Diffusion, Hanging Drop, Temperature 277K 

>  <REMARK_610>  (28) 
nan

>  <pH>  (28) 
6.9

>  <Cryst_Technique>  (28) 
co-crystallized

>  <Sequence>  (28) 
MGNAAAAKKGSEQESVKEFLAKAKEDFLKKWESPAQNTAHLDQFERIKTLGTGSFGRVMLVKHKETGNHYAMKILDKQKVVKLKQIEHTLNEKRILQAVNFPFLVKLEFSFKDNSNLYMVMEYVPGGEMFSHLRRIGRFSEPHARFYAAQIVLTFEYLHSLDLIYRDLKPENLLIDQQGYIQVTDFGFAKRVKGRTWTLCGTPEYLAPEIILSKGYNKAVDWWALGVLIYEMAAGYPPFFADQPIQIYEKIVSGKVRFPSHFSSDLKDLLRNLLQVDLTKRFGNLKNGVNDIKNHKWFATTDWIAIYQRKVEAPFIPKFKGPGDTSNFDDYEEEEIRVSINEKCGKEFSEF

>  <Sequence_Length>  (28) 
351.0

>  <Mutation_Count>  (28) 
0.0

>  <Gene_Name>  (28) 
PKACA

>  <MW>  (28) 
40.889

>  <Name>  (28) 
cAMP-Dependent Protein Kinase Catalytic Subunit Alpha

>  <Mutations>  (28) 
nan

>  <EC_Number>  (28) 
2.7.11.11

>  <Peptidic_Inhibitor>  (28) 
False

>  <Lig_Missing_Atoms>  (28) 
['No', 'No']

>  <PDBbind_Resolution>  (28) 
2.1

>  <PDBbind_Release_Year>  (28) 
2010.0

>  <PDBbind_Comment>  (28) 
ligand is compound ARC-1039; IC50=97nM

>  <PDBbind_Uniprot_Id>  (28) 
P17612

>  <PDBbind_Protein_Name>  (28) 
CAMP-DEPENDENT PROTEIN KINASE

>  <PDBbind_-Logkd/Ki>  (28) 
7.8

>  <PDBbind_Kd/Ki>  (28) 
Ki=16nM

>  <PDBbind_Kd_Or_Ki_Or_Ic50>  (28) 
Ki

>  <PDBbind_Relation>  (28) 
=

>  <PDBbind_Value>  (28) 
16.0

>  <PDBbind_Unit>  (28) 
nM

>  <PDBbind_Standard_Value>  (28) 
16.0

>  <PDBbind_Standard_Unit>  (28) 
nM

>  <PDB_Chain>  (28) 
['A', 'B']

>  <Num_Ligs>  (28) 
[1.0, 1.0]

>  <Orthosteric>  (28) 
[1.0, 1.0]

>  <Allosteric>  (28) 
[0.0, 0.0]

>  <Pockets_Assigned>  (28) 
['A', 'A']

>  <Multisite>  (28) 
[False, False]

>  <Same_Number>  (28) 
True

>  <Same_Binding_Site>  (28) 
True

>  <Same_Orientation>  (28) 
True

>  <Lig_Order_in_.pdb>  (28) 
Orthosteric; Orthosteric

$$$$

     RDKit          2D

 27 29  0  0  0  0  0  0  0  0999 V2000
    1.5000    0.0000    0.0000 C   0  0  0  0  0  0  0  0  0  0  0  0
    0.7500   -1.2990    0.0000 C   0  0  0  0  0  0  0  0  0  0  0  0
   -0.7500   -1.2990    0.0000 C   0  0  0  0  0  0  0  0  0  0  0  0
   -1.5000    0.0000    0.0000 C   0  0  0  0  0  0  0  0  0  0  0  0
   -0.7500    1.2990    0.0000 C   0  0  0  0  0  0  0  0  0  0  0  0
    0.7500    1.2990    0.0000 C   0  0  0  0  0  0  0  0  0  0  0  0
   -1.5000    2.5981    0.0000 F   0  0  0  0  0  0  0  0  0  0  0  0
   -3.0000    0.0000    0.0000 C   0  0  0  0  0  0  0  0  0  0  0  0
   -3.7500   -1.2990    0.0000 O   0  0  0  0  0  0  0  0  0  0  0  0
   -3.7500    1.2990    0.0000 N   0  0  0  0  0  0  0  0  0  0  0  0
   -5.2418    1.4558    0.0000 C   0  0  0  0  0  0  0  0  0  0  0  0
   -5.5537    2.9231    0.0000 N   0  0  0  0  0  0  0  0  0  0  0  0
   -4.2546    3.6731    0.0000 C   0  0  0  0  0  0  0  0  0  0  0  0
   -3.1399    2.6694    0.0000 N   0  0  0  0  0  0  0  0  0  0  0  0
   -4.0978    5.1648    0.0000 N   0  0  0  0  0  0  0  0  0  0  0  0
   -2.7275    5.7749    0.0000 C   0  0  0  0  0  0  0  0  0  0  0  0
   -1.5140    4.8933    0.0000 C   0  0  0  0  0  0  0  0  0  0  0  0
   -0.1437    5.5034    0.0000 C   0  0  0  0  0  0  0  0  0  0  0  0
    0.0131    6.9951    0.0000 C   0  0  0  0  0  0  0  0  0  0  0  0
   -1.2004    7.8768    0.0000 C   0  0  0  0  0  0  0  0  0  0  0  0
   -2.5707    7.2667    0.0000 C   0  0  0  0  0  0  0  0  0  0  0  0
    1.3835    7.6053    0.0000 S   0  0  0  0  0  0  0  0  0  0  0  0
    1.9936    6.2349    0.0000 O   0  0  0  0  0  0  0  0  0  0  0  0
    0.7733    8.9756    0.0000 O   0  0  0  0  0  0  0  0  0  0  0  0
    2.7538    8.2154    0.0000 N   0  0  0  0  0  0  0  0  0  0  0  0
   -6.2455    0.3411    0.0000 N   0  0  0  0  0  0  0  0  0  0  0  0
   -1.5000   -2.5981    0.0000 F   0  0  0  0  0  0  0  0  0  0  0  0
  1  2  2  0
  2  3  1  0
  3  4  2  0
  4  5  1  0
  5  6  2  0
  5  7  1  0
  4  8  1  0
  8  9  2  0
  8 10  1  0
 10 11  1  0
 11 12  2  0
 12 13  1  0
 13 14  2  0
 13 15  1  0
 15 16  1  0
 16 17  2  0
 17 18  1  0
 18 19  2  0
 19 20  1  0
 20 21  2  0
 19 22  1  0
 22 23  2  0
 22 24  2  0
 22 25  1  0
 11 26  1  0
  3 27  1  0
  6  1  1  0
 14 10  1  0
 21 16  1  0
M  END
>  <Structure>  (29) 
3AMA

>  <Dataset>  (29) 
PDB

>  <Chain>  (29) 
A

>  <Spatial_Label>  (29) 
DFGin

>  <Dihedral_Label>  (29) 
BLAminus

>  <C_Helix_Label>  (29) 
Chelix-in

>  <Lig_ID>  (29) 
SKE

>  <Lig_Entity_ID>  (29) 
3AMA_3

>  <Lig_Name>  (29) 
4-({5-amino-1-[(2,6-difluorophenyl)carbonyl]-1H-1,2,4-triazol-3-yl}amino)benzenesulfonamide

>  <Lig_Formula>  (29) 
C15H12F2N6O3S

>  <Lig_SMILES>  (29) 
c1cc(c(c(c1)F)C(=O)n2c(nc(n2)Nc3ccc(cc3)S(=O)(=O)N)N)F

>  <Lig_MW>  (29) 
394.356

>  <Lig_ChEMBL_ID>  (29) 
['CHEMBL191003']

>  <Lig_DrugBank_ID>  (29) 
nan

>  <Occurence>  (29) 
1.0

>  <Lig_SMILES_Uncharged>  (29) 
Nc1nc(Nc2ccc(S(N)(=O)=O)cc2)nn1C(=O)c1c(F)cccc1F

>  <Lig_Conformer>  (29) 
['NaN']

>  <Lig_Of_Interest>  (29) 
['Y']

>  <Lig_Completeness>  (29) 
[1.0]

>  <Lig_Occupancy>  (29) 
[1.0]

>  <Lig_RSCC>  (29) 
[0.952]

>  <Lig_RSR>  (29) 
[0.087]

>  <Lig_RMSZ_Bonds>  (29) 
[1.87]

>  <Lig_RMSZ_Angles>  (29) 
[1.47]

>  <Lig_Alt_Conf>  (29) 
0.0

>  <Title>  (29) 
Protein kinase A sixfold mutant model of Aurora B with inhibitor JNJ-7706621

>  <Nonpolymer_Entity_Count>  (29) 
1.0

>  <Protein_Entity_Count>  (29) 
2.0

>  <Exp_Method>  (29) 
X-Ray Diffraction

>  <Cryst_Method>  (29) 
Vapor Diffusion, Hanging Drop; 25Mm Tris-Hcl, 25Mm Nacl, 1.5Mm Octanoyl-N-Methylglucamide, 1Mm (5-24)-Pki,12-20% (V/V) Methanol, 2-Methyl 2,4-Pentanediol, pH 7.5, Vapor Diffusion, Hanging Drop, Temperature 277K

>  <Deposit_Date>  (29) 
2010-08-18

>  <Resolution>  (29) 
1.75

>  <DOI>  (29) 
https://doi.org/10.1042/BJ20110592

>  <Source_Organism>  (29) 
Homo sapiens

>  <R_Free>  (29) 
0.22306

>  <Keywords>  (29) 
Transferase/Transferase Inhibitor

>  <REMARK_280>  (29) 
 Crystal Solvent Content, Vs (%): 51.30 Matthews Coefficient, Vm (Angstroms**3/Da): 2.53 Crystallization Conditions: 25Mm Tris-Hcl, 25Mm Nacl, 1.5Mm Octanoyl-N-Methylglucamide, 1Mm (5-24)-Pki,12-20% (V/V) Methanol, 2-Methyl 2,4-Pentanediol, pH 7.5, Vapor Diffusion, Hanging Drop, Temperature 277K 

>  <REMARK_610>  (29) 
nan

>  <pH>  (29) 
7.5

>  <Cryst_Technique>  (29) 
soaked

>  <Sequence>  (29) 
MGNAAAAKKGSEQESVKEFLAKAKEDFLKKWESPAQNTAHLDQFERIRTLGTGSFGRVMLVKHKETGNHYAMKILDKQKVVKLKQIEHTLNEKRIQQAVNFPFLVKLEFSFKDNSNLYMVLEYAPGGEMFSHLRRIGRFSEPHARFYAAQIVLTFEYLHSLDLIYRDLKPENLLIDQQGYIKVADFGFAKRVKGRTWTLCGTPEYLAPEIILSKGYNKAVDWWALGVLIYEMAAGYPPFFADQPIQIYEKIVSGKVRFPSHFSSDLKDLLRNLLQVDLTKRFGNLKNGVNDIKNHKWFATTDWIAIYQRKVEAPFIPKFKGPGDTSNFDDYEEEEIRVSINEKCGKEFSEF

>  <Sequence_Length>  (29) 
351.0

>  <Mutation_Count>  (29) 
6.0

>  <Gene_Name>  (29) 
PKACA

>  <MW>  (29) 
40.856

>  <Name>  (29) 
cAMP-Dependent Protein Kinase Catalytic Subunit Alpha

>  <Mutations>  (29) 
K47R, L95Q, M120L, V123A, Q181K, T183A

>  <EC_Number>  (29) 
2.7.11.11

>  <Peptidic_Inhibitor>  (29) 
True

>  <Lig_Missing_Atoms>  (29) 
['No']

>  <PDBbind_Resolution>  (29) 
1.75

>  <PDBbind_Release_Year>  (29) 
2011.0

>  <PDBbind_Comment>  (29) 
nan

>  <PDBbind_Uniprot_Id>  (29) 
P17612

>  <PDBbind_Protein_Name>  (29) 
CAMP-DEPENDENT PROTEIN KINASE

>  <PDBbind_-Logkd/Ki>  (29) 
6.53

>  <PDBbind_Kd/Ki>  (29) 
Ki=0.297uM

>  <PDBbind_Kd_Or_Ki_Or_Ic50>  (29) 
Ki

>  <PDBbind_Relation>  (29) 
=

>  <PDBbind_Value>  (29) 
0.297

>  <PDBbind_Unit>  (29) 
uM

>  <PDBbind_Standard_Value>  (29) 
297.0

>  <PDBbind_Standard_Unit>  (29) 
nM

>  <PDB_Chain>  (29) 
['A']

>  <Num_Ligs>  (29) 
[1.0]

>  <Orthosteric>  (29) 
[1.0]

>  <Allosteric>  (29) 
[0.0]

>  <Pockets_Assigned>  (29) 
['A']

>  <Multisite>  (29) 
[False]

>  <Same_Number>  (29) 
True

>  <Same_Binding_Site>  (29) 
True

>  <Same_Orientation>  (29) 
True

>  <Lig_Order_in_.pdb>  (29) 
Orthosteric

$$$$

     RDKit          2D

 33 37  0  0  0  0  0  0  0  0999 V2000
    0.4022   -7.7629    0.0000 C   0  0  0  0  0  0  0  0  0  0  0  0
    0.2454   -6.2711    0.0000 C   0  0  0  0  0  0  0  0  0  0  0  0
    1.3601   -5.2674    0.0000 C   0  0  0  0  0  0  0  0  0  0  0  0
    0.7500   -3.8971    0.0000 C   0  0  0  0  0  0  0  0  0  0  0  0
   -0.7418   -4.0539    0.0000 N   0  0  0  0  0  0  0  0  0  0  0  0
   -1.0537   -5.5211    0.0000 N   0  0  0  0  0  0  0  0  0  0  0  0
    1.5000   -2.5981    0.0000 N   0  0  0  0  0  0  0  0  0  0  0  0
    0.7500   -1.2990    0.0000 C   0  0  0  0  0  0  0  0  0  0  0  0
    1.5000    0.0000    0.0000 C   0  0  0  0  0  0  0  0  0  0  0  0
    0.7500    1.2990    0.0000 C   0  0  0  0  0  0  0  0  0  0  0  0
   -0.7500    1.2990    0.0000 N   0  0  0  0  0  0  0  0  0  0  0  0
   -1.5000    0.0000    0.0000 C   0  0  0  0  0  0  0  0  0  0  0  0
   -0.7500   -1.2990    0.0000 N   0  0  0  0  0  0  0  0  0  0  0  0
   -3.0000    0.0000    0.0000 S   0  0  0  0  0  0  0  0  0  0  0  0
   -3.7500    1.2990    0.0000 C   0  0  0  0  0  0  0  0  0  0  0  0
   -3.0000    2.5981    0.0000 C   0  0  0  0  0  0  0  0  0  0  0  0
   -3.7500    3.8971    0.0000 C   0  0  0  0  0  0  0  0  0  0  0  0
   -5.2500    3.8971    0.0000 C   0  0  0  0  0  0  0  0  0  0  0  0
   -6.0000    2.5981    0.0000 C   0  0  0  0  0  0  0  0  0  0  0  0
   -5.2500    1.2990    0.0000 C   0  0  0  0  0  0  0  0  0  0  0  0
   -6.0000    5.1962    0.0000 N   0  0  0  0  0  0  0  0  0  0  0  0
   -5.2500    6.4952    0.0000 C   0  0  0  0  0  0  0  0  0  0  0  0
   -3.7500    6.4952    0.0000 O   0  0  0  0  0  0  0  0  0  0  0  0
   -6.0000    7.7942    0.0000 C   0  0  0  0  0  0  0  0  0  0  0  0
   -7.2990    8.5442    0.0000 C   0  0  0  0  0  0  0  0  0  0  0  0
   -6.0000    9.2942    0.0000 C   0  0  0  0  0  0  0  0  0  0  0  0
    1.5000    2.5981    0.0000 N   0  0  0  0  0  0  0  0  0  0  0  0
    3.0000    2.5981    0.0000 C   0  0  0  0  0  0  0  0  0  0  0  0
    3.7500    3.8971    0.0000 C   0  0  0  0  0  0  0  0  0  0  0  0
    3.0000    5.1962    0.0000 N   0  0  0  0  0  0  0  0  0  0  0  0
    1.5000    5.1962    0.0000 C   0  0  0  0  0  0  0  0  0  0  0  0
    0.7500    3.8971    0.0000 C   0  0  0  0  0  0  0  0  0  0  0  0
    3.7500    6.4952    0.0000 C   0  0  0  0  0  0  0  0  0  0  0  0
  1  2  1  0
  2  3  1  0
  3  4  2  0
  4  5  1  0
  5  6  1  0
  4  7  1  0
  7  8  1  0
  8  9  2  0
  9 10  1  0
 10 11  2  0
 11 12  1  0
 12 13  2  0
 12 14  1  0
 14 15  1  0
 15 16  2  0
 16 17  1  0
 17 18  2  0
 18 19  1  0
 19 20  2  0
 18 21  1  0
 21 22  1  0
 22 23  2  0
 22 24  1  0
 24 25  1  0
 25 26  1  0
 10 27  1  0
 27 28  1  0
 28 29  1  0
 29 30  1  0
 30 31  1  0
 31 32  1  0
 30 33  1  0
  6  2  2  0
 13  8  1  0
 20 15  1  0
 26 24  1  0
 32 27  1  0
M  END
>  <Structure>  (30) 
3AMB

>  <Dataset>  (30) 
PDB

>  <Chain>  (30) 
A

>  <Spatial_Label>  (30) 
DFGin

>  <Dihedral_Label>  (30) 
ABAminus

>  <C_Helix_Label>  (30) 
Chelix-in

>  <Lig_ID>  (30) 
VX6

>  <Lig_Entity_ID>  (30) 
3AMB_3

>  <Lig_Name>  (30) 
CYCLOPROPANECARBOXYLIC ACID {4-[4-(4-METHYL-PIPERAZIN-1-YL)-6-(5-METHYL-2H-PYRAZOL-3-YLAMINO)-PYRIMIDIN-2-YLSULFANYL]-PHENYL}-AMIDE

>  <Lig_Formula>  (30) 
C23H28N8OS

>  <Lig_SMILES>  (30) 
Cc1cc([nH]n1)Nc2cc(nc(n2)Sc3ccc(cc3)NC(=O)C4CC4)N5CCN(CC5)C

>  <Lig_MW>  (30) 
464.586

>  <Lig_ChEMBL_ID>  (30) 
['CHEMBL572878']

>  <Lig_DrugBank_ID>  (30) 
nan

>  <Occurence>  (30) 
1.0

>  <Lig_SMILES_Uncharged>  (30) 
Cc1cc(Nc2cc(N3CCN(C)CC3)nc(Sc3ccc(NC(=O)C4CC4)cc3)n2)[nH]n1

>  <Lig_Conformer>  (30) 
['NaN']

>  <Lig_Of_Interest>  (30) 
['Y']

>  <Lig_Completeness>  (30) 
[1.0]

>  <Lig_Occupancy>  (30) 
[1.0]

>  <Lig_RSCC>  (30) 
[0.956]

>  <Lig_RSR>  (30) 
[0.089]

>  <Lig_RMSZ_Bonds>  (30) 
[1.79]

>  <Lig_RMSZ_Angles>  (30) 
[1.83]

>  <Lig_Alt_Conf>  (30) 
0.0

>  <Title>  (30) 
Protein kinase A sixfold mutant model of Aurora B with inhibitor VX-680

>  <Nonpolymer_Entity_Count>  (30) 
1.0

>  <Protein_Entity_Count>  (30) 
2.0

>  <Exp_Method>  (30) 
X-Ray Diffraction

>  <Cryst_Method>  (30) 
Vapor Diffusion, Hanging Drop; 25Mm Tris-Hcl, 25Mm Nacl, 1.5Mm Octanoyl-N-Methylglucamide, 1Mm (5-24)-Pki, 12-20% (V/V) Methanol, 2-Methyl-2,4-Pentanediol 30%, pH 7.5, Vapor Diffusion, Hanging Drop, Temperature 277K

>  <Deposit_Date>  (30) 
2010-08-18

>  <Resolution>  (30) 
2.25

>  <DOI>  (30) 
https://doi.org/10.1042/BJ20110592

>  <Source_Organism>  (30) 
Homo sapiens

>  <R_Free>  (30) 
0.25622

>  <Keywords>  (30) 
Transferase/Transferase Inhibitor

>  <REMARK_280>  (30) 
 Crystal Solvent Content, Vs (%): 51.83 Matthews Coefficient, Vm (Angstroms**3/Da): 2.55 Crystallization Conditions: 25Mm Tris-Hcl, 25Mm Nacl, 1.5Mm Octanoyl-N-Methylglucamide, 1Mm (5-24)-Pki, 12-20% (V/V) Methanol, 2-Methyl-2,4-Pentanediol 30%, pH 7.5, Vapor Diffusion, Hanging Drop, Temperature 277K 

>  <REMARK_610>  (30) 
nan

>  <pH>  (30) 
7.5

>  <Cryst_Technique>  (30) 
soaked

>  <Sequence>  (30) 
MGNAAAAKKGSEQESVKEFLAKAKEDFLKKWESPAQNTAHLDQFERIRTLGTGSFGRVMLVKHKETGNHYAMKILDKQKVVKLKQIEHTLNEKRIQQAVNFPFLVKLEFSFKDNSNLYMVLEYAPGGEMFSHLRRIGRFSEPHARFYAAQIVLTFEYLHSLDLIYRDLKPENLLIDQQGYIKVADFGFAKRVKGRTWTLCGTPEYLAPEIILSKGYNKAVDWWALGVLIYEMAAGYPPFFADQPIQIYEKIVSGKVRFPSHFSSDLKDLLRNLLQVDLTKRFGNLKNGVNDIKNHKWFATTDWIAIYQRKVEAPFIPKFKGPGDTSNFDDYEEEEIRVSINEKCGKEFSEF

>  <Sequence_Length>  (30) 
351.0

>  <Mutation_Count>  (30) 
6.0

>  <Gene_Name>  (30) 
PKACA

>  <MW>  (30) 
40.856

>  <Name>  (30) 
cAMP-Dependent Protein Kinase Catalytic Subunit Alpha

>  <Mutations>  (30) 
K47R, L95Q, M120L, V123A, Q181K, T183A

>  <EC_Number>  (30) 
2.7.11.11

>  <Peptidic_Inhibitor>  (30) 
True

>  <Lig_Missing_Atoms>  (30) 
['No']

>  <PDBbind_Resolution>  (30) 
2.25

>  <PDBbind_Release_Year>  (30) 
2011.0

>  <PDBbind_Comment>  (30) 
nan

>  <PDBbind_Uniprot_Id>  (30) 
P17612

>  <PDBbind_Protein_Name>  (30) 
CAMP-DEPENDENT PROTEIN KINASE, ALPHA-CATALYTIC

>  <PDBbind_-Logkd/Ki>  (30) 
6.18

>  <PDBbind_Kd/Ki>  (30) 
Ki=0.66uM

>  <PDBbind_Kd_Or_Ki_Or_Ic50>  (30) 
Ki

>  <PDBbind_Relation>  (30) 
=

>  <PDBbind_Value>  (30) 
0.66

>  <PDBbind_Unit>  (30) 
uM

>  <PDBbind_Standard_Value>  (30) 
660.0

>  <PDBbind_Standard_Unit>  (30) 
nM

>  <PDB_Chain>  (30) 
['A']

>  <Num_Ligs>  (30) 
[1.0]

>  <Orthosteric>  (30) 
[1.0]

>  <Allosteric>  (30) 
[0.0]

>  <Pockets_Assigned>  (30) 
['A']

>  <Multisite>  (30) 
[False]

>  <Same_Number>  (30) 
True

>  <Same_Binding_Site>  (30) 
True

>  <Same_Orientation>  (30) 
True

>  <Lig_Order_in_.pdb>  (30) 
Orthosteric

$$$$

     RDKit          2D

 52 54  0  0  0  0  0  0  0  0999 V2000
   -4.5479  -25.1705    0.0000 H   0  0  0  0  0  0  0  0  0  0  0  0
   -3.9378  -23.8002    0.0000 N   0  0  0  0  0  0  0  0  0  0  0  0
   -2.4461  -23.6434    0.0000 C   0  0  0  0  0  0  0  0  0  0  0  0
   -1.5644  -24.8569    0.0000 N   0  0  0  0  0  0  0  0  0  0  0  0
   -1.8359  -22.2731    0.0000 N   0  0  0  0  0  0  0  0  0  0  0  0
   -0.3442  -22.1163    0.0000 C   0  0  0  0  0  0  0  0  0  0  0  0
    0.2659  -20.7460    0.0000 C   0  0  0  0  0  0  0  0  0  0  0  0
    1.7577  -20.5892    0.0000 C   0  0  0  0  0  0  0  0  0  0  0  0
    2.3678  -19.2189    0.0000 C   0  0  0  0  0  0  0  0  0  0  0  0
    1.4862  -18.0053    0.0000 C   0  0  0  0  0  0  0  0  0  0  0  0
    2.0963  -16.6350    0.0000 O   0  0  0  0  0  0  0  0  0  0  0  0
   -0.0056  -18.1621    0.0000 N   0  0  0  0  0  0  0  0  0  0  0  0
    3.8596  -19.0621    0.0000 N   0  0  0  0  0  0  0  0  0  0  0  0
    4.4697  -17.6917    0.0000 C   0  0  0  0  0  0  0  0  0  0  0  0
    3.5880  -16.4782    0.0000 O   0  0  0  0  0  0  0  0  0  0  0  0
    5.9615  -17.5350    0.0000 C   0  0  0  0  0  0  0  0  0  0  0  0
    6.8432  -18.7485    0.0000 C   0  0  0  0  0  0  0  0  0  0  0  0
    6.2331  -20.1188    0.0000 C   0  0  0  0  0  0  0  0  0  0  0  0
    7.1148  -21.3323    0.0000 C   0  0  0  0  0  0  0  0  0  0  0  0
    6.5046  -22.7026    0.0000 N   0  0  0  0  0  0  0  0  0  0  0  0
    7.3863  -23.9162    0.0000 C   0  0  0  0  0  0  0  0  0  0  0  0
    6.7762  -25.2865    0.0000 N   0  0  0  0  0  0  0  0  0  0  0  0
    7.6579  -26.5000    0.0000 H   0  0  0  0  0  0  0  0  0  0  0  0
    8.8781  -23.7594    0.0000 N   0  0  0  0  0  0  0  0  0  0  0  0
    6.5716  -16.1646    0.0000 N   0  0  0  0  0  0  0  0  0  0  0  0
    5.6899  -14.9511    0.0000 C   0  0  0  0  0  0  0  0  0  0  0  0
    4.1981  -15.1079    0.0000 O   0  0  0  0  0  0  0  0  0  0  0  0
    6.3000  -13.5808    0.0000 C   0  0  0  0  0  0  0  0  0  0  0  0
    5.4184  -12.3673    0.0000 C   0  0  0  0  0  0  0  0  0  0  0  0
    6.0285  -10.9969    0.0000 C   0  0  0  0  0  0  0  0  0  0  0  0
    5.1468   -9.7834    0.0000 C   0  0  0  0  0  0  0  0  0  0  0  0
    5.7569   -8.4131    0.0000 C   0  0  0  0  0  0  0  0  0  0  0  0
    4.8752   -7.1996    0.0000 N   0  0  0  0  0  0  0  0  0  0  0  0
    5.4853   -5.8293    0.0000 C   0  0  0  0  0  0  0  0  0  0  0  0
    6.9771   -5.6725    0.0000 O   0  0  0  0  0  0  0  0  0  0  0  0
    4.6036   -4.6157    0.0000 C   0  0  0  0  0  0  0  0  0  0  0  0
    5.0672   -3.1891    0.0000 C   0  0  0  0  0  0  0  0  0  0  0  0
    3.8536   -2.3075    0.0000 C   0  0  0  0  0  0  0  0  0  0  0  0
    2.6401   -3.1891    0.0000 C   0  0  0  0  0  0  0  0  0  0  0  0
    3.1036   -4.6157    0.0000 O   0  0  0  0  0  0  0  0  0  0  0  0
    1.2135   -2.7256    0.0000 N   0  0  0  0  0  0  0  0  0  0  0  0
   -0.0000   -3.6073    0.0000 C   0  0  0  0  0  0  0  0  0  0  0  0
   -1.2135   -2.7256    0.0000 N   0  0  0  0  0  0  0  0  0  0  0  0
   -0.7500   -1.2990    0.0000 C   0  0  0  0  0  0  0  0  0  0  0  0
    0.7500   -1.2990    0.0000 C   0  0  0  0  0  0  0  0  0  0  0  0
    1.5000    0.0000    0.0000 N   0  0  0  0  0  0  0  0  0  0  0  0
    0.7500    1.2990    0.0000 C   0  0  0  0  0  0  0  0  0  0  0  0
   -0.7500    1.2990    0.0000 N   0  0  0  0  0  0  0  0  0  0  0  0
   -1.5000    0.0000    0.0000 C   0  0  0  0  0  0  0  0  0  0  0  0
   -3.0000    0.0000    0.0000 N   0  0  0  0  0  0  0  0  0  0  0  0
    3.8536   -0.8075    0.0000 O   0  0  0  0  0  0  0  0  0  0  0  0
    6.4937   -2.7256    0.0000 O   0  0  0  0  0  0  0  0  0  0  0  0
  1  2  1  0
  2  3  2  0
  3  4  1  0
  3  5  1  0
  5  6  1  0
  6  7  1  0
  7  8  1  0
  9  8  1  6
  9 10  1  0
 10 11  2  0
 10 12  1  0
  9 13  1  0
 13 14  1  0
 14 15  2  0
 14 16  1  0
 16 17  1  6
 17 18  1  0
 18 19  1  0
 19 20  1  0
 20 21  1  0
 21 22  2  0
 22 23  1  0
 21 24  1  0
 16 25  1  0
 25 26  1  0
 26 27  2  0
 26 28  1  0
 28 29  1  0
 29 30  1  0
 30 31  1  0
 31 32  1  0
 32 33  1  0
 33 34  1  0
 34 35  2  0
 36 34  1  1
 36 37  1  0
 37 38  1  0
 38 39  1  0
 39 40  1  0
 39 41  1  1
 41 42  1  0
 42 43  2  0
 43 44  1  0
 44 45  2  0
 45 46  1  0
 46 47  2  0
 47 48  1  0
 48 49  2  0
 49 50  1  0
 38 51  1  6
 37 52  1  6
 40 36  1  0
 45 41  1  0
 49 44  1  0
M  END
>  <Structure>  (31) 
3BWJ

>  <Dataset>  (31) 
PDB

>  <Chain>  (31) 
A

>  <Spatial_Label>  (31) 
DFGin

>  <Dihedral_Label>  (31) 
BLAminus

>  <C_Helix_Label>  (31) 
Chelix-in

>  <Lig_ID>  (31) 
ARX

>  <Lig_Entity_ID>  (31) 
3BWJ_2

>  <Lig_Name>  (31) 
(2S,3S,4R,5R)-5-(6-amino-9H-purin-9-yl)-N-(6-{[(1R)-4-carbamimidamido-1-{[(1R)-4-carbamimidamido-1-carbamoylbutyl]carbamoyl}butyl]amino}-6-oxohexyl)-3,4-dihydroxytetrahydrofuran-2-carboxamide

>  <Lig_Formula>  (31) 
C28H47N15O7

>  <Lig_SMILES>  (31) 
[H]/N=C(\N)/NCCC[C@H](C(=O)N)NC(=O)[C@@H](CCCN/C(=N/[H])/N)NC(=O)CCCCCNC(=O)[C@@H]1[C@H]([C@H]([C@@H](O1)n2cnc3c2ncnc3N)O)O

>  <Lig_MW>  (31) 
705.769

>  <Lig_ChEMBL_ID>  (31) 
['CHEMBL450179']

>  <Lig_DrugBank_ID>  (31) 
nan

>  <Occurence>  (31) 
1.0

>  <Lig_SMILES_Uncharged>  (31) 
[H]/N=C(\N)NCCC[C@@H](NC(=O)[C@@H](CCCN/C(N)=N/[H])NC(=O)CCCCCNC(=O)[C@H]1O[C@@H](n2cnc3c(N)ncnc32)[C@H](O)[C@@H]1O)C(N)=O

>  <Lig_Conformer>  (31) 
['NaN', 'NaN']

>  <Lig_Of_Interest>  (31) 
['Y', 'Y']

>  <Lig_Completeness>  (31) 
[1.0, 1.0]

>  <Lig_Occupancy>  (31) 
[1.0, 1.0]

>  <Lig_RSCC>  (31) 
[0.875, 0.899]

>  <Lig_RSR>  (31) 
[0.17, 0.131]

>  <Lig_RMSZ_Bonds>  (31) 
[0.87, 0.88]

>  <Lig_RMSZ_Angles>  (31) 
[1.36, 1.36]

>  <Lig_Alt_Conf>  (31) 
0.0

>  <Title>  (31) 
Complex of PKA with the bisubstrate protein kinase inhibitor lead compound Arc-1034

>  <Nonpolymer_Entity_Count>  (31) 
2.0

>  <Protein_Entity_Count>  (31) 
1.0

>  <Exp_Method>  (31) 
X-Ray Diffraction

>  <Cryst_Method>  (31) 
Vapor Diffusion, Hanging Drop; Mes-Bis-Tris, Licl, pH 6.5, Vapor Diffusion, Hanging Drop, Temperature 279K

>  <Deposit_Date>  (31) 
2008-01-09

>  <Resolution>  (31) 
2.3

>  <DOI>  (31) 
https://doi.org/10.1021/jm800797n

>  <Source_Organism>  (31) 
Bos taurus

>  <R_Free>  (31) 
0.2493

>  <Keywords>  (31) 
Transferase/Transferase Inhibitor

>  <REMARK_280>  (31) 
 Crystal Solvent Content, Vs (%): 49.74 Matthews Coefficient, Vm (Angstroms**3/Da): 2.45 Crystallization Conditions: Mes-Bis-Tris, Licl, pH 6.5, Vapor Diffusion, Hanging Drop, Temperature 279K 

>  <REMARK_610>  (31) 
nan

>  <pH>  (31) 
6.5

>  <Cryst_Technique>  (31) 
co-crystallized

>  <Sequence>  (31) 
GNAAAAKKGSEQESVKEFLAKAKEDFLKKWENPAQNTAHLDQFERIKTLGTGSFGRVMLVKHMETGNHYAMKILDKQKVVKLKQIEHTLNEKRILQAVNFPFLVKLEFSFKDNSNLYMVMEYVPGGEMFSHLRRIGRFSEPHARFYAAQIVLTFEYLHSLDLIYRDLKPENLLIDQQGYIQVTDFGFAKRVKGRTWTLCGTPEYLAPEIILSKGYNKAVDWWALGVLIYEMAAGYPPFFADQPIQIYEKIVSGKVRFPSHFSSDLKDLLRNLLQVDLTKRFGNLKNGVNDIKNHKWFATTDWIAIYQRKVEAPFIPKFKGPGDTSNFDDYEEEEIRVSINEKCGKEFSEF

>  <Sequence_Length>  (31) 
350.0

>  <Mutation_Count>  (31) 
0.0

>  <Gene_Name>  (31) 
PKACA

>  <MW>  (31) 
40.786

>  <Name>  (31) 
cAMP-Dependent Protein Kinase, Alpha-Catalytic Subunit

>  <Mutations>  (31) 
nan

>  <EC_Number>  (31) 
2.7.11.11

>  <Peptidic_Inhibitor>  (31) 
False

>  <Lig_Missing_Atoms>  (31) 
['No', 'No']

>  <PDBbind_Resolution>  (31) 
2.3

>  <PDBbind_Release_Year>  (31) 
2009.0

>  <PDBbind_Comment>  (31) 
ligand is compound 1; Kd=0.319+/-0.057uM; IC50=2.6+/-0.3uM

>  <PDBbind_Uniprot_Id>  (31) 
P00517

>  <PDBbind_Protein_Name>  (31) 
CAMP-DEPENDENT PROTEIN KINASE

>  <PDBbind_-Logkd/Ki>  (31) 
6.5

>  <PDBbind_Kd/Ki>  (31) 
Kd=0.319uM

>  <PDBbind_Kd_Or_Ki_Or_Ic50>  (31) 
Kd

>  <PDBbind_Relation>  (31) 
=

>  <PDBbind_Value>  (31) 
0.319

>  <PDBbind_Unit>  (31) 
uM

>  <PDBbind_Standard_Value>  (31) 
319.0

>  <PDBbind_Standard_Unit>  (31) 
nM

>  <PDB_Chain>  (31) 
['A']

>  <Num_Ligs>  (31) 
[2.0]

>  <Orthosteric>  (31) 
[1.0]

>  <Allosteric>  (31) 
[1.0]

>  <Pockets_Assigned>  (31) 
['A, G']

>  <Multisite>  (31) 
[True]

>  <Same_Number>  (31) 
True

>  <Same_Binding_Site>  (31) 
True

>  <Same_Orientation>  (31) 
True

>  <Lig_Order_in_.pdb>  (31) 
Orthosteric, Allosteric

$$$$

     RDKit          2D

 13 14  0  0  0  0  0  0  0  0999 V2000
    1.5000    0.0000    0.0000 C   0  0  0  0  0  0  0  0  0  0  0  0
    0.7500   -1.2990    0.0000 C   0  0  0  0  0  0  0  0  0  0  0  0
   -0.7500   -1.2990    0.0000 C   0  0  0  0  0  0  0  0  0  0  0  0
   -1.5000    0.0000    0.0000 C   0  0  0  0  0  0  0  0  0  0  0  0
   -0.7500    1.2990    0.0000 C   0  0  0  0  0  0  0  0  0  0  0  0
    0.7500    1.2990    0.0000 C   0  0  0  0  0  0  0  0  0  0  0  0
   -3.0000    0.0000    0.0000 C   0  0  0  0  0  0  0  0  0  0  0  0
   -3.7500    1.2990    0.0000 C   0  0  0  0  0  0  0  0  0  0  0  0
   -5.2418    1.4558    0.0000 C   0  0  0  0  0  0  0  0  0  0  0  0
   -5.5537    2.9231    0.0000 N   0  0  0  0  0  0  0  0  0  0  0  0
   -4.2546    3.6731    0.0000 C   0  0  0  0  0  0  0  0  0  0  0  0
   -3.1399    2.6694    0.0000 S   0  0  0  0  0  0  0  0  0  0  0  0
   -4.0978    5.1648    0.0000 N   0  0  0  0  0  0  0  0  0  0  0  0
  1  2  2  0
  2  3  1  0
  3  4  2  0
  4  5  1  0
  5  6  2  0
  4  7  1  0
  7  8  1  0
  8  9  2  0
  9 10  1  0
 10 11  2  0
 11 12  1  0
 11 13  1  0
  6  1  1  0
 12  8  1  0
M  END
>  <Structure>  (32) 
3DND

>  <Dataset>  (32) 
PDB

>  <Chain>  (32) 
A

>  <Spatial_Label>  (32) 
DFGin

>  <Dihedral_Label>  (32) 
BLAminus

>  <C_Helix_Label>  (32) 
Chelix-in

>  <Lig_ID>  (32) 
LL2

>  <Lig_Entity_ID>  (32) 
3DND_3

>  <Lig_Name>  (32) 
5-benzyl-1,3-thiazol-2-amine

>  <Lig_Formula>  (32) 
C10H10N2S

>  <Lig_SMILES>  (32) 
c1ccc(cc1)Cc2cnc(s2)N

>  <Lig_MW>  (32) 
190.265

>  <Lig_ChEMBL_ID>  (32) 
['CHEMBL1234033']

>  <Lig_DrugBank_ID>  (32) 
['DB08114']

>  <Occurence>  (32) 
1.0

>  <Lig_SMILES_Uncharged>  (32) 
Nc1ncc(Cc2ccccc2)s1

>  <Lig_Conformer>  (32) 
['NaN']

>  <Lig_Of_Interest>  (32) 
['Y']

>  <Lig_Completeness>  (32) 
[1.0]

>  <Lig_Occupancy>  (32) 
[1.0]

>  <Lig_RSCC>  (32) 
[0.812]

>  <Lig_RSR>  (32) 
[0.222]

>  <Lig_RMSZ_Bonds>  (32) 
[2.1]

>  <Lig_RMSZ_Angles>  (32) 
[2.2]

>  <Lig_Alt_Conf>  (32) 
0.0

>  <Title>  (32) 
cAMP-dependent protein kinase PKA catalytic subunit with PKI-5-24

>  <Nonpolymer_Entity_Count>  (32) 
1.0

>  <Protein_Entity_Count>  (32) 
2.0

>  <Exp_Method>  (32) 
X-Ray Diffraction

>  <Cryst_Method>  (32) 
Vapor Diffusion, Hanging Drop; 75Mm Licl, 30Mm Mesbistris, 1Mm Dtt, 0.2Mm Edta, pH 6.5, 15% Methanol, pH 6.4, Vapor Diffusion, Hanging Drop, Temperature 277K

>  <Deposit_Date>  (32) 
2008-07-02

>  <Resolution>  (32) 
2.26

>  <DOI>  (32) 
https://doi.org/10.1002/anie.200801792

>  <Source_Organism>  (32) 
Bos taurus

>  <R_Free>  (32) 
0.25324

>  <Keywords>  (32) 
Transferase/Transferase Inhibitor

>  <REMARK_280>  (32) 
 Crystal Solvent Content, Vs (%): 53.50 Matthews Coefficient, Vm (Angstroms**3/Da): 2.65 Crystallization Conditions: 75Mm Licl, 30Mm Mesbistris, 1Mm Dtt, 0.2Mm Edta, pH 6.5, 15% Methanol, pH 6.4, Vapor Diffusion, Hanging Drop, Temperature 277K 

>  <REMARK_610>  (32) 
nan

>  <pH>  (32) 
6.5

>  <Cryst_Technique>  (32) 
soaked

>  <Sequence>  (32) 
GNAAAAKKGSEQESVKEFLAKAKEDFLKKWENPAQNTAHLDQFERIKTLGTGSFGRVMLVKHMETGNHYAMKILDKQKVVKLKQIEHTLNEKRILQAVNFPFLVKLEFSFKDNSNLYMVMEYVPGGEMFSHLRRIGRFSEPHARFYAAQIVLTFEYLHSLDLIYRDLKPENLLIDQQGYIQVTDFGFAKRVKGRTWTLCGTPEYLAPEIILSKGYNKAVDWWALGVLIYEMAAGYPPFFADQPIQIYEKIVSGKVRFPSHFSSDLKDLLRNLLQVDLTKRFGNLKDGVNDIKNHKWFATTDWIAIYQRKVEAPFIPKFKGPGDTSNFDDYEEEEIRVSINEKCGKEFSEF

>  <Sequence_Length>  (32) 
350.0

>  <Mutation_Count>  (32) 
0.0

>  <Gene_Name>  (32) 
nan

>  <MW>  (32) 
40.707

>  <Name>  (32) 
cAMP-Dependent Protein Kinase Catalytic Subunit Alpha

>  <Mutations>  (32) 
nan

>  <EC_Number>  (32) 
2.7.11.11

>  <Peptidic_Inhibitor>  (32) 
True

>  <Lig_Missing_Atoms>  (32) 
['No']

>  <PDBbind_Resolution>  (32) 
2.26

>  <PDBbind_Release_Year>  (32) 
2009.0

>  <PDBbind_Comment>  (32) 
ligand B

>  <PDBbind_Uniprot_Id>  (32) 
P00517

>  <PDBbind_Protein_Name>  (32) 
CAMP-DEPENDENT PROTEIN KINASE

>  <PDBbind_-Logkd/Ki>  (32) 
4.8

>  <PDBbind_Kd/Ki>  (32) 
Ki=16uM

>  <PDBbind_Kd_Or_Ki_Or_Ic50>  (32) 
Ki

>  <PDBbind_Relation>  (32) 
=

>  <PDBbind_Value>  (32) 
16.0

>  <PDBbind_Unit>  (32) 
uM

>  <PDBbind_Standard_Value>  (32) 
16000.0

>  <PDBbind_Standard_Unit>  (32) 
nM

>  <PDB_Chain>  (32) 
['A']

>  <Num_Ligs>  (32) 
[1.0]

>  <Orthosteric>  (32) 
[1.0]

>  <Allosteric>  (32) 
[0.0]

>  <Pockets_Assigned>  (32) 
['A']

>  <Multisite>  (32) 
[False]

>  <Same_Number>  (32) 
True

>  <Same_Binding_Site>  (32) 
True

>  <Same_Orientation>  (32) 
True

>  <Lig_Order_in_.pdb>  (32) 
Orthosteric

$$$$

     RDKit          2D

 15 17  0  0  0  0  0  0  0  0999 V2000
    1.5000    0.0000    0.0000 C   0  0  0  0  0  0  0  0  0  0  0  0
    0.7500   -1.2990    0.0000 C   0  0  0  0  0  0  0  0  0  0  0  0
   -0.7500   -1.2990    0.0000 C   0  0  0  0  0  0  0  0  0  0  0  0
   -1.5000    0.0000    0.0000 C   0  0  0  0  0  0  0  0  0  0  0  0
   -0.7500    1.2990    0.0000 C   0  0  0  0  0  0  0  0  0  0  0  0
    0.7500    1.2990    0.0000 C   0  0  0  0  0  0  0  0  0  0  0  0
   -1.7537    2.4138    0.0000 C   0  0  0  0  0  0  0  0  0  0  0  0
   -3.1240    1.8037    0.0000 N   0  0  0  0  0  0  0  0  0  0  0  0
   -2.9672    0.3119    0.0000 N   0  0  0  0  0  0  0  0  0  0  0  0
   -1.4418    3.8810    0.0000 C   0  0  0  0  0  0  0  0  0  0  0  0
   -0.0152    4.3445    0.0000 C   0  0  0  0  0  0  0  0  0  0  0  0
    0.2966    5.8117    0.0000 C   0  0  0  0  0  0  0  0  0  0  0  0
   -0.8181    6.8154    0.0000 N   0  0  0  0  0  0  0  0  0  0  0  0
   -2.2447    6.3519    0.0000 C   0  0  0  0  0  0  0  0  0  0  0  0
   -2.5565    4.8847    0.0000 C   0  0  0  0  0  0  0  0  0  0  0  0
  1  2  2  0
  2  3  1  0
  3  4  2  0
  4  5  1  0
  5  6  2  0
  5  7  1  0
  7  8  2  0
  8  9  1  0
  7 10  1  0
 10 11  2  0
 11 12  1  0
 12 13  2  0
 13 14  1  0
 14 15  2  0
  6  1  1  0
  9  4  1  0
 15 10  1  0
M  END
>  <Structure>  (33) 
3DNE

>  <Dataset>  (33) 
PDB

>  <Chain>  (33) 
A

>  <Spatial_Label>  (33) 
DFGin

>  <Dihedral_Label>  (33) 
BLAminus

>  <C_Helix_Label>  (33) 
Chelix-in

>  <Lig_ID>  (33) 
LL1

>  <Lig_Entity_ID>  (33) 
3DNE_3

>  <Lig_Name>  (33) 
3-pyridin-4-yl-1H-indazole

>  <Lig_Formula>  (33) 
C12H9N3

>  <Lig_SMILES>  (33) 
c1ccc2c(c1)c(n[nH]2)c3ccncc3

>  <Lig_MW>  (33) 
195.22

>  <Lig_ChEMBL_ID>  (33) 
['CHEMBL1234032']

>  <Lig_DrugBank_ID>  (33) 
['DB08113']

>  <Occurence>  (33) 
1.0

>  <Lig_SMILES_Uncharged>  (33) 
c1ccc2c(-c3ccncc3)n[nH]c2c1

>  <Lig_Conformer>  (33) 
['NaN']

>  <Lig_Of_Interest>  (33) 
['Y']

>  <Lig_Completeness>  (33) 
[1.0]

>  <Lig_Occupancy>  (33) 
[1.0]

>  <Lig_RSCC>  (33) 
[0.964]

>  <Lig_RSR>  (33) 
[0.093]

>  <Lig_RMSZ_Bonds>  (33) 
[2.83]

>  <Lig_RMSZ_Angles>  (33) 
[2.18]

>  <Lig_Alt_Conf>  (33) 
0.0

>  <Title>  (33) 
cAMP-dependent protein kinase PKA catalytic subunit with PKI-5-24

>  <Nonpolymer_Entity_Count>  (33) 
1.0

>  <Protein_Entity_Count>  (33) 
2.0

>  <Exp_Method>  (33) 
X-Ray Diffraction

>  <Cryst_Method>  (33) 
Vapor Diffusion, Hanging Drop; 15% Methanol, 75Mm Licl, 30Mm Mesbistris, 1Mm Dtt, 0.2Mm Edta, pH 6.4, Vapor Diffusion, Hanging Drop, Temperature 277K

>  <Deposit_Date>  (33) 
2008-07-02

>  <Resolution>  (33) 
2.0

>  <DOI>  (33) 
https://doi.org/10.1002/anie.200801792

>  <Source_Organism>  (33) 
Bos taurus

>  <R_Free>  (33) 
0.23037

>  <Keywords>  (33) 
Transferase/Transferase Inhibitor

>  <REMARK_280>  (33) 
 Crystal Solvent Content, Vs (%): 51.80 Matthews Coefficient, Vm (Angstroms**3/Da): 2.55 Crystallization Conditions: 15% Methanol, 75Mm Licl, 30Mm Mesbistris, 1Mm Dtt, 0.2Mm Edta, pH 6.4, Vapor Diffusion, Hanging Drop, Temperature 277K 

>  <REMARK_610>  (33) 
nan

>  <pH>  (33) 
6.4

>  <Cryst_Technique>  (33) 
soaked

>  <Sequence>  (33) 
GNAAAAKKGSEQESVKEFLAKAKEDFLKKWENPAQNTAHLDQFERIKTLGTGSFGRVMLVKHMETGNHYAMKILDKQKVVKLKQIEHTLNEKRILQAVNFPFLVKLEFSFKDNSNLYMVMEYVPGGEMFSHLRRIGRFSEPHARFYAAQIVLTFEYLHSLDLIYRDLKPENLLIDQQGYIQVTDFGFAKRVKGRTWTLCGTPEYLAPEIILSKGYNKAVDWWALGVLIYEMAAGYPPFFADQPIQIYEKIVSGKVRFPSHFSSDLKDLLRNLLQVDLTKRFGNLKDGVNDIKNHKWFATTDWIAIYQRKVEAPFIPKFKGPGDTSNFDDYEEEEIRVSINEKCGKEFSEF

>  <Sequence_Length>  (33) 
350.0

>  <Mutation_Count>  (33) 
0.0

>  <Gene_Name>  (33) 
nan

>  <MW>  (33) 
40.707

>  <Name>  (33) 
cAMP-Dependent Protein Kinase Catalytic Subunit Alpha

>  <Mutations>  (33) 
nan

>  <EC_Number>  (33) 
2.7.11.11

>  <Peptidic_Inhibitor>  (33) 
True

>  <Lig_Missing_Atoms>  (33) 
['No']

>  <PDBbind_Resolution>  (33) 
2.0

>  <PDBbind_Release_Year>  (33) 
2009.0

>  <PDBbind_Comment>  (33) 
ligand A

>  <PDBbind_Uniprot_Id>  (33) 
P00517

>  <PDBbind_Protein_Name>  (33) 
CAMP-DEPENDENT PROTEIN KINASE

>  <PDBbind_-Logkd/Ki>  (33) 
5.22

>  <PDBbind_Kd/Ki>  (33) 
Ki=6uM

>  <PDBbind_Kd_Or_Ki_Or_Ic50>  (33) 
Ki

>  <PDBbind_Relation>  (33) 
=

>  <PDBbind_Value>  (33) 
6.0

>  <PDBbind_Unit>  (33) 
uM

>  <PDBbind_Standard_Value>  (33) 
6000.0

>  <PDBbind_Standard_Unit>  (33) 
nM

>  <PDB_Chain>  (33) 
['A']

>  <Num_Ligs>  (33) 
[1.0]

>  <Orthosteric>  (33) 
[1.0]

>  <Allosteric>  (33) 
[0.0]

>  <Pockets_Assigned>  (33) 
['A']

>  <Multisite>  (33) 
[False]

>  <Same_Number>  (33) 
True

>  <Same_Binding_Site>  (33) 
True

>  <Same_Orientation>  (33) 
True

>  <Lig_Order_in_.pdb>  (33) 
Orthosteric

$$$$

     RDKit          2D

 34 37  0  0  0  0  0  0  0  0999 V2000
    3.7548   -2.1855    0.0000 C   0  0  0  0  0  0  0  0  0  0  0  0
    2.6401   -3.1891    0.0000 C   0  0  0  0  0  0  0  0  0  0  0  0
    1.2135   -2.7256    0.0000 N   0  0  0  0  0  0  0  0  0  0  0  0
    0.7500   -1.2990    0.0000 C   0  0  0  0  0  0  0  0  0  0  0  0
    1.5000    0.0000    0.0000 C   0  0  0  0  0  0  0  0  0  0  0  0
    0.7500    1.2990    0.0000 C   0  0  0  0  0  0  0  0  0  0  0  0
   -0.7500    1.2990    0.0000 N   0  0  0  0  0  0  0  0  0  0  0  0
   -1.5000    0.0000    0.0000 C   0  0  0  0  0  0  0  0  0  0  0  0
   -0.7500   -1.2990    0.0000 C   0  0  0  0  0  0  0  0  0  0  0  0
   -1.2135   -2.7256    0.0000 N   0  0  0  0  0  0  0  0  0  0  0  0
   -0.0000   -3.6073    0.0000 C   0  0  0  0  0  0  0  0  0  0  0  0
   -0.0000   -5.1073    0.0000 C   0  0  0  0  0  0  0  0  0  0  0  0
    1.2135   -5.9890    0.0000 C   0  0  0  0  0  0  0  0  0  0  0  0
    0.7500   -7.4156    0.0000 N   0  0  0  0  0  0  0  0  0  0  0  0
   -0.7500   -7.4156    0.0000 O   0  0  0  0  0  0  0  0  0  0  0  0
   -1.2135   -5.9890    0.0000 N   0  0  0  0  0  0  0  0  0  0  0  0
    2.6401   -5.5255    0.0000 N   0  0  0  0  0  0  0  0  0  0  0  0
   -3.0000    0.0000    0.0000 C   0  0  0  0  0  0  0  0  0  0  0  0
   -4.5000    0.0000    0.0000 C   0  0  0  0  0  0  0  0  0  0  0  0
   -6.0000    0.0000    0.0000 C   0  0  0  0  0  0  0  0  0  0  0  0
   -6.0000   -1.5000    0.0000 C   0  0  0  0  0  0  0  0  0  0  0  0
   -6.0000    1.5000    0.0000 C   0  0  0  0  0  0  0  0  0  0  0  0
   -7.5000    0.0000    0.0000 O   0  0  0  0  0  0  0  0  0  0  0  0
    1.5000    2.5981    0.0000 O   0  0  0  0  0  0  0  0  0  0  0  0
    3.0000    2.5981    0.0000 C   0  0  0  0  0  0  0  0  0  0  0  0
    3.7500    3.8971    0.0000 C   0  0  0  0  0  0  0  0  0  0  0  0
    5.2500    3.8971    0.0000 C   0  0  0  0  0  0  0  0  0  0  0  0
    6.0000    5.1962    0.0000 C   0  0  0  0  0  0  0  0  0  0  0  0
    7.5000    5.1962    0.0000 C   0  0  0  0  0  0  0  0  0  0  0  0
    8.2500    6.4952    0.0000 C   0  0  0  0  0  0  0  0  0  0  0  0
    7.5000    7.7942    0.0000 C   0  0  0  0  0  0  0  0  0  0  0  0
    6.0000    7.7942    0.0000 C   0  0  0  0  0  0  0  0  0  0  0  0
    5.2500    6.4952    0.0000 C   0  0  0  0  0  0  0  0  0  0  0  0
    3.0000    5.1962    0.0000 N   0  0  0  0  0  0  0  0  0  0  0  0
  1  2  1  0
  2  3  1  0
  3  4  1  0
  4  5  2  0
  5  6  1  0
  6  7  2  0
  7  8  1  0
  8  9  2  0
  9 10  1  0
 10 11  2  0
 11 12  1  0
 12 13  1  0
 13 14  2  0
 14 15  1  0
 15 16  1  0
 13 17  1  0
  8 18  1  0
 18 19  3  0
 19 20  1  0
 20 21  1  0
 20 22  1  0
 20 23  1  0
  6 24  1  0
 24 25  1  0
 25 26  1  0
 26 27  1  0
 27 28  1  0
 28 29  2  0
 29 30  1  0
 30 31  2  0
 31 32  1  0
 32 33  2  0
 26 34  1  6
 11  3  1  0
  9  4  1  0
 16 12  2  0
 33 28  1  0
M  END
>  <Structure>  (34) 
3E8C

>  <Dataset>  (34) 
PDB

>  <Chain>  (34) 
A and B and C and D and E and F

>  <Spatial_Label>  (34) 
DFGin

>  <Dihedral_Label>  (34) 
BLAminus

>  <C_Helix_Label>  (34) 
Chelix-in

>  <Lig_ID>  (34) 
G96

>  <Lig_Entity_ID>  (34) 
3E8C_3

>  <Lig_Name>  (34) 
4-[2-(4-amino-1,2,5-oxadiazol-3-yl)-6-{[(2R)-2-amino-3-phenylpropyl]oxy}-1-ethyl-1H-imidazo[4,5-c]pyridin-4-yl]-2-methylbut-3-yn-2-ol

>  <Lig_Formula>  (34) 
C24H27N7O3

>  <Lig_SMILES>  (34) 
CCn1c2cc(nc(c2nc1c3c(non3)N)C#CC(C)(C)O)OC[C@@H](Cc4ccccc4)N

>  <Lig_MW>  (34) 
461.516

>  <Lig_ChEMBL_ID>  (34) 
['CHEMBL1098938']

>  <Lig_DrugBank_ID>  (34) 
nan

>  <Occurence>  (34) 
1.0

>  <Lig_SMILES_Uncharged>  (34) 
CCn1c(-c2nonc2N)nc2c(C#CC(C)(C)O)nc(OC[C@H](N)Cc3ccccc3)cc21

>  <Lig_Conformer>  (34) 
['NaN', 'NaN', 'NaN', 'NaN', 'NaN', 'NaN']

>  <Lig_Of_Interest>  (34) 
['Y', 'Y', 'Y', 'Y', 'Y', 'Y']

>  <Lig_Completeness>  (34) 
[1.0, 1.0, 1.0, 1.0, 1.0, 1.0]

>  <Lig_Occupancy>  (34) 
[1.0, 1.0, 1.0, 1.0, 1.0, 1.0]

>  <Lig_RSCC>  (34) 
[0.944, 0.942, 0.922, 0.94, 0.924, 0.925]

>  <Lig_RSR>  (34) 
[0.104, 0.113, 0.142, 0.12, 0.131, 0.134]

>  <Lig_RMSZ_Bonds>  (34) 
[2.3, 2.47, 2.33, 2.42, 2.49, 2.27]

>  <Lig_RMSZ_Angles>  (34) 
[1.23, 1.31, 1.19, 1.26, 1.33, 1.23]

>  <Lig_Alt_Conf>  (34) 
0.0

>  <Title>  (34) 
Crystal structures of the kinase domain of PKA in complex with ATP-competitive inhibitors

>  <Nonpolymer_Entity_Count>  (34) 
6.0

>  <Protein_Entity_Count>  (34) 
12.0

>  <Exp_Method>  (34) 
X-Ray Diffraction

>  <Cryst_Method>  (34) 
Vapor Diffusion; 13-17% Peg 3K-20K, 100 Mm Mes pH 6.5 Or Acetate 4.6, 1-15% Methanol. Seeded, pH 4.5 - 6.5, Vapor Diffusion, Temperature 273K

>  <Deposit_Date>  (34) 
2008-08-19

>  <Resolution>  (34) 
2.2

>  <DOI>  (34) 
https://doi.org/10.1016/j.bmcl.2009.01.002

>  <Source_Organism>  (34) 
Bos taurus

>  <R_Free>  (34) 
0.28988

>  <Keywords>  (34) 
Transferase

>  <REMARK_280>  (34) 
 Crystal Solvent Content, Vs (%): 54.39 Matthews Coefficient, Vm (Angstroms**3/Da): 2.70 Crystallization Conditions: 13-17% Peg 3K-20K, 100 Mm Mes pH 6.5 Or Acetate 4.6, 1-15% Methanol. Seeded, pH 4.5 - 6.5, Vapor Diffusion, Temperature 273K 

>  <REMARK_610>  (34) 
nan

>  <pH>  (34) 
6.5

>  <Cryst_Technique>  (34) 
nan

>  <Sequence>  (34) 
GNAAAAKKGSEQESVKEFLAKAKEDFLKKWENPAQNTAHLDQFERIKTLGTGSFGRVMLVKHMETGNHYAMKILDKQKVVKLKQIEHTLNEKRILQAVNFPFLVKLEFSFKDNSNLYMVMEYVPGGEMFSHLRRIGRFSEPHARFYAAQIVLTFEYLHSLDLIYRDLKPENLLIDQQGYIQVTDFGFAKRVKGRTWTLCGTPEYLAPEIILSKGYNKAVDWWALGVLIYEMAAGYPPFFADQPIQIYEKIVSGKVRFPSHFSSDLKDLLRNLLQVDLTKRFGNLKNGVNDIKNHKWFATTDWIAIYQRKVEAPFIPKFKGPGDTSNFDDYEEEEIRVSINEKCGKEFSEF

>  <Sequence_Length>  (34) 
350.0

>  <Mutation_Count>  (34) 
0.0

>  <Gene_Name>  (34) 
PKACA

>  <MW>  (34) 
40.786

>  <Name>  (34) 
cAMP-Dependent Protein Kinase Catalytic Subunit Alpha

>  <Mutations>  (34) 
nan

>  <EC_Number>  (34) 
2.7.11.11

>  <Peptidic_Inhibitor>  (34) 
True

>  <Lig_Missing_Atoms>  (34) 
['No', 'No', 'No', 'No', 'No', 'No']

>  <PDBbind_Resolution>  (34) 
nan

>  <PDBbind_Release_Year>  (34) 
nan

>  <PDBbind_Comment>  (34) 
nan

>  <PDBbind_Uniprot_Id>  (34) 
nan

>  <PDBbind_Protein_Name>  (34) 
nan

>  <PDBbind_-Logkd/Ki>  (34) 
nan

>  <PDBbind_Kd/Ki>  (34) 
nan

>  <PDBbind_Kd_Or_Ki_Or_Ic50>  (34) 
nan

>  <PDBbind_Relation>  (34) 
nan

>  <PDBbind_Value>  (34) 
nan

>  <PDBbind_Unit>  (34) 
nan

>  <PDBbind_Standard_Value>  (34) 
nan

>  <PDBbind_Standard_Unit>  (34) 
nan

>  <PDB_Chain>  (34) 
['A', 'B', 'C', 'D', 'E', 'F']

>  <Num_Ligs>  (34) 
[1.0, 1.0, 1.0, 1.0, 1.0, 1.0]

>  <Orthosteric>  (34) 
[1.0, 1.0, 1.0, 1.0, 1.0, 1.0]

>  <Allosteric>  (34) 
[0.0, 0.0, 0.0, 0.0, 0.0, 0.0]

>  <Pockets_Assigned>  (34) 
['A+B', 'A+B', 'A+B', 'A+B', 'A+B', 'A+B']

>  <Multisite>  (34) 
[False, False, False, False, False, False]

>  <Same_Number>  (34) 
True

>  <Same_Binding_Site>  (34) 
True

>  <Same_Orientation>  (34) 
True

>  <Lig_Order_in_.pdb>  (34) 
Orthosteric; Orthosteric; Orthosteric; Orthosteric; Orthosteric; Orthosteric

$$$$

     RDKit          2D

 34 37  0  0  0  0  0  0  0  0999 V2000
    3.7548   -2.1855    0.0000 C   0  0  0  0  0  0  0  0  0  0  0  0
    2.6401   -3.1891    0.0000 C   0  0  0  0  0  0  0  0  0  0  0  0
    1.2135   -2.7256    0.0000 N   0  0  0  0  0  0  0  0  0  0  0  0
    0.7500   -1.2990    0.0000 C   0  0  0  0  0  0  0  0  0  0  0  0
    1.5000    0.0000    0.0000 C   0  0  0  0  0  0  0  0  0  0  0  0
    0.7500    1.2990    0.0000 C   0  0  0  0  0  0  0  0  0  0  0  0
   -0.7500    1.2990    0.0000 N   0  0  0  0  0  0  0  0  0  0  0  0
   -1.5000    0.0000    0.0000 C   0  0  0  0  0  0  0  0  0  0  0  0
   -0.7500   -1.2990    0.0000 C   0  0  0  0  0  0  0  0  0  0  0  0
   -1.2135   -2.7256    0.0000 N   0  0  0  0  0  0  0  0  0  0  0  0
   -0.0000   -3.6073    0.0000 C   0  0  0  0  0  0  0  0  0  0  0  0
   -0.0000   -5.1073    0.0000 C   0  0  0  0  0  0  0  0  0  0  0  0
    1.2135   -5.9890    0.0000 C   0  0  0  0  0  0  0  0  0  0  0  0
    0.7500   -7.4156    0.0000 N   0  0  0  0  0  0  0  0  0  0  0  0
   -0.7500   -7.4156    0.0000 O   0  0  0  0  0  0  0  0  0  0  0  0
   -1.2135   -5.9890    0.0000 N   0  0  0  0  0  0  0  0  0  0  0  0
    2.6401   -5.5255    0.0000 N   0  0  0  0  0  0  0  0  0  0  0  0
   -3.0000    0.0000    0.0000 C   0  0  0  0  0  0  0  0  0  0  0  0
   -4.5000    0.0000    0.0000 C   0  0  0  0  0  0  0  0  0  0  0  0
   -6.0000    0.0000    0.0000 C   0  0  0  0  0  0  0  0  0  0  0  0
   -6.0000   -1.5000    0.0000 C   0  0  0  0  0  0  0  0  0  0  0  0
   -6.0000    1.5000    0.0000 C   0  0  0  0  0  0  0  0  0  0  0  0
   -7.5000    0.0000    0.0000 O   0  0  0  0  0  0  0  0  0  0  0  0
    1.5000    2.5981    0.0000 O   0  0  0  0  0  0  0  0  0  0  0  0
    3.0000    2.5981    0.0000 C   0  0  0  0  0  0  0  0  0  0  0  0
    3.7500    3.8971    0.0000 C   0  0  0  0  0  0  0  0  0  0  0  0
    5.2500    3.8971    0.0000 C   0  0  0  0  0  0  0  0  0  0  0  0
    6.0000    5.1962    0.0000 N   0  0  0  0  0  0  0  0  0  0  0  0
    3.7500    1.2990    0.0000 C   0  0  0  0  0  0  0  0  0  0  0  0
    3.0000   -0.0000    0.0000 C   0  0  0  0  0  0  0  0  0  0  0  0
    3.7500   -1.2990    0.0000 C   0  0  0  0  0  0  0  0  0  0  0  0
    5.2500   -1.2990    0.0000 C   0  0  0  0  0  0  0  0  0  0  0  0
    6.0000   -0.0000    0.0000 C   0  0  0  0  0  0  0  0  0  0  0  0
    5.2500    1.2990    0.0000 C   0  0  0  0  0  0  0  0  0  0  0  0
  1  2  1  0
  2  3  1  0
  3  4  1  0
  4  5  2  0
  5  6  1  0
  6  7  2  0
  7  8  1  0
  8  9  2  0
  9 10  1  0
 10 11  2  0
 11 12  1  0
 12 13  2  0
 13 14  1  0
 14 15  1  0
 15 16  1  0
 13 17  1  0
  8 18  1  0
 18 19  3  0
 19 20  1  0
 20 21  1  0
 20 22  1  0
 20 23  1  0
  6 24  1  0
 24 25  1  0
 25 26  1  1
 26 27  1  0
 27 28  1  0
 25 29  1  0
 29 30  2  0
 30 31  1  0
 31 32  2  0
 32 33  1  0
 33 34  2  0
 11  3  1  0
  9  4  1  0
 16 12  1  0
 34 29  1  0
M  END
>  <Structure>  (35) 
3E8E

>  <Dataset>  (35) 
PDB

>  <Chain>  (35) 
A and B and E and I and L and P

>  <Spatial_Label>  (35) 
DFGin

>  <Dihedral_Label>  (35) 
BLAminus

>  <C_Helix_Label>  (35) 
Chelix-in

>  <Lig_ID>  (35) 
G98

>  <Lig_Entity_ID>  (35) 
3E8E_3

>  <Lig_Name>  (35) 
4-[2-(4-amino-2,5-dihydro-1,2,5-oxadiazol-3-yl)-6-{[(1S)-3-amino-1-phenylpropyl]oxy}-1-ethyl-1H-imidazo[4,5-c]pyridin-4-yl]-2-methylbut-3-yn-2-ol

>  <Lig_Formula>  (35) 
C24H29N7O3

>  <Lig_SMILES>  (35) 
CCn1c2cc(nc(c2nc1C3=C(NON3)N)C#CC(C)(C)O)O[C@@H](CCN)c4ccccc4

>  <Lig_MW>  (35) 
463.532

>  <Lig_ChEMBL_ID>  (35) 
nan

>  <Lig_DrugBank_ID>  (35) 
nan

>  <Occurence>  (35) 
1.0

>  <Lig_SMILES_Uncharged>  (35) 
CCn1c(C2=C(N)NON2)nc2c(C#CC(C)(C)O)nc(O[C@@H](CCN)c3ccccc3)cc21

>  <Lig_Conformer>  (35) 
['NaN', 'NaN', 'NaN', 'NaN', 'NaN', 'NaN']

>  <Lig_Of_Interest>  (35) 
['Y', 'Y', 'Y', 'Y', 'Y', 'Y']

>  <Lig_Completeness>  (35) 
[1.0, 1.0, 1.0, 1.0, 1.0, 1.0]

>  <Lig_Occupancy>  (35) 
[1.0, 1.0, 1.0, 1.0, 1.0, 1.0]

>  <Lig_RSCC>  (35) 
[0.901, 0.891, 0.906, 0.888, 0.871, 0.892]

>  <Lig_RSR>  (35) 
[0.154, 0.162, 0.151, 0.152, 0.193, 0.158]

>  <Lig_RMSZ_Bonds>  (35) 
[2.53, 2.42, 2.35, 2.39, 2.44, 2.41]

>  <Lig_RMSZ_Angles>  (35) 
[1.55, 1.63, 1.6, 1.52, 1.45, 1.37]

>  <Lig_Alt_Conf>  (35) 
0.0

>  <Title>  (35) 
Crystal structures of the kinase domain of PKA in complex with ATP-competitive inhibitors

>  <Nonpolymer_Entity_Count>  (35) 
6.0

>  <Protein_Entity_Count>  (35) 
12.0

>  <Exp_Method>  (35) 
X-Ray Diffraction

>  <Cryst_Method>  (35) 
Vapor Diffusion; 13-17% Peg 3K-20K, 100 Mm Mes pH 6.5 Or Acetate 4.6, 1-15% Methanol. Seeded, pH 4.5 - 6.5, Vapor Diffusion, Temperature 273K

>  <Deposit_Date>  (35) 
2008-08-19

>  <Resolution>  (35) 
2.0

>  <DOI>  (35) 
https://doi.org/10.1016/j.bmcl.2009.01.002

>  <Source_Organism>  (35) 
Bos taurus

>  <R_Free>  (35) 
0.2794

>  <Keywords>  (35) 
Transferase

>  <REMARK_280>  (35) 
 Crystal Solvent Content, Vs (%): 54.12 Matthews Coefficient, Vm (Angstroms**3/Da): 2.68 Crystallization Conditions: 13-17% Peg 3K-20K, 100 Mm Mes pH 6.5 Or Acetate 4.6, 1-15% Methanol. Seeded, pH 4.5 - 6.5, Vapor Diffusion, Temperature 273K 

>  <REMARK_610>  (35) 
nan

>  <pH>  (35) 
6.5

>  <Cryst_Technique>  (35) 
nan

>  <Sequence>  (35) 
GNAAAAKKGSEQESVKEFLAKAKEDFLKKWENPAQNTAHLDQFERIKTLGTGSFGRVMLVKHMETGNHYAMKILDKQKVVKLKQIEHTLNEKRILQAVNFPFLVKLEFSFKDNSNLYMVMEYVPGGEMFSHLRRIGRFSEPHARFYAAQIVLTFEYLHSLDLIYRDLKPENLLIDQQGYIQVTDFGFAKRVKGRTWTLCGTPEYLAPEIILSKGYNKAVDWWALGVLIYEMAAGYPPFFADQPIQIYEKIVSGKVRFPSHFSSDLKDLLRNLLQVDLTKRFGNLKNGVNDIKNHKWFATTDWIAIYQRKVEAPFIPKFKGPGDTSNFDDYEEEEIRVSINEKCGKEFSEF

>  <Sequence_Length>  (35) 
350.0

>  <Mutation_Count>  (35) 
0.0

>  <Gene_Name>  (35) 
PKACA

>  <MW>  (35) 
40.786

>  <Name>  (35) 
cAMP-Dependent Protein Kinase Catalytic Subunit Alpha

>  <Mutations>  (35) 
nan

>  <EC_Number>  (35) 
2.7.11.11

>  <Peptidic_Inhibitor>  (35) 
True

>  <Lig_Missing_Atoms>  (35) 
['No', 'No', 'No', 'No', 'No', 'No']

>  <PDBbind_Resolution>  (35) 
nan

>  <PDBbind_Release_Year>  (35) 
nan

>  <PDBbind_Comment>  (35) 
nan

>  <PDBbind_Uniprot_Id>  (35) 
nan

>  <PDBbind_Protein_Name>  (35) 
nan

>  <PDBbind_-Logkd/Ki>  (35) 
nan

>  <PDBbind_Kd/Ki>  (35) 
nan

>  <PDBbind_Kd_Or_Ki_Or_Ic50>  (35) 
nan

>  <PDBbind_Relation>  (35) 
nan

>  <PDBbind_Value>  (35) 
nan

>  <PDBbind_Unit>  (35) 
nan

>  <PDBbind_Standard_Value>  (35) 
nan

>  <PDBbind_Standard_Unit>  (35) 
nan

>  <PDB_Chain>  (35) 
['A', 'C', 'E', 'G', 'I', 'K']

>  <Num_Ligs>  (35) 
[1.0, 1.0, 1.0, 0.0, 1.0, 1.0]

>  <Orthosteric>  (35) 
[1.0, 1.0, 1.0, 0.0, 1.0, 1.0]

>  <Allosteric>  (35) 
[0.0, 0.0, 0.0, 0.0, 0.0, 0.0]

>  <Pockets_Assigned>  (35) 
['A+B', 'A+B', 'A+B', 'A+B', 'A+B', 'A+B']

>  <Multisite>  (35) 
[False, False, False, False, False, False]

>  <Same_Number>  (35) 
False

>  <Same_Binding_Site>  (35) 
True

>  <Same_Orientation>  (35) 
True

>  <Lig_Order_in_.pdb>  (35) 
Orthosteric; Orthosteric; Orthosteric; Orthosteric; Orthosteric; Orthosteric

$$$$

     RDKit          2D

 31 33  0  0  0  0  0  0  0  0999 V2000
    1.5000    0.0000    0.0000 C   0  0  0  0  0  0  0  0  0  0  0  0
    0.7500   -1.2990    0.0000 N   0  0  0  0  0  0  0  0  0  0  0  0
   -0.7500   -1.2990    0.0000 C   0  0  0  0  0  0  0  0  0  0  0  0
   -1.5000    0.0000    0.0000 C   0  0  0  0  0  0  0  0  0  0  0  0
   -0.7500    1.2990    0.0000 C   0  0  0  0  0  0  0  0  0  0  0  0
    0.7500    1.2990    0.0000 N   0  0  0  0  0  0  0  0  0  0  0  0
   -1.7537    2.4138    0.0000 N   0  0  0  0  0  0  0  0  0  0  0  0
   -3.1240    1.8037    0.0000 C   0  0  0  0  0  0  0  0  0  0  0  0
   -2.9672    0.3119    0.0000 N   0  0  0  0  0  0  0  0  0  0  0  0
   -1.4418    3.8810    0.0000 C   0  0  0  0  0  0  0  0  0  0  0  0
   -2.4455    4.9957    0.0000 C   0  0  0  0  0  0  0  0  0  0  0  0
   -1.6955    6.2947    0.0000 C   0  0  0  0  0  0  0  0  0  0  0  0
   -0.2283    5.9829    0.0000 C   0  0  0  0  0  0  0  0  0  0  0  0
   -0.0715    4.4911    0.0000 O   0  0  0  0  0  0  0  0  0  0  0  0
    0.8864    6.9866    0.0000 C   0  0  0  0  0  0  0  0  0  0  0  0
    2.3130    6.5230    0.0000 O   0  0  0  0  0  0  0  0  0  0  0  0
    3.4277    7.5267    0.0000 P   0  0  0  0  0  5  0  0  0  0  0  0
    2.4240    8.6414    0.0000 O   0  0  0  0  0  0  0  0  0  0  0  0
    4.4314    6.4120    0.0000 O   0  0  0  0  0  0  0  0  0  0  0  0
    4.5424    8.5304    0.0000 O   0  0  0  0  0  0  0  0  0  0  0  0
    4.2306    9.9976    0.0000 P   0  0  0  0  0  5  0  0  0  0  0  0
    5.6978   10.3095    0.0000 O   0  0  0  0  0  0  0  0  0  0  0  0
    2.7633    9.6858    0.0000 O   0  0  0  0  0  0  0  0  0  0  0  0
    3.9187   11.4649    0.0000 O   0  0  0  0  0  0  0  0  0  0  0  0
    2.4921   11.9284    0.0000 P   0  0  0  0  0  0  0  0  0  0  0  0
    2.9556   13.3550    0.0000 O   0  0  0  0  0  0  0  0  0  0  0  0
    2.0286   10.5018    0.0000 O   0  0  0  0  0  0  0  0  0  0  0  0
    1.0655   12.3919    0.0000 O   0  0  0  0  0  0  0  0  0  0  0  0
   -2.3056    7.6651    0.0000 O   0  0  0  0  0  0  0  0  0  0  0  0
   -3.9373    4.8389    0.0000 O   0  0  0  0  0  0  0  0  0  0  0  0
   -1.5000   -2.5981    0.0000 N   0  0  0  0  0  0  0  0  0  0  0  0
  1  2  2  0
  2  3  1  0
  3  4  2  0
  4  5  1  0
  5  6  2  0
  5  7  1  0
  7  8  1  0
  8  9  2  0
 10  7  1  1
 10 11  1  0
 11 12  1  0
 12 13  1  0
 13 14  1  0
 13 15  1  1
 15 16  1  0
 16 17  1  0
 17 18  2  0
 17 19  1  1
 17 20  1  0
 20 21  1  0
 21 22  2  0
 21 23  1  1
 21 24  1  0
 24 25  1  0
 25 26  2  0
 25 27  1  0
 25 28  1  0
 12 29  1  6
 11 30  1  6
  3 31  1  0
  6  1  1  0
  9  4  1  0
 14 10  1  0
M  END
>  <Structure>  (36) 
3FJQ

>  <Dataset>  (36) 
PDB

>  <Chain>  (36) 
E

>  <Spatial_Label>  (36) 
DFGin

>  <Dihedral_Label>  (36) 
BLAminus

>  <C_Helix_Label>  (36) 
Chelix-in

>  <Lig_ID>  (36) 
ATP

>  <Lig_Entity_ID>  (36) 
3FJQ_4

>  <Lig_Name>  (36) 
ADENOSINE-5'-TRIPHOSPHATE

>  <Lig_Formula>  (36) 
C10H16N5O13P3

>  <Lig_SMILES>  (36) 
c1nc(c2c(n1)n(cn2)[C@H]3[C@@H]([C@@H]([C@H](O3)CO[P@@](=O)(O)O[P@](=O)(O)OP(=O)(O)O)O)O)N

>  <Lig_MW>  (36) 
507.181

>  <Lig_ChEMBL_ID>  (36) 
['CHEMBL14249']

>  <Lig_DrugBank_ID>  (36) 
['DB00171']

>  <Occurence>  (36) 
14.0

>  <Lig_SMILES_Uncharged>  (36) 
Nc1ncnc2c1ncn2[C@@H]1O[C@H](CO[P@@](=O)(O)O[P@](=O)(O)OP(=O)(O)O)[C@@H](O)[C@H]1O

>  <Lig_Conformer>  (36) 
['NaN']

>  <Lig_Of_Interest>  (36) 
['Y']

>  <Lig_Completeness>  (36) 
[1.0]

>  <Lig_Occupancy>  (36) 
[1.0]

>  <Lig_RSCC>  (36) 
[0.969]

>  <Lig_RSR>  (36) 
[0.112]

>  <Lig_RMSZ_Bonds>  (36) 
[1.64]

>  <Lig_RMSZ_Angles>  (36) 
[1.2]

>  <Lig_Alt_Conf>  (36) 
0.0

>  <Title>  (36) 
Crystal structure of cAMP-dependent protein kinase catalytic subunit alpha in complex with peptide inhibitor PKI alpha (6-25)

>  <Nonpolymer_Entity_Count>  (36) 
3.0

>  <Protein_Entity_Count>  (36) 
2.0

>  <Exp_Method>  (36) 
X-Ray Diffraction

>  <Cryst_Method>  (36) 
Vapor Diffusion, Hanging Drop; Protein Solution: 10Mm Mops Buffer pH 7.0, 50 Mm Nacl, 3Mm Mncl2, 0.2 Mm Atp. Well Solution: 0.5 M (Nh4)2So4, 0.1 M Hepes, 10 % Mpd, Vapor Diffusion, Hanging Drop, Temperature 278K

>  <Deposit_Date>  (36) 
2008-12-15

>  <Resolution>  (36) 
1.6

>  <DOI>  (36) 
https://doi.org/10.1002/pro.209

>  <Source_Organism>  (36) 
Mus musculus

>  <R_Free>  (36) 
0.205

>  <Keywords>  (36) 
Transferase

>  <REMARK_280>  (36) 
 Crystal Solvent Content, Vs (%): 53.35 Matthews Coefficient, Vm (Angstroms**3/Da): 2.64 Crystallization Conditions: Protein Solution: 10Mm Mops Buffer pH 7.0, 50 Mm Nacl, 3Mm Mncl2, 0.2 Mm Atp. Well Solution: 0.5 M (Nh4)2So4, 0.1 M Hepes, 10 % Mpd, Vapor Diffusion, Hanging Drop, Temperature 278K, pH 7.5 

>  <REMARK_610>  (36) 
nan

>  <pH>  (36) 
7.0

>  <Cryst_Technique>  (36) 
co-crystallized

>  <Sequence>  (36) 
GNAAAAKKGSEQESVKEFLAKAKEDFLKKWETPSQNTAQLDQFDRIKTLGTGSFGRVMLVKHKESGNHYAMKILDKQKVVKLKQIEHTLNEKRILQAVNFPFLVKLEFSFKDNSNLYMVMEYVAGGEMFSHLRRIGRFSEPHARFYAAQIVLTFEYLHSLDLIYRDLKPENLLIDQQGYIQVTDFGFAKRVKGRTWTLCGTPEYLAPEIILSKGYNKAVDWWALGVLIYEMAAGYPPFFADQPIQIYEKIVSGKVRFPSHFSSDLKDLLRNLLQVDLTKRFGNLKNGVNDIKNHKWFATTDWIAIYQRKVEAPFIPKFKGPGDTSNFDDYEEEEIRVSINEKCGKEFTEF

>  <Sequence_Length>  (36) 
350.0

>  <Mutation_Count>  (36) 
0.0

>  <Gene_Name>  (36) 
PKACA

>  <MW>  (36) 
40.657

>  <Name>  (36) 
cAMP-Dependent Protein Kinase Catalytic Subunit Alpha

>  <Mutations>  (36) 
nan

>  <EC_Number>  (36) 
2.7.11.11

>  <Peptidic_Inhibitor>  (36) 
True

>  <Lig_Missing_Atoms>  (36) 
['No']

>  <PDBbind_Resolution>  (36) 
nan

>  <PDBbind_Release_Year>  (36) 
nan

>  <PDBbind_Comment>  (36) 
nan

>  <PDBbind_Uniprot_Id>  (36) 
nan

>  <PDBbind_Protein_Name>  (36) 
nan

>  <PDBbind_-Logkd/Ki>  (36) 
nan

>  <PDBbind_Kd/Ki>  (36) 
nan

>  <PDBbind_Kd_Or_Ki_Or_Ic50>  (36) 
nan

>  <PDBbind_Relation>  (36) 
nan

>  <PDBbind_Value>  (36) 
nan

>  <PDBbind_Unit>  (36) 
nan

>  <PDBbind_Standard_Value>  (36) 
nan

>  <PDBbind_Standard_Unit>  (36) 
nan

>  <PDB_Chain>  (36) 
['E']

>  <Num_Ligs>  (36) 
[1.0]

>  <Orthosteric>  (36) 
[1.0]

>  <Allosteric>  (36) 
[0.0]

>  <Pockets_Assigned>  (36) 
['A']

>  <Multisite>  (36) 
[False]

>  <Same_Number>  (36) 
True

>  <Same_Binding_Site>  (36) 
True

>  <Same_Orientation>  (36) 
True

>  <Lig_Order_in_.pdb>  (36) 
Orthosteric

$$$$

     RDKit          2D

 35 40  0  0  0  0  0  0  0  0999 V2000
    2.6401   -3.1891    0.0000 C   0  0  0  0  0  0  0  0  0  0  0  0
    1.2135   -2.7256    0.0000 C   0  0  0  0  0  0  0  0  0  0  0  0
    0.7500   -1.2990    0.0000 C   0  0  0  0  0  0  0  0  0  0  0  0
    1.5000    0.0000    0.0000 C   0  0  0  0  0  0  0  0  0  0  0  0
    0.7500    1.2990    0.0000 C   0  0  0  0  0  0  0  0  0  0  0  0
   -0.7500    1.2990    0.0000 C   0  0  0  0  0  0  0  0  0  0  0  0
   -1.5000    0.0000    0.0000 C   0  0  0  0  0  0  0  0  0  0  0  0
   -0.7500   -1.2990    0.0000 C   0  0  0  0  0  0  0  0  0  0  0  0
   -1.2135   -2.7256    0.0000 N   0  0  0  0  0  0  0  0  0  0  0  0
   -0.0000   -3.6073    0.0000 N   0  0  0  0  0  0  0  0  0  0  0  0
    1.5000    2.5981    0.0000 C   0  0  0  0  0  0  0  0  0  0  0  0
    3.0000    2.5981    0.0000 C   0  0  0  0  0  0  0  0  0  0  0  0
    3.7500    3.8971    0.0000 C   0  0  0  0  0  0  0  0  0  0  0  0
    3.0000    5.1962    0.0000 C   0  0  0  0  0  0  0  0  0  0  0  0
    1.5000    5.1962    0.0000 N   0  0  0  0  0  0  0  0  0  0  0  0
    0.7500    3.8971    0.0000 C   0  0  0  0  0  0  0  0  0  0  0  0
   -0.7500    3.8971    0.0000 C   0  0  0  0  0  0  0  0  0  0  0  0
   -1.6317    2.6836    0.0000 C   0  0  0  0  0  0  0  0  0  0  0  0
   -3.0583    3.1471    0.0000 C   0  0  0  0  0  0  0  0  0  0  0  0
   -3.0583    4.6471    0.0000 O   0  0  0  0  0  0  0  0  0  0  0  0
   -1.6317    5.1106    0.0000 C   0  0  0  0  0  0  0  0  0  0  0  0
    5.2500    3.8971    0.0000 O   0  0  0  0  0  0  0  0  0  0  0  0
    6.0000    2.5981    0.0000 C   0  0  0  0  0  0  0  0  0  0  0  0
    7.5000    2.5981    0.0000 C   0  0  0  0  0  0  0  0  0  0  0  0
    8.2500    1.2990    0.0000 C   0  0  0  0  0  0  0  0  0  0  0  0
    9.7500    1.2990    0.0000 C   0  0  0  0  0  0  0  0  0  0  0  0
   10.6317    2.5126    0.0000 C   0  0  0  0  0  0  0  0  0  0  0  0
   12.0583    2.0490    0.0000 N   0  0  0  0  0  0  0  0  0  0  0  0
   12.0583    0.5490    0.0000 C   0  0  0  0  0  0  0  0  0  0  0  0
   10.6317    0.0855    0.0000 C   0  0  0  0  0  0  0  0  0  0  0  0
   10.3198   -1.3817    0.0000 C   0  0  0  0  0  0  0  0  0  0  0  0
   11.4345   -2.3854    0.0000 C   0  0  0  0  0  0  0  0  0  0  0  0
   12.8611   -1.9219    0.0000 C   0  0  0  0  0  0  0  0  0  0  0  0
   13.1730   -0.4547    0.0000 C   0  0  0  0  0  0  0  0  0  0  0  0
    8.2500    3.8971    0.0000 N   0  0  0  0  0  0  0  0  0  0  0  0
  1  2  1  0
  2  3  2  0
  3  4  1  0
  4  5  2  0
  5  6  1  0
  6  7  2  0
  7  8  1  0
  8  9  2  0
  9 10  1  0
  5 11  1  0
 11 12  2  0
 12 13  1  0
 13 14  2  0
 14 15  1  0
 15 16  2  0
 16 17  1  0
 17 18  1  0
 18 19  2  0
 19 20  1  0
 20 21  1  0
 13 22  1  0
 22 23  1  0
 23 24  1  0
 24 25  1  0
 25 26  1  0
 26 27  2  0
 27 28  1  0
 28 29  1  0
 29 30  2  0
 30 31  1  0
 31 32  2  0
 32 33  1  0
 33 34  2  0
 24 35  1  1
 10  2  1  0
  8  3  1  0
 16 11  1  0
 21 17  2  0
 30 26  1  0
 34 29  1  0
M  END
>  <Structure>  (37) 
3KKV

>  <Dataset>  (37) 
PDB

>  <Chain>  (37) 
A

>  <Spatial_Label>  (37) 
DFGin

>  <Dihedral_Label>  (37) 
BLAminus

>  <C_Helix_Label>  (37) 
Chelix-in

>  <Lig_ID>  (37) 
B99

>  <Lig_Entity_ID>  (37) 
3KKV_3

>  <Lig_Name>  (37) 
(2S)-1-{[6-furan-3-yl-5-(3-methyl-2H-indazol-5-yl)pyridin-3-yl]oxy}-3-(1H-indol-3-yl)propan-2-amine

>  <Lig_Formula>  (37) 
C28H25N5O2

>  <Lig_SMILES>  (37) 
Cc1c2cc(ccc2n[nH]1)c3cc(cnc3c4ccoc4)OC[C@H](Cc5c[nH]c6c5cccc6)N

>  <Lig_MW>  (37) 
463.53

>  <Lig_ChEMBL_ID>  (37) 
['CHEMBL593490']

>  <Lig_DrugBank_ID>  (37) 
nan

>  <Occurence>  (37) 
1.0

>  <Lig_SMILES_Uncharged>  (37) 
Cc1[nH]nc2ccc(-c3cc(OC[C@@H](N)Cc4c[nH]c5ccccc45)cnc3-c3ccoc3)cc12

>  <Lig_Conformer>  (37) 
['NaN']

>  <Lig_Of_Interest>  (37) 
['Y']

>  <Lig_Completeness>  (37) 
[1.0]

>  <Lig_Occupancy>  (37) 
[1.0]

>  <Lig_RSCC>  (37) 
[0.889]

>  <Lig_RSR>  (37) 
[0.154]

>  <Lig_RMSZ_Bonds>  (37) 
[1.53]

>  <Lig_RMSZ_Angles>  (37) 
[3.23]

>  <Lig_Alt_Conf>  (37) 
0.0

>  <Title>  (37) 
Structure of PKA with a protein Kinase B-selective inhibitor.

>  <Nonpolymer_Entity_Count>  (37) 
1.0

>  <Protein_Entity_Count>  (37) 
2.0

>  <Exp_Method>  (37) 
X-Ray Diffraction

>  <Cryst_Method>  (37) 
Vapor Diffusion, Sitting Drop; Protein Stock Was At 20Mg/Ml In 25Mm Mes-Bis Tris, pH 6.4, 75Mm Licl, 0.1M Edta, 1Mm Dtt.     
The Final Concentration Of Inhibitor In The Protein Solution Was 1Mm From A 100Mm Stock Solution Of Compound Dissolved In Dmso.The Protein Was Reacted With Inhibitor On Ice For 6 Hours Prior To Crystallization.The Final Concentration Of Pki In The Protein Solution Was 2Mm From Stock 100Mm Dissolved In Water.  The Final Concentration Of Mega8 In The Protein Solution Was 1.5Mm From 225Mm Stock Diluted From 790Mm In The Hampton Additive Kit With Water.  Two Microliters Of Protein Were Added To 0.35 Microliters Of 10% Glycerol In Buffer And Put In Sitting Drops Over 15% Methanol Diluted With Water At 4C.  Cryo Was 100Mm Mes pH6.4, 100Mm Licl, 25% Meoh, 20% Mpd., Vapor Diffusion, Sitting Drop, Temperature 294K

>  <Deposit_Date>  (37) 
2009-11-06

>  <Resolution>  (37) 
1.8

>  <DOI>  (37) 
nan

>  <Source_Organism>  (37) 
Bos taurus

>  <R_Free>  (37) 
0.2252

>  <Keywords>  (37) 
Transferase/Transferase Inhibitor

>  <REMARK_280>  (37) 
 Crystal Solvent Content, Vs (%): 52.16 Matthews Coefficient, Vm (Angstroms**3/Da): 2.57 Crystallization Conditions: Protein Stock Was At 20Mg/Ml In 25Mm Mes-Bis Tris, pH 6.4, 75Mm Licl, 0.1M Edta, 1Mm Dtt. The Final Concentration Of Inhibitor In The Protein Solution Was 1Mm From A 100Mm Stock Solution Of Compound Dissolved In Dmso.The Protein Was Reacted With Inhibitor On Ice For 6 Hours Prior To Crystallization.The Final Concentration Of Pki In The Protein Solution Was 2Mm From Stock 100Mm Dissolved In Water. The Final Concentration Of Mega8 In The Protein Solution Was 1.5Mm From 225Mm Stock Diluted From 790Mm In The Hampton Additive Kit With Water. Two Microliters Of Protein Were Added To 0.35 Microliters Of 10% Glycerol In Buffer And Put In Sitting Drops Over 15% Methanol Diluted With Water At 4C. Cryo Was 100Mm Mes pH6.4, 100Mm Licl, 25% Meoh, 20% Mpd., Vapor Diffusion, Sitting Drop, Temperature 294K 

>  <REMARK_610>  (37) 
nan

>  <pH>  (37) 
6.4

>  <Cryst_Technique>  (37) 
nan

>  <Sequence>  (37) 
GNAAAAKKGSEQESVKEFLAKAKEDFLKKWENPAQNTAHLDQFERIKTLGTGSFGRVMLVKHMETGNHYAMKILDKQKVVKLKQIEHTLNEKRILQAVNFPFLVKLEFSFKDNSNLYMVMEYVPGGEMFSHLRRIGRFSEPHARFYAAQIVLTFEYLHSLDLIYRDLKPENLLIDQQGYIQVTDFGFAKRVKGRTWTLCGTPEYLAPEIILSKGYNKAVDWWALGVLIYEMAAGYPPFFADQPIQIYEKIVSGKVRFPSHFSSDLKDLLRNLLQVDLTKRFGNLKNGVNDIKNHKWFATTDWIAIYQRKVEAPFIPKFKGPGDTSNFDDYEEEEIRVSINEKCGKEFSEF

>  <Sequence_Length>  (37) 
350.0

>  <Mutation_Count>  (37) 
0.0

>  <Gene_Name>  (37) 
nan

>  <MW>  (37) 
40.786

>  <Name>  (37) 
cAMP-Dependent Protein Kinase Catalytic Subunit Alpha

>  <Mutations>  (37) 
nan

>  <EC_Number>  (37) 
2.7.11.11

>  <Peptidic_Inhibitor>  (37) 
True

>  <Lig_Missing_Atoms>  (37) 
['No']

>  <PDBbind_Resolution>  (37) 
nan

>  <PDBbind_Release_Year>  (37) 
nan

>  <PDBbind_Comment>  (37) 
nan

>  <PDBbind_Uniprot_Id>  (37) 
nan

>  <PDBbind_Protein_Name>  (37) 
nan

>  <PDBbind_-Logkd/Ki>  (37) 
nan

>  <PDBbind_Kd/Ki>  (37) 
nan

>  <PDBbind_Kd_Or_Ki_Or_Ic50>  (37) 
nan

>  <PDBbind_Relation>  (37) 
nan

>  <PDBbind_Value>  (37) 
nan

>  <PDBbind_Unit>  (37) 
nan

>  <PDBbind_Standard_Value>  (37) 
nan

>  <PDBbind_Standard_Unit>  (37) 
nan

>  <PDB_Chain>  (37) 
['A']

>  <Num_Ligs>  (37) 
[1.0]

>  <Orthosteric>  (37) 
[1.0]

>  <Allosteric>  (37) 
[0.0]

>  <Pockets_Assigned>  (37) 
['A']

>  <Multisite>  (37) 
[False]

>  <Same_Number>  (37) 
True

>  <Same_Binding_Site>  (37) 
True

>  <Same_Orientation>  (37) 
True

>  <Lig_Order_in_.pdb>  (37) 
Orthosteric

$$$$

     RDKit          2D

 30 33  0  0  0  0  0  0  0  0999 V2000
    8.9417   -8.1543    0.0000 C   0  0  0  0  0  0  0  0  0  0  0  0
   10.3120   -8.7644    0.0000 C   0  0  0  0  0  0  0  0  0  0  0  0
   10.4688  -10.2562    0.0000 C   0  0  0  0  0  0  0  0  0  0  0  0
    9.2553  -11.1379    0.0000 C   0  0  0  0  0  0  0  0  0  0  0  0
    7.8850  -10.5278    0.0000 C   0  0  0  0  0  0  0  0  0  0  0  0
    7.7282   -9.0360    0.0000 C   0  0  0  0  0  0  0  0  0  0  0  0
    6.3579   -8.4259    0.0000 C   0  0  0  0  0  0  0  0  0  0  0  0
    6.2011   -6.9341    0.0000 C   0  0  0  0  0  0  0  0  0  0  0  0
    4.8308   -6.3240    0.0000 C   0  0  0  0  0  0  0  0  0  0  0  0
    4.6740   -4.8322    0.0000 N   0  0  0  0  0  0  0  0  0  0  0  0
    3.3037   -4.2221    0.0000 C   0  0  0  0  0  0  0  0  0  0  0  0
    2.0046   -4.9721    0.0000 N   0  0  0  0  0  0  0  0  0  0  0  0
    0.8899   -3.9684    0.0000 C   0  0  0  0  0  0  0  0  0  0  0  0
    1.5000   -2.5981    0.0000 C   0  0  0  0  0  0  0  0  0  0  0  0
    2.9918   -2.7549    0.0000 S   0  0  0  0  0  0  0  0  0  0  0  0
    0.7500   -1.2990    0.0000 C   0  0  0  0  0  0  0  0  0  0  0  0
    1.5000    0.0000    0.0000 C   0  0  0  0  0  0  0  0  0  0  0  0
    0.7500    1.2990    0.0000 C   0  0  0  0  0  0  0  0  0  0  0  0
   -0.7500    1.2990    0.0000 C   0  0  0  0  0  0  0  0  0  0  0  0
   -1.5000    0.0000    0.0000 C   0  0  0  0  0  0  0  0  0  0  0  0
   -0.7500   -1.2990    0.0000 C   0  0  0  0  0  0  0  0  0  0  0  0
   -2.9672    0.3119    0.0000 C   0  0  0  0  0  0  0  0  0  0  0  0
   -3.1240    1.8037    0.0000 C   0  0  0  0  0  0  0  0  0  0  0  0
   -4.4231    2.5537    0.0000 O   0  0  0  0  0  0  0  0  0  0  0  0
   -1.7537    2.4138    0.0000 N   0  0  0  0  0  0  0  0  0  0  0  0
    7.4146   -6.0524    0.0000 N   0  0  0  0  0  0  0  0  0  0  0  0
   11.8391  -10.8663    0.0000 C   0  0  0  0  0  0  0  0  0  0  0  0
   13.2095  -11.4764    0.0000 F   0  0  0  0  0  0  0  0  0  0  0  0
   11.2290  -12.2366    0.0000 F   0  0  0  0  0  0  0  0  0  0  0  0
   12.4492   -9.4960    0.0000 F   0  0  0  0  0  0  0  0  0  0  0  0
  1  2  2  0
  2  3  1  0
  3  4  2  0
  4  5  1  0
  5  6  2  0
  6  7  1  0
  7  8  1  0
  8  9  1  0
  9 10  1  0
 10 11  1  0
 11 12  2  0
 12 13  1  0
 13 14  2  0
 14 15  1  0
 14 16  1  0
 16 17  2  0
 17 18  1  0
 18 19  2  0
 19 20  1  0
 20 21  2  0
 20 22  1  0
 22 23  1  0
 23 24  2  0
 23 25  1  0
  8 26  1  1
  3 27  1  0
 27 28  1  0
 27 29  1  0
 27 30  1  0
  6  1  1  0
 15 11  1  0
 21 16  1  0
 25 19  1  0
M  END
>  <Structure>  (38) 
3L9L

>  <Dataset>  (38) 
PDB

>  <Chain>  (38) 
A

>  <Spatial_Label>  (38) 
DFGin

>  <Dihedral_Label>  (38) 
BLAminus

>  <C_Helix_Label>  (38) 
Chelix-in

>  <Lig_ID>  (38) 
L9L

>  <Lig_Entity_ID>  (38) 
3L9L_3

>  <Lig_Name>  (38) 
5-[2-({(2S)-2-amino-3-[4-(trifluoromethyl)phenyl]propyl}amino)-1,3-thiazol-5-yl]-1,3-dihydro-2H-indol-2-one

>  <Lig_Formula>  (38) 
C21H19F3N4OS

>  <Lig_SMILES>  (38) 
c1cc(ccc1C[C@@H](CNc2ncc(s2)c3ccc4c(c3)CC(=O)N4)N)C(F)(F)F

>  <Lig_MW>  (38) 
432.462

>  <Lig_ChEMBL_ID>  (38) 
['CHEMBL1081831']

>  <Lig_DrugBank_ID>  (38) 
nan

>  <Occurence>  (38) 
1.0

>  <Lig_SMILES_Uncharged>  (38) 
N[C@H](CNc1ncc(-c2ccc3c(c2)CC(=O)N3)s1)Cc1ccc(C(F)(F)F)cc1

>  <Lig_Conformer>  (38) 
['NaN', 'NaN']

>  <Lig_Of_Interest>  (38) 
['Y', 'Y']

>  <Lig_Completeness>  (38) 
[1.0, 1.0]

>  <Lig_Occupancy>  (38) 
[1.0, 1.0]

>  <Lig_RSCC>  (38) 
[0.951, 0.953]

>  <Lig_RSR>  (38) 
[0.087, 0.091]

>  <Lig_RMSZ_Bonds>  (38) 
[2.66, 2.63]

>  <Lig_RMSZ_Angles>  (38) 
[2.68, 3.03]

>  <Lig_Alt_Conf>  (38) 
0.0

>  <Title>  (38) 
Crystal structure of pka with compound 36

>  <Nonpolymer_Entity_Count>  (38) 
2.0

>  <Protein_Entity_Count>  (38) 
4.0

>  <Exp_Method>  (38) 
X-Ray Diffraction

>  <Cryst_Method>  (38) 
Vapor Diffusion, Hanging Drop; 1.0 M Licl, 20-30% Peg6K, pH 8.0, Vapor Diffusion, Hanging Drop, Temperature 277K

>  <Deposit_Date>  (38) 
2010-01-05

>  <Resolution>  (38) 
2.0

>  <DOI>  (38) 
https://doi.org/10.1016/j.bmcl.2010.01.067

>  <Source_Organism>  (38) 
Homo sapiens

>  <R_Free>  (38) 
0.262

>  <Keywords>  (38) 
Transferase/Transferase Inhibitor

>  <REMARK_280>  (38) 
 Crystal Solvent Content, Vs (%): 46.18 Matthews Coefficient, Vm (Angstroms**3/Da): 2.29 Crystallization Conditions: 1.0 M Licl, 20-30% Peg6K, pH 8.0, Vapor Diffusion, Hanging Drop, Temperature 277K 

>  <REMARK_610>  (38) 
nan

>  <pH>  (38) 
8.0

>  <Cryst_Technique>  (38) 
co-crystallized

>  <Sequence>  (38) 
MGNAAAAKKGSEQESVKEFLAKAKEDFLKKWESPAQNTAHLDQFERIKTLGTGSFGRVMLVKHKETGNHYAMKILDKQKVVKLKQIEHTLNEKRILQAVNFPFLVKLEFSFKDNSNLYMVMEYVPGGEMFSHLRRIGRFSEPHARFYAAQIVLTFEYLHSLDLIYRDLKPENLLIDQQGYIQVTDFGFAKRVKGRTWTLCGTPEYLAPEIILSKGYNKAVDWWALGVLIYEMAAGYPPFFADQPIQIYEKIVSGKVRFPSHFSSDLKDLLRNLLQVDLTKRFGNLKNGVNDIKNHKWFATTDWIAIYQRKVEAPFIPKFKGPGDTSNFDDYEEEEIRVSINEKCGKEFSEF

>  <Sequence_Length>  (38) 
351.0

>  <Mutation_Count>  (38) 
0.0

>  <Gene_Name>  (38) 
PKACA

>  <MW>  (38) 
40.809

>  <Name>  (38) 
cAMP-Dependent Protein Kinase Catalytic Subunit Alpha

>  <Mutations>  (38) 
nan

>  <EC_Number>  (38) 
2.7.11.11

>  <Peptidic_Inhibitor>  (38) 
True

>  <Lig_Missing_Atoms>  (38) 
['No', 'No']

>  <PDBbind_Resolution>  (38) 
2.0

>  <PDBbind_Release_Year>  (38) 
2011.0

>  <PDBbind_Comment>  (38) 
compound 36; IC50=167+/-50nM

>  <PDBbind_Uniprot_Id>  (38) 
P17612

>  <PDBbind_Protein_Name>  (38) 
CAMP-DEPENDENT PROTEIN KINASE, ALPHA-CATALYTIC

>  <PDBbind_-Logkd/Ki>  (38) 
6.78

>  <PDBbind_Kd/Ki>  (38) 
IC=167nM

>  <PDBbind_Kd_Or_Ki_Or_Ic50>  (38) 
IC50

>  <PDBbind_Relation>  (38) 
=

>  <PDBbind_Value>  (38) 
167.0

>  <PDBbind_Unit>  (38) 
nM

>  <PDBbind_Standard_Value>  (38) 
167.0

>  <PDBbind_Standard_Unit>  (38) 
nM

>  <PDB_Chain>  (38) 
['A', 'B']

>  <Num_Ligs>  (38) 
[1.0, 1.0]

>  <Orthosteric>  (38) 
[1.0, 1.0]

>  <Allosteric>  (38) 
[0.0, 0.0]

>  <Pockets_Assigned>  (38) 
['A', 'A']

>  <Multisite>  (38) 
[False, False]

>  <Same_Number>  (38) 
True

>  <Same_Binding_Site>  (38) 
True

>  <Same_Orientation>  (38) 
True

>  <Lig_Order_in_.pdb>  (38) 
Orthosteric; Orthosteric

$$$$

     RDKit          2D

 27 30  0  0  0  0  0  0  0  0999 V2000
   11.8391  -10.8663    0.0000 C   0  0  0  0  0  0  0  0  0  0  0  0
   10.4688  -10.2562    0.0000 C   0  0  0  0  0  0  0  0  0  0  0  0
    9.2553  -11.1379    0.0000 C   0  0  0  0  0  0  0  0  0  0  0  0
    7.8850  -10.5278    0.0000 C   0  0  0  0  0  0  0  0  0  0  0  0
    7.7282   -9.0360    0.0000 C   0  0  0  0  0  0  0  0  0  0  0  0
    8.9417   -8.1543    0.0000 C   0  0  0  0  0  0  0  0  0  0  0  0
   10.3120   -8.7644    0.0000 C   0  0  0  0  0  0  0  0  0  0  0  0
    6.3579   -8.4259    0.0000 C   0  0  0  0  0  0  0  0  0  0  0  0
    6.2011   -6.9341    0.0000 C   0  0  0  0  0  0  0  0  0  0  0  0
    4.8308   -6.3240    0.0000 C   0  0  0  0  0  0  0  0  0  0  0  0
    4.6740   -4.8322    0.0000 N   0  0  0  0  0  0  0  0  0  0  0  0
    3.3037   -4.2221    0.0000 C   0  0  0  0  0  0  0  0  0  0  0  0
    2.0046   -4.9721    0.0000 N   0  0  0  0  0  0  0  0  0  0  0  0
    0.8899   -3.9684    0.0000 N   0  0  0  0  0  0  0  0  0  0  0  0
    1.5000   -2.5981    0.0000 C   0  0  0  0  0  0  0  0  0  0  0  0
    2.9918   -2.7549    0.0000 S   0  0  0  0  0  0  0  0  0  0  0  0
    0.7500   -1.2990    0.0000 C   0  0  0  0  0  0  0  0  0  0  0  0
    1.5000    0.0000    0.0000 C   0  0  0  0  0  0  0  0  0  0  0  0
    0.7500    1.2990    0.0000 C   0  0  0  0  0  0  0  0  0  0  0  0
   -0.7500    1.2990    0.0000 C   0  0  0  0  0  0  0  0  0  0  0  0
   -1.5000    0.0000    0.0000 C   0  0  0  0  0  0  0  0  0  0  0  0
   -0.7500   -1.2990    0.0000 C   0  0  0  0  0  0  0  0  0  0  0  0
   -2.9672    0.3119    0.0000 C   0  0  0  0  0  0  0  0  0  0  0  0
   -3.1240    1.8037    0.0000 N   0  0  0  0  0  0  0  0  0  0  0  0
   -1.7537    2.4138    0.0000 N   0  0  0  0  0  0  0  0  0  0  0  0
   -4.0819   -0.6918    0.0000 C   0  0  0  0  0  0  0  0  0  0  0  0
    7.4146   -6.0524    0.0000 N   0  0  0  0  0  0  0  0  0  0  0  0
  1  2  1  0
  2  3  2  0
  3  4  1  0
  4  5  2  0
  5  6  1  0
  6  7  2  0
  5  8  1  0
  8  9  1  0
  9 10  1  0
 10 11  1  0
 11 12  1  0
 12 13  2  0
 13 14  1  0
 14 15  2  0
 15 16  1  0
 15 17  1  0
 17 18  2  0
 18 19  1  0
 19 20  2  0
 20 21  1  0
 21 22  2  0
 21 23  1  0
 23 24  2  0
 24 25  1  0
 23 26  1  0
  9 27  1  1
  7  2  1  0
 16 12  1  0
 22 17  1  0
 25 20  1  0
M  END
>  <Structure>  (39) 
3L9M

>  <Dataset>  (39) 
PDB

>  <Chain>  (39) 
A

>  <Spatial_Label>  (39) 
DFGin

>  <Dihedral_Label>  (39) 
BLAminus

>  <C_Helix_Label>  (39) 
Chelix-in

>  <Lig_ID>  (39) 
L9M

>  <Lig_Entity_ID>  (39) 
3L9M_3

>  <Lig_Name>  (39) 
(2S)-N~1~-[5-(3-methyl-1H-indazol-5-yl)-1,3,4-thiadiazol-2-yl]-3-(4-methylphenyl)propane-1,2-diamine

>  <Lig_Formula>  (39) 
C20H22N6S

>  <Lig_SMILES>  (39) 
Cc1ccc(cc1)C[C@@H](CNc2nnc(s2)c3ccc4c(c3)c(n[nH]4)C)N

>  <Lig_MW>  (39) 
378.494

>  <Lig_ChEMBL_ID>  (39) 
nan

>  <Lig_DrugBank_ID>  (39) 
nan

>  <Occurence>  (39) 
1.0

>  <Lig_SMILES_Uncharged>  (39) 
Cc1ccc(C[C@H](N)CNc2nnc(-c3ccc4[nH]nc(C)c4c3)s2)cc1

>  <Lig_Conformer>  (39) 
['NaN', 'NaN']

>  <Lig_Of_Interest>  (39) 
['Y', 'Y']

>  <Lig_Completeness>  (39) 
[1.0, 1.0]

>  <Lig_Occupancy>  (39) 
[1.0, 1.0]

>  <Lig_RSCC>  (39) 
[0.824, 0.822]

>  <Lig_RSR>  (39) 
[0.165, 0.167]

>  <Lig_RMSZ_Bonds>  (39) 
[3.32, 3.09]

>  <Lig_RMSZ_Angles>  (39) 
[2.41, 2.65]

>  <Lig_Alt_Conf>  (39) 
0.0

>  <Title>  (39) 
Crystal structure of PKAB3 (pka triple mutant V123A, L173M, Q181K) with compound 18

>  <Nonpolymer_Entity_Count>  (39) 
2.0

>  <Protein_Entity_Count>  (39) 
4.0

>  <Exp_Method>  (39) 
X-Ray Diffraction

>  <Cryst_Method>  (39) 
Vapor Diffusion, Hanging Drop; 1.0 M Licl, 20-30% Peg6K, pH 8.0, Vapor Diffusion, Hanging Drop, Temperature 277K

>  <Deposit_Date>  (39) 
2010-01-05

>  <Resolution>  (39) 
1.9

>  <DOI>  (39) 
https://doi.org/10.1016/j.bmcl.2010.01.067

>  <Source_Organism>  (39) 
Homo sapiens

>  <R_Free>  (39) 
0.27

>  <Keywords>  (39) 
Transferase/Transferase Inhibitor

>  <REMARK_280>  (39) 
 Crystal Solvent Content, Vs (%): 46.81 Matthews Coefficient, Vm (Angstroms**3/Da): 2.31 Crystallization Conditions: 1.0 M Licl, 20-30% Peg6K, pH 8.0, Vapor Diffusion, Hanging Drop, Temperature 277K 

>  <REMARK_610>  (39) 
nan

>  <pH>  (39) 
8.0

>  <Cryst_Technique>  (39) 
co-crystallized

>  <Sequence>  (39) 
MGNAAAAKKGSEQESVKEFLAKAKEDFLKKWESPAQNTAHLDQFERIKTLGTGSFGRVMLVKHKETGNHYAMKILDKQKVVKLKQIEHTLNEKRILQAVNFPFLVKLEFSFKDNSNLYMVMEYAPGGEMFSHLRRIGRFSEPHARFYAAQIVLTFEYLHSLDLIYRDLKPENLMIDQQGYIKVTDFGFAKRVKGRTWTLCGTPEYLAPEIILSKGYNKAVDWWALGVLIYEMAAGYPPFFADQPIQIYEKIVSGKVRFPSHFSSDLKDLLRNLLQVDLTKRFGNLKNGVNDIKNHKWFATTDWIAIYQRKVEAPFIPKFKGPGDTSNFDDYEEEEIRVSINEKCGKEFSEF

>  <Sequence_Length>  (39) 
351.0

>  <Mutation_Count>  (39) 
3.0

>  <Gene_Name>  (39) 
PKACA

>  <MW>  (39) 
40.8

>  <Name>  (39) 
cAMP-Dependent Protein Kinase Catalytic Subunit Alpha

>  <Mutations>  (39) 
V123A, L173M, Q181K

>  <EC_Number>  (39) 
2.7.11.11

>  <Peptidic_Inhibitor>  (39) 
True

>  <Lig_Missing_Atoms>  (39) 
['No', 'No']

>  <PDBbind_Resolution>  (39) 
1.9

>  <PDBbind_Release_Year>  (39) 
2011.0

>  <PDBbind_Comment>  (39) 
mutation V123A, L173M, Q181K; X-ray(PKAB3 mutation), binding assay(PKA WT); compound 18; IC50= 50+/- 8.7nM

>  <PDBbind_Uniprot_Id>  (39) 
P17612

>  <PDBbind_Protein_Name>  (39) 
CAMP-DEPENDENT PROTEIN KINASE, ALPHA-CATALYTIC

>  <PDBbind_-Logkd/Ki>  (39) 
7.3

>  <PDBbind_Kd/Ki>  (39) 
IC=50nM

>  <PDBbind_Kd_Or_Ki_Or_Ic50>  (39) 
IC50

>  <PDBbind_Relation>  (39) 
=

>  <PDBbind_Value>  (39) 
50.0

>  <PDBbind_Unit>  (39) 
nM

>  <PDBbind_Standard_Value>  (39) 
50.0

>  <PDBbind_Standard_Unit>  (39) 
nM

>  <PDB_Chain>  (39) 
['A', 'B']

>  <Num_Ligs>  (39) 
[1.0, 1.0]

>  <Orthosteric>  (39) 
[1.0, 1.0]

>  <Allosteric>  (39) 
[0.0, 0.0]

>  <Pockets_Assigned>  (39) 
['A', 'A']

>  <Multisite>  (39) 
[False, False]

>  <Same_Number>  (39) 
True

>  <Same_Binding_Site>  (39) 
True

>  <Same_Orientation>  (39) 
True

>  <Lig_Order_in_.pdb>  (39) 
Orthosteric; Orthosteric

$$$$

     RDKit          2D

 26 29  0  0  0  0  0  0  0  0999 V2000
   -2.2477   18.2144    0.0000 C   0  0  0  0  0  0  0  0  0  0  0  0
   -1.6375   16.8441    0.0000 C   0  0  0  0  0  0  0  0  0  0  0  0
   -0.1458   16.6873    0.0000 C   0  0  0  0  0  0  0  0  0  0  0  0
    0.4643   15.3170    0.0000 C   0  0  0  0  0  0  0  0  0  0  0  0
   -0.4173   14.1034    0.0000 C   0  0  0  0  0  0  0  0  0  0  0  0
   -1.9091   14.2602    0.0000 C   0  0  0  0  0  0  0  0  0  0  0  0
   -2.5192   15.6305    0.0000 C   0  0  0  0  0  0  0  0  0  0  0  0
    0.1928   12.7331    0.0000 C   0  0  0  0  0  0  0  0  0  0  0  0
   -0.6889   11.5196    0.0000 C   0  0  0  0  0  0  0  0  0  0  0  0
   -0.0788   10.1493    0.0000 C   0  0  0  0  0  0  0  0  0  0  0  0
   -0.9605    8.9357    0.0000 N   0  0  0  0  0  0  0  0  0  0  0  0
   -0.3504    7.5654    0.0000 C   0  0  0  0  0  0  0  0  0  0  0  0
    1.1168    7.2536    0.0000 N   0  0  0  0  0  0  0  0  0  0  0  0
    1.2736    5.7618    0.0000 N   0  0  0  0  0  0  0  0  0  0  0  0
   -0.0967    5.1517    0.0000 C   0  0  0  0  0  0  0  0  0  0  0  0
   -1.1004    6.2664    0.0000 S   0  0  0  0  0  0  0  0  0  0  0  0
   -0.4086    3.6844    0.0000 C   0  0  0  0  0  0  0  0  0  0  0  0
   -1.8351    3.2209    0.0000 C   0  0  0  0  0  0  0  0  0  0  0  0
   -2.1470    1.7537    0.0000 C   0  0  0  0  0  0  0  0  0  0  0  0
   -1.0323    0.7500    0.0000 C   0  0  0  0  0  0  0  0  0  0  0  0
    0.3943    1.2135    0.0000 C   0  0  0  0  0  0  0  0  0  0  0  0
    0.7062    2.6807    0.0000 C   0  0  0  0  0  0  0  0  0  0  0  0
    1.2760    0.0000    0.0000 C   0  0  0  0  0  0  0  0  0  0  0  0
    0.3943   -1.2135    0.0000 N   0  0  0  0  0  0  0  0  0  0  0  0
   -1.0323   -0.7500    0.0000 N   0  0  0  0  0  0  0  0  0  0  0  0
   -2.1807   11.6764    0.0000 N   0  0  0  0  0  0  0  0  0  0  0  0
  1  2  1  0
  2  3  2  0
  3  4  1  0
  4  5  2  0
  5  6  1  0
  6  7  2  0
  5  8  1  0
  8  9  1  0
  9 10  1  0
 10 11  1  0
 11 12  1  0
 12 13  2  0
 13 14  1  0
 14 15  2  0
 15 16  1  0
 15 17  1  0
 17 18  2  0
 18 19  1  0
 19 20  2  0
 20 21  1  0
 21 22  2  0
 21 23  1  0
 23 24  2  0
 24 25  1  0
  9 26  1  1
  7  2  1  0
 16 12  1  0
 22 17  1  0
 25 20  1  0
M  END
>  <Structure>  (40) 
3L9N

>  <Dataset>  (40) 
PDB

>  <Chain>  (40) 
A

>  <Spatial_Label>  (40) 
DFGin

>  <Dihedral_Label>  (40) 
BLAminus

>  <C_Helix_Label>  (40) 
Chelix-in

>  <Lig_ID>  (40) 
L9N

>  <Lig_Entity_ID>  (40) 
3L9N_3

>  <Lig_Name>  (40) 
(2S)-N~1~-[5-(1H-indazol-5-yl)-1,3,4-thiadiazol-2-yl]-3-(4-methylphenyl)propane-1,2-diamine

>  <Lig_Formula>  (40) 
C19H20N6S

>  <Lig_SMILES>  (40) 
Cc1ccc(cc1)C[C@@H](CNc2nnc(s2)c3ccc4c(c3)cn[nH]4)N

>  <Lig_MW>  (40) 
364.467

>  <Lig_ChEMBL_ID>  (40) 
nan

>  <Lig_DrugBank_ID>  (40) 
nan

>  <Occurence>  (40) 
1.0

>  <Lig_SMILES_Uncharged>  (40) 
Cc1ccc(C[C@H](N)CNc2nnc(-c3ccc4[nH]ncc4c3)s2)cc1

>  <Lig_Conformer>  (40) 
['NaN']

>  <Lig_Of_Interest>  (40) 
['Y']

>  <Lig_Completeness>  (40) 
[1.0]

>  <Lig_Occupancy>  (40) 
[1.0]

>  <Lig_RSCC>  (40) 
[0.874]

>  <Lig_RSR>  (40) 
[0.164]

>  <Lig_RMSZ_Bonds>  (40) 
[3.04]

>  <Lig_RMSZ_Angles>  (40) 
[2.01]

>  <Lig_Alt_Conf>  (40) 
0.0

>  <Title>  (40) 
crystal structure of PKAB3 (pka triple mutant V123A, L173M, Q181K) with compound 27

>  <Nonpolymer_Entity_Count>  (40) 
1.0

>  <Protein_Entity_Count>  (40) 
2.0

>  <Exp_Method>  (40) 
X-Ray Diffraction

>  <Cryst_Method>  (40) 
Vapor Diffusion, Hanging Drop; 1.0 M Licl,  
20-30% Peg6K, pH 8.0, Vapor Diffusion, Hanging Drop, Temperature 277K

>  <Deposit_Date>  (40) 
2010-01-05

>  <Resolution>  (40) 
2.0

>  <DOI>  (40) 
https://doi.org/10.1016/j.bmcl.2010.01.067

>  <Source_Organism>  (40) 
Homo sapiens

>  <R_Free>  (40) 
0.257

>  <Keywords>  (40) 
Transferase/Transferase Inhibitor

>  <REMARK_280>  (40) 
 Crystal Solvent Content, Vs (%): 55.60 Matthews Coefficient, Vm (Angstroms**3/Da): 2.77 Crystallization Conditions: 1.0 M Licl, 20-30% Peg6K, pH 8.0, Vapor Diffusion, Hanging Drop, Temperature 277K 

>  <REMARK_610>  (40) 
nan

>  <pH>  (40) 
8.0

>  <Cryst_Technique>  (40) 
co-crystallized

>  <Sequence>  (40) 
MGNAAAAKKGSEQESVKEFLAKAKEDFLKKWESPAQNTAHLDQFERIKTLGTGSFGRVMLVKHKETGNHYAMKILDKQKVVKLKQIEHTLNEKRILQAVNFPFLVKLEFSFKDNSNLYMVMEYAPGGEMFSHLRRIGRFSEPHARFYAAQIVLTFEYLHSLDLIYRDLKPENLMIDQQGYIKVTDFGFAKRVKGRTWTLCGTPEYLAPEIILSKGYNKAVDWWALGVLIYEMAAGYPPFFADQPIQIYEKIVSGKVRFPSHFSSDLKDLLRNLLQVDLTKRFGNLKNGVNDIKNHKWFATTDWIAIYQRKVEAPFIPKFKGPGDTSNFDDYEEEEIRVSINEKCGKEFSEF

>  <Sequence_Length>  (40) 
351.0

>  <Mutation_Count>  (40) 
3.0

>  <Gene_Name>  (40) 
PKACA

>  <MW>  (40) 
40.8

>  <Name>  (40) 
cAMP-Dependent Protein Kinase Catalytic Subunit Alpha

>  <Mutations>  (40) 
V123A, L173M, Q181K

>  <EC_Number>  (40) 
2.7.11.11

>  <Peptidic_Inhibitor>  (40) 
True

>  <Lig_Missing_Atoms>  (40) 
['No']

>  <PDBbind_Resolution>  (40) 
2.0

>  <PDBbind_Release_Year>  (40) 
2011.0

>  <PDBbind_Comment>  (40) 
mutation V123A, L173M, Q181K; X-ray(PKAB3 mutation), binding assay(PKA WT); compound 27; IC50= 8.6+/-0.8nM

>  <PDBbind_Uniprot_Id>  (40) 
P17612

>  <PDBbind_Protein_Name>  (40) 
CAMP-DEPENDENT PROTEIN KINASE, ALPHA-CATALYTIC

>  <PDBbind_-Logkd/Ki>  (40) 
8.07

>  <PDBbind_Kd/Ki>  (40) 
IC=8.6nM

>  <PDBbind_Kd_Or_Ki_Or_Ic50>  (40) 
IC50

>  <PDBbind_Relation>  (40) 
=

>  <PDBbind_Value>  (40) 
8.6

>  <PDBbind_Unit>  (40) 
nM

>  <PDBbind_Standard_Value>  (40) 
8.6

>  <PDBbind_Standard_Unit>  (40) 
nM

>  <PDB_Chain>  (40) 
['A']

>  <Num_Ligs>  (40) 
[1.0]

>  <Orthosteric>  (40) 
[1.0]

>  <Allosteric>  (40) 
[0.0]

>  <Pockets_Assigned>  (40) 
['A']

>  <Multisite>  (40) 
[False]

>  <Same_Number>  (40) 
True

>  <Same_Binding_Site>  (40) 
True

>  <Same_Orientation>  (40) 
True

>  <Lig_Order_in_.pdb>  (40) 
Orthosteric

$$$$

     RDKit          2D

 16 18  0  0  0  0  0  0  0  0999 V2000
   -1.4418   -3.8810    0.0000 C   0  0  0  0  0  0  0  0  0  0  0  0
   -1.7537   -2.4138    0.0000 C   0  0  0  0  0  0  0  0  0  0  0  0
   -3.1240   -1.8037    0.0000 C   0  0  0  0  0  0  0  0  0  0  0  0
   -2.9672   -0.3119    0.0000 N   0  0  0  0  0  0  0  0  0  0  0  0
   -1.5000    0.0000    0.0000 C   0  0  0  0  0  0  0  0  0  0  0  0
   -0.7500   -1.2990    0.0000 C   0  0  0  0  0  0  0  0  0  0  0  0
    0.7500   -1.2990    0.0000 C   0  0  0  0  0  0  0  0  0  0  0  0
    1.5000    0.0000    0.0000 N   0  0  0  0  0  0  0  0  0  0  0  0
    0.7500    1.2990    0.0000 C   0  0  0  0  0  0  0  0  0  0  0  0
   -0.7500    1.2990    0.0000 N   0  0  0  0  0  0  0  0  0  0  0  0
    1.5000   -2.5981    0.0000 N   0  0  0  0  0  0  0  0  0  0  0  0
    2.9918   -2.7549    0.0000 C   0  0  0  0  0  0  0  0  0  0  0  0
    3.3037   -4.2221    0.0000 C   0  0  0  0  0  0  0  0  0  0  0  0
    2.0046   -4.9721    0.0000 C   0  0  0  0  0  0  0  0  0  0  0  0
    0.8899   -3.9684    0.0000 C   0  0  0  0  0  0  0  0  0  0  0  0
    1.8478   -6.4639    0.0000 N   0  0  0  0  0  0  0  0  0  0  0  0
  1  2  1  0
  2  3  2  0
  3  4  1  0
  4  5  1  0
  5  6  2  0
  6  7  1  0
  7  8  2  0
  8  9  1  0
  9 10  2  0
  7 11  1  0
 11 12  1  0
 12 13  1  0
 13 14  1  0
 14 15  1  0
 14 16  1  1
  6  2  1  0
 10  5  1  0
 15 11  1  0
M  END
>  <Structure>  (41) 
3MVJ

>  <Dataset>  (41) 
PDB

>  <Chain>  (41) 
A and B and E

>  <Spatial_Label>  (41) 
DFGin

>  <Dihedral_Label>  (41) 
BLAminus

>  <C_Helix_Label>  (41) 
Chelix-in

>  <Lig_ID>  (41) 
XFE

>  <Lig_Entity_ID>  (41) 
3MVJ_3

>  <Lig_Name>  (41) 
(3R)-1-(5-methyl-7H-pyrrolo[2,3-d]pyrimidin-4-yl)pyrrolidin-3-amine

>  <Lig_Formula>  (41) 
C11H15N5

>  <Lig_SMILES>  (41) 
Cc1c[nH]c2c1c(ncn2)[N@]3CC[C@H](C3)N

>  <Lig_MW>  (41) 
217.27

>  <Lig_ChEMBL_ID>  (41) 
['CHEMBL1173273']

>  <Lig_DrugBank_ID>  (41) 
nan

>  <Occurence>  (41) 
1.0

>  <Lig_SMILES_Uncharged>  (41) 
Cc1c[nH]c2ncnc(N3CC[C@@H](N)C3)c12

>  <Lig_Conformer>  (41) 
['NaN', 'NaN']

>  <Lig_Of_Interest>  (41) 
['Y', 'Y']

>  <Lig_Completeness>  (41) 
[1.0, 1.0]

>  <Lig_Occupancy>  (41) 
[1.0, 1.0]

>  <Lig_RSCC>  (41) 
[0.938, 0.935]

>  <Lig_RSR>  (41) 
[0.141, 0.175]

>  <Lig_RMSZ_Bonds>  (41) 
[0.95, 1.02]

>  <Lig_RMSZ_Angles>  (41) 
[3.96, 3.29]

>  <Lig_Alt_Conf>  (41) 
0.0

>  <Title>  (41) 
Human cyclic AMP-dependent protein kinase PKA inhibitor complex

>  <Nonpolymer_Entity_Count>  (41) 
2.0

>  <Protein_Entity_Count>  (41) 
6.0

>  <Exp_Method>  (41) 
X-Ray Diffraction

>  <Cryst_Method>  (41) 
NaN; NaN

>  <Deposit_Date>  (41) 
2010-05-04

>  <Resolution>  (41) 
2.49

>  <DOI>  (41) 
https://doi.org/10.1021/jm1003842

>  <Source_Organism>  (41) 
Homo sapiens

>  <R_Free>  (41) 
0.30436

>  <Keywords>  (41) 
Transferase

>  <REMARK_280>  (41) 
 Crystal Solvent Content, Vs (%): 44.41 Matthews Coefficient, Vm (Angstroms**3/Da): 2.21 Crystallization Conditions: Null 

>  <REMARK_610>  (41) 
nan

>  <pH>  (41) 
nan

>  <Cryst_Technique>  (41) 
co-crystallized

>  <Sequence>  (41) 
MGSSHHHHHHSSGLVPRGSHMGNAAAAKKGSEQESVKEFLAKAKEDFLKKWESPAQNTAHLDQFERIKTLGTGSFGRVMLVKHKETGNHYAMKILDKQKVVKLKQIEHTLNEKRILQAVNFPFLVKLEFSFKDNSNLYMVMEYVPGGEMFSHLRRIGRFSEPHARFYAAQIVLTFEYLHSLDLIYRDLKPENLLIDQQGYIQVTDFGFAKRVKGRTWTLCGTPEYLAPEIILSKGYNKAVDWWALGVLIYEMAAGYPPFFADQPIQIYEKIVSGKVRFPSHFSSDLKDLLRNLLQVDLTKRFGNLKNGVNDIKNHKWFATTDWIAIYQRKVEAPFIPKFKGPGDTSNFDDYEEEEIRVSINEKCGKEFSEF

>  <Sequence_Length>  (41) 
371.0

>  <Mutation_Count>  (41) 
0.0

>  <Gene_Name>  (41) 
PKACA

>  <MW>  (41) 
42.98

>  <Name>  (41) 
cAMP-Dependent Protein Kinase Catalytic Subunit Alpha

>  <Mutations>  (41) 
nan

>  <EC_Number>  (41) 
2.7.11.11

>  <Peptidic_Inhibitor>  (41) 
True

>  <Lig_Missing_Atoms>  (41) 
['No', 'No']

>  <PDBbind_Resolution>  (41) 
2.49

>  <PDBbind_Release_Year>  (41) 
2010.0

>  <PDBbind_Comment>  (41) 
compound 5

>  <PDBbind_Uniprot_Id>  (41) 
P17612

>  <PDBbind_Protein_Name>  (41) 
CAMP-DEPENDENT PROTEIN KINASE, ALPHA-CATALYTIC

>  <PDBbind_-Logkd/Ki>  (41) 
5.49

>  <PDBbind_Kd/Ki>  (41) 
IC=3200nM

>  <PDBbind_Kd_Or_Ki_Or_Ic50>  (41) 
IC50

>  <PDBbind_Relation>  (41) 
=

>  <PDBbind_Value>  (41) 
3200.0

>  <PDBbind_Unit>  (41) 
nM

>  <PDBbind_Standard_Value>  (41) 
3200.0

>  <PDBbind_Standard_Unit>  (41) 
nM

>  <PDB_Chain>  (41) 
['A', 'B', 'C']

>  <Num_Ligs>  (41) 
[1.0, 0.0, 1.0]

>  <Orthosteric>  (41) 
[1.0, 0.0, 1.0]

>  <Allosteric>  (41) 
[0.0, 0.0, 0.0]

>  <Pockets_Assigned>  (41) 
['A', nan, 'A']

>  <Multisite>  (41) 
[False, False, False]

>  <Same_Number>  (41) 
False

>  <Same_Binding_Site>  (41) 
True

>  <Same_Orientation>  (41) 
True

>  <Lig_Order_in_.pdb>  (41) 
Orthosteric; nan; Orthosteric

$$$$

     RDKit          2D

  7  7  0  0  0  0  0  0  0  0999 V2000
    1.5000    0.0000    0.0000 C   0  0  0  0  0  0  0  0  0  0  0  0
    0.7500   -1.2990    0.0000 C   0  0  0  0  0  0  0  0  0  0  0  0
   -0.7500   -1.2990    0.0000 C   0  0  0  0  0  0  0  0  0  0  0  0
   -1.5000    0.0000    0.0000 C   0  0  0  0  0  0  0  0  0  0  0  0
   -0.7500    1.2990    0.0000 C   0  0  0  0  0  0  0  0  0  0  0  0
    0.7500    1.2990    0.0000 C   0  0  0  0  0  0  0  0  0  0  0  0
   -3.0000    0.0000    0.0000 O   0  0  0  0  0  0  0  0  0  0  0  0
  1  2  2  0
  2  3  1  0
  3  4  2  0
  4  5  1  0
  5  6  2  0
  4  7  1  0
  6  1  1  0
M  END
>  <Structure>  (42) 
3NX8

>  <Dataset>  (42) 
PDB

>  <Chain>  (42) 
A

>  <Spatial_Label>  (42) 
DFGin

>  <Dihedral_Label>  (42) 
BLAminus

>  <C_Helix_Label>  (42) 
Chelix-in

>  <Lig_ID>  (42) 
IPH

>  <Lig_Entity_ID>  (42) 
3NX8_3

>  <Lig_Name>  (42) 
PHENOL

>  <Lig_Formula>  (42) 
C6H6O

>  <Lig_SMILES>  (42) 
c1ccc(cc1)O

>  <Lig_MW>  (42) 
94.111

>  <Lig_ChEMBL_ID>  (42) 
['CHEMBL14060']

>  <Lig_DrugBank_ID>  (42) 
['DB03255']

>  <Occurence>  (42) 
2.0

>  <Lig_SMILES_Uncharged>  (42) 
Oc1ccccc1

>  <Lig_Conformer>  (42) 
['NaN', 'NaN', 'NaN']

>  <Lig_Of_Interest>  (42) 
['N', 'N', 'N']

>  <Lig_Completeness>  (42) 
[1.0, 1.0, 1.0]

>  <Lig_Occupancy>  (42) 
[1.0, 1.0, 1.0]

>  <Lig_RSCC>  (42) 
[0.973, 0.945, 0.867]

>  <Lig_RSR>  (42) 
[0.096, 0.239, 0.186]

>  <Lig_RMSZ_Bonds>  (42) 
[0.81, 0.87, 0.82]

>  <Lig_RMSZ_Angles>  (42) 
[0.55, 0.63, 0.61]

>  <Lig_Alt_Conf>  (42) 
0.0

>  <Title>  (42) 
human cAMP dependent protein kinase in complex with phenol

>  <Nonpolymer_Entity_Count>  (42) 
3.0

>  <Protein_Entity_Count>  (42) 
2.0

>  <Exp_Method>  (42) 
X-Ray Diffraction

>  <Cryst_Method>  (42) 
Vapor Diffusion, Sitting Drop; 5 Mm Mes, 5Mm Bistris-Propane, 75Mm Licl, 1Mm Dtt, 0.1 Mm Edta Equilibrated Against Water/Ethanol, pH 6.9, Vapor Diffusion, Sitting Drop, Temperature 277K

>  <Deposit_Date>  (42) 
2010-07-13

>  <Resolution>  (42) 
2.0

>  <DOI>  (42) 
https://doi.org/10.1002/cmdc.201100490

>  <Source_Organism>  (42) 
Homo sapiens

>  <R_Free>  (42) 
0.2879

>  <Keywords>  (42) 
Transferase

>  <REMARK_280>  (42) 
 Crystal Solvent Content, Vs (%): 52.38 Matthews Coefficient, Vm (Angstroms**3/Da): 2.58 Crystallization Conditions: 5 Mm Mes, 5Mm Bistris-Propane, 75Mm Licl, 1Mm Dtt, 0.1 Mm Edta Equilibrated Against Water/Ethanol, pH 6.9, Vapor Diffusion, Sitting Drop, Temperature 277K 

>  <REMARK_610>  (42) 
nan

>  <pH>  (42) 
6.9

>  <Cryst_Technique>  (42) 
soaked

>  <Sequence>  (42) 
MGNAAAAKKGSEQESVKEFLAKAKEDFLKKWESPAQNTAHLDQFERIKTLGTGSFGRVMLVKHKETGNHYAMKILDKQKVVKLKQIEHTLNEKRILQAVNFPFLVKLEFSFKDNSNLYMVMEYVPGGEMFSHLRRIGRFSEPHARFYAAQIVLTFEYLHSLDLIYRDLKPENLLIDQQGYIQVTDFGFAKRVKGRTWTLCGTPEYLAPEIILSKGYNKAVDWWALGVLIYEMAAGYPPFFADQPIQIYEKIVSGKVRFPSHFSSDLKDLLRNLLQVDLTKRFGNLKNGVNDIXNHKWFATTDWIAIYQRKVEAPFIPKFKGPGDTSNFDDYEEEEIRVSINEKCGKEFSEF

>  <Sequence_Length>  (42) 
351.0

>  <Mutation_Count>  (42) 
0.0

>  <Gene_Name>  (42) 
PKACA

>  <MW>  (42) 
40.876

>  <Name>  (42) 
cAMP-Dependent Protein Kinase Catalytic Subunit Alpha

>  <Mutations>  (42) 
nan

>  <EC_Number>  (42) 
2.7.11.11

>  <Peptidic_Inhibitor>  (42) 
True

>  <Lig_Missing_Atoms>  (42) 
['No', 'No', 'No']

>  <PDBbind_Resolution>  (42) 
nan

>  <PDBbind_Release_Year>  (42) 
nan

>  <PDBbind_Comment>  (42) 
nan

>  <PDBbind_Uniprot_Id>  (42) 
nan

>  <PDBbind_Protein_Name>  (42) 
nan

>  <PDBbind_-Logkd/Ki>  (42) 
nan

>  <PDBbind_Kd/Ki>  (42) 
nan

>  <PDBbind_Kd_Or_Ki_Or_Ic50>  (42) 
nan

>  <PDBbind_Relation>  (42) 
nan

>  <PDBbind_Value>  (42) 
nan

>  <PDBbind_Unit>  (42) 
nan

>  <PDBbind_Standard_Value>  (42) 
nan

>  <PDBbind_Standard_Unit>  (42) 
nan

>  <PDB_Chain>  (42) 
['A']

>  <Num_Ligs>  (42) 
[3.0]

>  <Orthosteric>  (42) 
[1.0]

>  <Allosteric>  (42) 
[2.0]

>  <Pockets_Assigned>  (42) 
['A, X, F']

>  <Multisite>  (42) 
[True]

>  <Same_Number>  (42) 
False

>  <Same_Binding_Site>  (42) 
True

>  <Same_Orientation>  (42) 
True

>  <Lig_Order_in_.pdb>  (42) 
Orthosteric, Allosteric, Allosteric

$$$$

     RDKit          2D

 11 11  0  0  0  0  0  0  0  0999 V2000
    3.0000    0.0000    0.0000 C   0  0  0  0  0  0  0  0  0  0  0  0
    1.5000    0.0000    0.0000 C   0  0  0  0  0  0  0  0  0  0  0  0
    0.7500   -1.2990    0.0000 C   0  0  0  0  0  0  0  0  0  0  0  0
   -0.7500   -1.2990    0.0000 C   0  0  0  0  0  0  0  0  0  0  0  0
   -1.5000    0.0000    0.0000 C   0  0  0  0  0  0  0  0  0  0  0  0
   -0.7500    1.2990    0.0000 C   0  0  0  0  0  0  0  0  0  0  0  0
    0.7500    1.2990    0.0000 C   0  0  0  0  0  0  0  0  0  0  0  0
    1.5000    2.5981    0.0000 O   0  0  0  0  0  0  0  0  0  0  0  0
   -1.5000   -2.5981    0.0000 C   0  0  0  0  0  0  0  0  0  0  0  0
   -0.7500   -3.8971    0.0000 O   0  0  0  0  0  0  0  0  0  0  0  0
   -3.0000   -2.5981    0.0000 C   0  0  0  0  0  0  0  0  0  0  0  0
  1  2  1  0
  2  3  2  0
  3  4  1  0
  4  5  2  0
  5  6  1  0
  6  7  2  0
  7  8  1  0
  4  9  1  0
  9 10  2  0
  9 11  1  0
  7  2  1  0
M  END
>  <Structure>  (43) 
3OOG

>  <Dataset>  (43) 
PDB

>  <Chain>  (43) 
A

>  <Spatial_Label>  (43) 
DFGin

>  <Dihedral_Label>  (43) 
BLAminus

>  <C_Helix_Label>  (43) 
Chelix-in

>  <Lig_ID>  (43) 
YTP

>  <Lig_Entity_ID>  (43) 
3OOG_3

>  <Lig_Name>  (43) 
1-(4-hydroxy-3-methylphenyl)ethanone

>  <Lig_Formula>  (43) 
C9H10O2

>  <Lig_SMILES>  (43) 
Cc1cc(ccc1O)C(=O)C

>  <Lig_MW>  (43) 
150.174

>  <Lig_ChEMBL_ID>  (43) 
['CHEMBL375739']

>  <Lig_DrugBank_ID>  (43) 
nan

>  <Occurence>  (43) 
1.0

>  <Lig_SMILES_Uncharged>  (43) 
CC(=O)c1ccc(O)c(C)c1

>  <Lig_Conformer>  (43) 
['NaN']

>  <Lig_Of_Interest>  (43) 
['Y']

>  <Lig_Completeness>  (43) 
[1.0]

>  <Lig_Occupancy>  (43) 
[1.0]

>  <Lig_RSCC>  (43) 
[0.925]

>  <Lig_RSR>  (43) 
[0.129]

>  <Lig_RMSZ_Bonds>  (43) 
[0.94]

>  <Lig_RMSZ_Angles>  (43) 
[0.86]

>  <Lig_Alt_Conf>  (43) 
0.0

>  <Title>  (43) 
human cAMP-dependent protein kinase in complex with a small fragment

>  <Nonpolymer_Entity_Count>  (43) 
1.0

>  <Protein_Entity_Count>  (43) 
2.0

>  <Exp_Method>  (43) 
X-Ray Diffraction

>  <Cryst_Method>  (43) 
Vapor Diffusion, Sitting Drop; 5 Mm Mes, 5Mm Bistris-Propane, 75Mm Licl, 1Mm Dtt, 0.1 Mm Edta Equilibrated Against Water/Ethanol, pH 6.9, Vapor Diffusion, Sitting Drop, Temperature 277K

>  <Deposit_Date>  (43) 
2010-08-31

>  <Resolution>  (43) 
2.0

>  <DOI>  (43) 
nan

>  <Source_Organism>  (43) 
Homo sapiens

>  <R_Free>  (43) 
0.2762

>  <Keywords>  (43) 
Transferase

>  <REMARK_280>  (43) 
 Crystal Solvent Content, Vs (%): 51.64 Matthews Coefficient, Vm (Angstroms**3/Da): 2.54 Crystallization Conditions: 5 Mm Mes, 5Mm Bistris-Propane, 75Mm Licl, 1Mm Dtt, 0.1 Mm Edta Equilibrated Against Water/Ethanol, pH 6.9, Vapor Diffusion, Sitting Drop, Temperature 277K 

>  <REMARK_610>  (43) 
nan

>  <pH>  (43) 
6.9

>  <Cryst_Technique>  (43) 
nan

>  <Sequence>  (43) 
MGNAAAAKKGSEQESVKEFLAKAKEDFLKKWESPAQNTAHLDQFERIKTLGTGSFGRVMLVKHKETGNHYAMKILDKQKVVKLKQIEHTLNEKRILQAVNFPFLVKLEFSFKDNSNLYMVMEYVPGGEMFSHLRRIGRFSEPHARFYAAQIVLTFEYLHSLDLIYRDLKPENLLIDQQGYIQVTDFGFAKRVKGRTWTLCGTPEYLAPEIILSKGYNKAVDWWALGVLIYEMAAGYPPFFADQPIQIYEKIVSGKVRFPSHFSSDLKDLLRNLLQVDLTKRFGNLKNGVNDIKNHKWFATTDWIAIYQRKVEAPFIPKFKGPGDTSNFDDYEEEEIRVSINEKCGKEFSEF

>  <Sequence_Length>  (43) 
351.0

>  <Mutation_Count>  (43) 
0.0

>  <Gene_Name>  (43) 
PKACA

>  <MW>  (43) 
40.809

>  <Name>  (43) 
cAMP-Dependent Protein Kinase Catalytic Subunit Alpha

>  <Mutations>  (43) 
nan

>  <EC_Number>  (43) 
2.7.11.11

>  <Peptidic_Inhibitor>  (43) 
True

>  <Lig_Missing_Atoms>  (43) 
['No']

>  <PDBbind_Resolution>  (43) 
nan

>  <PDBbind_Release_Year>  (43) 
nan

>  <PDBbind_Comment>  (43) 
nan

>  <PDBbind_Uniprot_Id>  (43) 
nan

>  <PDBbind_Protein_Name>  (43) 
nan

>  <PDBbind_-Logkd/Ki>  (43) 
nan

>  <PDBbind_Kd/Ki>  (43) 
nan

>  <PDBbind_Kd_Or_Ki_Or_Ic50>  (43) 
nan

>  <PDBbind_Relation>  (43) 
nan

>  <PDBbind_Value>  (43) 
nan

>  <PDBbind_Unit>  (43) 
nan

>  <PDBbind_Standard_Value>  (43) 
nan

>  <PDBbind_Standard_Unit>  (43) 
nan

>  <PDB_Chain>  (43) 
['A']

>  <Num_Ligs>  (43) 
[1.0]

>  <Orthosteric>  (43) 
[1.0]

>  <Allosteric>  (43) 
[0.0]

>  <Pockets_Assigned>  (43) 
['A']

>  <Multisite>  (43) 
[False]

>  <Same_Number>  (43) 
True

>  <Same_Binding_Site>  (43) 
True

>  <Same_Orientation>  (43) 
True

>  <Lig_Order_in_.pdb>  (43) 
Orthosteric

$$$$

     RDKit          2D

 21 22  0  0  0  0  0  0  0  0999 V2000
    3.7500   -1.2990    0.0000 C   0  0  0  0  0  0  0  0  0  0  0  0
    3.0000    0.0000    0.0000 O   0  0  0  0  0  0  0  0  0  0  0  0
    1.5000    0.0000    0.0000 C   0  0  0  0  0  0  0  0  0  0  0  0
    0.7500   -1.2990    0.0000 C   0  0  0  0  0  0  0  0  0  0  0  0
   -0.7500   -1.2990    0.0000 C   0  0  0  0  0  0  0  0  0  0  0  0
   -1.5000    0.0000    0.0000 C   0  0  0  0  0  0  0  0  0  0  0  0
   -0.7500    1.2990    0.0000 C   0  0  0  0  0  0  0  0  0  0  0  0
    0.7500    1.2990    0.0000 C   0  0  0  0  0  0  0  0  0  0  0  0
   -1.5000    2.5981    0.0000 C   0  0  0  0  0  0  0  0  0  0  0  0
   -0.7500    3.8971    0.0000 C   0  0  0  0  0  0  0  0  0  0  0  0
    0.7500    3.8971    0.0000 O   0  0  0  0  0  0  0  0  0  0  0  0
   -1.5000    5.1962    0.0000 N   0  0  0  0  0  0  0  0  0  0  0  0
   -0.7500    6.4952    0.0000 N   0  0  0  0  0  0  0  0  0  0  0  0
   -1.5000    7.7942    0.0000 C   0  0  0  0  0  0  0  0  0  0  0  0
   -0.7500    9.0933    0.0000 C   0  0  0  0  0  0  0  0  0  0  0  0
    0.7500    9.0933    0.0000 C   0  0  0  0  0  0  0  0  0  0  0  0
    1.5000   10.3923    0.0000 C   0  0  0  0  0  0  0  0  0  0  0  0
    0.7500   11.6913    0.0000 C   0  0  0  0  0  0  0  0  0  0  0  0
   -0.7500   11.6913    0.0000 C   0  0  0  0  0  0  0  0  0  0  0  0
   -1.5000   10.3923    0.0000 C   0  0  0  0  0  0  0  0  0  0  0  0
    1.5000   12.9904    0.0000 O   0  0  0  0  0  0  0  0  0  0  0  0
  1  2  1  0
  2  3  1  0
  3  4  2  0
  4  5  1  0
  5  6  2  0
  6  7  1  0
  7  8  2  0
  7  9  1  0
  9 10  1  0
 10 11  2  0
 10 12  1  0
 12 13  1  0
 13 14  2  0
 14 15  1  0
 15 16  2  0
 16 17  1  0
 17 18  2  0
 18 19  1  0
 19 20  2  0
 18 21  1  0
  8  3  1  0
 20 15  1  0
M  END
>  <Structure>  (44) 
3OVV

>  <Dataset>  (44) 
PDB

>  <Chain>  (44) 
A

>  <Spatial_Label>  (44) 
DFGin

>  <Dihedral_Label>  (44) 
BLAminus

>  <C_Helix_Label>  (44) 
Chelix-in

>  <Lig_ID>  (44) 
1SB

>  <Lig_Entity_ID>  (44) 
3OVV_3

>  <Lig_Name>  (44) 
N'-[(1E)-(4-hydroxyphenyl)methylidene]-2-(3-methoxyphenyl)acetohydrazide

>  <Lig_Formula>  (44) 
C16H16N2O3

>  <Lig_SMILES>  (44) 
COc1cccc(c1)CC(=O)N/N=C/c2ccc(cc2)O

>  <Lig_MW>  (44) 
284.31

>  <Lig_ChEMBL_ID>  (44) 
nan

>  <Lig_DrugBank_ID>  (44) 
nan

>  <Occurence>  (44) 
1.0

>  <Lig_SMILES_Uncharged>  (44) 
COc1cccc(CC(=O)N/N=C/c2ccc(O)cc2)c1

>  <Lig_Conformer>  (44) 
['NaN']

>  <Lig_Of_Interest>  (44) 
['Y']

>  <Lig_Completeness>  (44) 
[1.0]

>  <Lig_Occupancy>  (44) 
[1.0]

>  <Lig_RSCC>  (44) 
[0.95]

>  <Lig_RSR>  (44) 
[0.093]

>  <Lig_RMSZ_Bonds>  (44) 
[1.36]

>  <Lig_RMSZ_Angles>  (44) 
[2.56]

>  <Lig_Alt_Conf>  (44) 
0.0

>  <Title>  (44) 
Human cAMP-dependent protein kinase in complex with an inhibitor

>  <Nonpolymer_Entity_Count>  (44) 
2.0

>  <Protein_Entity_Count>  (44) 
2.0

>  <Exp_Method>  (44) 
X-Ray Diffraction

>  <Cryst_Method>  (44) 
Vapor Diffusion, Sitting Drop; 5 Mm Mes, 5Mm Bistris-Propane, 75Mm Licl, 1Mm Dtt, 0.1 Mm Edta, Equilibrated Against Water/Ethanol, pH 6.9, Vapor Diffusion, Sitting Drop, Temperature 277K

>  <Deposit_Date>  (44) 
2010-09-17

>  <Resolution>  (44) 
1.58

>  <DOI>  (44) 
nan

>  <Source_Organism>  (44) 
Homo sapiens

>  <R_Free>  (44) 
0.2318

>  <Keywords>  (44) 
Transferase/Transferase Inhibitor

>  <REMARK_280>  (44) 
 Crystal Solvent Content, Vs (%): 52.26 Matthews Coefficient, Vm (Angstroms**3/Da): 2.58 Crystallization Conditions: 5 Mm Mes, 5Mm Bistris-Propane, 75Mm Licl, 1Mm Dtt, 0.1 Mm Edta, Equilibrated Against Water/Ethanol, pH 6.9, Vapor Diffusion, Sitting Drop, Temperature 277K 

>  <REMARK_610>  (44) 
nan

>  <pH>  (44) 
6.9

>  <Cryst_Technique>  (44) 
nan

>  <Sequence>  (44) 
MGNAAAAKKGSEQESVKEFLAKAKEDFLKKWESPAQNTAHLDQFERIKTLGTGSFGRVMLVKHKETGNHYAMKILDKQKVVKLKQIEHTLNEKRILQAVNFPFLVKLEFSFKDNSNLYMVMEYVPGGEMFSHLRRIGRFSEPHARFYAAQIVLTFEYLHSLDLIYRDLKPENLLIDQQGYIQVTDFGFAKRVKGRTWTLCGTPEYLAPEIILSKGYNKAVDWWALGVLIYEMAAGYPPFFADQPIQIYEKIVSGKVRFPSHFSSDLKDLLRNLLQVDLTKRFGNLKNGVNDIKNHKWFATTDWIAIYQRKVEAPFIPKFKGPGDTSNFDDYEEEEIRVSINEKCGKEFSEF

>  <Sequence_Length>  (44) 
351.0

>  <Mutation_Count>  (44) 
0.0

>  <Gene_Name>  (44) 
PKACA

>  <MW>  (44) 
40.809

>  <Name>  (44) 
cAMP-Dependent Protein Kinase Catalytic Subunit Alpha

>  <Mutations>  (44) 
nan

>  <EC_Number>  (44) 
2.7.11.11

>  <Peptidic_Inhibitor>  (44) 
True

>  <Lig_Missing_Atoms>  (44) 
['No']

>  <PDBbind_Resolution>  (44) 
nan

>  <PDBbind_Release_Year>  (44) 
nan

>  <PDBbind_Comment>  (44) 
nan

>  <PDBbind_Uniprot_Id>  (44) 
nan

>  <PDBbind_Protein_Name>  (44) 
nan

>  <PDBbind_-Logkd/Ki>  (44) 
nan

>  <PDBbind_Kd/Ki>  (44) 
nan

>  <PDBbind_Kd_Or_Ki_Or_Ic50>  (44) 
nan

>  <PDBbind_Relation>  (44) 
nan

>  <PDBbind_Value>  (44) 
nan

>  <PDBbind_Unit>  (44) 
nan

>  <PDBbind_Standard_Value>  (44) 
nan

>  <PDBbind_Standard_Unit>  (44) 
nan

>  <PDB_Chain>  (44) 
['A']

>  <Num_Ligs>  (44) 
[1.0]

>  <Orthosteric>  (44) 
[1.0]

>  <Allosteric>  (44) 
[0.0]

>  <Pockets_Assigned>  (44) 
['A']

>  <Multisite>  (44) 
[False]

>  <Same_Number>  (44) 
True

>  <Same_Binding_Site>  (44) 
True

>  <Same_Orientation>  (44) 
True

>  <Lig_Order_in_.pdb>  (44) 
Orthosteric

$$$$

     RDKit          2D

 30 34  0  0  0  0  0  0  0  0999 V2000
   -2.6401   -3.1891    0.0000 C   0  0  0  0  0  0  0  0  0  0  0  0
   -1.2135   -2.7256    0.0000 C   0  0  0  0  0  0  0  0  0  0  0  0
   -0.7500   -1.2990    0.0000 C   0  0  0  0  0  0  0  0  0  0  0  0
    0.7500   -1.2990    0.0000 C   0  0  0  0  0  0  0  0  0  0  0  0
    1.5000    0.0000    0.0000 N   0  0  0  0  0  0  0  0  0  0  0  0
    0.7500    1.2990    0.0000 C   0  0  0  0  0  0  0  0  0  0  0  0
   -0.7500    1.2990    0.0000 N   0  0  0  0  0  0  0  0  0  0  0  0
   -1.5000    0.0000    0.0000 C   0  0  0  0  0  0  0  0  0  0  0  0
   -3.0000    0.0000    0.0000 N   0  0  0  0  0  0  0  0  0  0  0  0
   -3.7500    1.2990    0.0000 C   0  0  0  0  0  0  0  0  0  0  0  0
   -5.2500    1.2990    0.0000 C   0  0  0  0  0  0  0  0  0  0  0  0
   -6.0000    0.0000    0.0000 N   0  0  0  0  0  0  0  0  0  0  0  0
   -5.2500   -1.2990    0.0000 C   0  0  0  0  0  0  0  0  0  0  0  0
   -3.7500   -1.2990    0.0000 C   0  0  0  0  0  0  0  0  0  0  0  0
   -7.5000    0.0000    0.0000 C   0  0  0  0  0  0  0  0  0  0  0  0
   -8.2500   -1.2990    0.0000 O   0  0  0  0  0  0  0  0  0  0  0  0
   -8.2500    1.2990    0.0000 C   0  0  0  0  0  0  0  0  0  0  0  0
   -9.7500    1.2990    0.0000 C   0  0  0  0  0  0  0  0  0  0  0  0
  -10.5000    2.5981    0.0000 C   0  0  0  0  0  0  0  0  0  0  0  0
   -9.8899    3.9684    0.0000 C   0  0  0  0  0  0  0  0  0  0  0  0
  -11.0046    4.9721    0.0000 N   0  0  0  0  0  0  0  0  0  0  0  0
  -12.3037    4.2221    0.0000 C   0  0  0  0  0  0  0  0  0  0  0  0
  -11.9918    2.7549    0.0000 C   0  0  0  0  0  0  0  0  0  0  0  0
  -13.1065    1.7512    0.0000 C   0  0  0  0  0  0  0  0  0  0  0  0
  -14.5331    2.2147    0.0000 C   0  0  0  0  0  0  0  0  0  0  0  0
  -14.8450    3.6819    0.0000 C   0  0  0  0  0  0  0  0  0  0  0  0
  -13.7302    4.6856    0.0000 C   0  0  0  0  0  0  0  0  0  0  0  0
   -7.5000    2.5981    0.0000 N   0  0  0  0  0  0  0  0  0  0  0  0
    1.2135   -2.7256    0.0000 C   0  0  0  0  0  0  0  0  0  0  0  0
    0.0000   -3.6073    0.0000 S   0  0  0  0  0  0  0  0  0  0  0  0
  2  1  1  1
  2  3  1  0
  3  4  2  0
  4  5  1  0
  5  6  2  0
  6  7  1  0
  7  8  2  0
  8  9  1  0
  9 10  1  0
 10 11  1  0
 11 12  1  0
 12 13  1  0
 13 14  1  0
 12 15  1  0
 15 16  2  0
 15 17  1  0
 17 18  1  0
 18 19  1  0
 19 20  2  0
 20 21  1  0
 21 22  1  0
 22 23  2  0
 23 24  1  0
 24 25  2  0
 25 26  1  0
 26 27  2  0
 17 28  1  1
  4 29  1  0
 29 30  1  0
 30  2  1  0
  8  3  1  0
 14  9  1  0
 23 19  1  0
 27 22  1  0
M  END
>  <Structure>  (45) 
3OW3

>  <Dataset>  (45) 
PDB

>  <Chain>  (45) 
A

>  <Spatial_Label>  (45) 
DFGin

>  <Dihedral_Label>  (45) 
BLAminus

>  <C_Helix_Label>  (45) 
Chelix-in

>  <Lig_ID>  (45) 
SMY

>  <Lig_Entity_ID>  (45) 
3OW3_3

>  <Lig_Name>  (45) 
(2R)-3-(1H-indol-3-yl)-1-{4-[(5S)-5-methyl-5,7-dihydrothieno[3,4-d]pyrimidin-4-yl]piperazin-1-yl}-1-oxopropan-2-amine

>  <Lig_Formula>  (45) 
C22H26N6OS

>  <Lig_SMILES>  (45) 
C[C@H]1c2c(ncnc2N3CCN(CC3)C(=O)[C@@H](Cc4c[nH]c5c4cccc5)N)CS1

>  <Lig_MW>  (45) 
422.546

>  <Lig_ChEMBL_ID>  (45) 
['CHEMBL1235979']

>  <Lig_DrugBank_ID>  (45) 
nan

>  <Occurence>  (45) 
1.0

>  <Lig_SMILES_Uncharged>  (45) 
C[C@@H]1SCc2ncnc(N3CCN(C(=O)[C@H](N)Cc4c[nH]c5ccccc45)CC3)c21

>  <Lig_Conformer>  (45) 
['NaN']

>  <Lig_Of_Interest>  (45) 
['Y']

>  <Lig_Completeness>  (45) 
[1.0]

>  <Lig_Occupancy>  (45) 
[1.0]

>  <Lig_RSCC>  (45) 
[0.815]

>  <Lig_RSR>  (45) 
[0.223]

>  <Lig_RMSZ_Bonds>  (45) 
[1.27]

>  <Lig_RMSZ_Angles>  (45) 
[2.95]

>  <Lig_Alt_Conf>  (45) 
0.0

>  <Title>  (45) 
Discovery of dihydrothieno- and dihydrofuropyrimidines as potent pan Akt inhibitors

>  <Nonpolymer_Entity_Count>  (45) 
1.0

>  <Protein_Entity_Count>  (45) 
2.0

>  <Exp_Method>  (45) 
X-Ray Diffraction

>  <Cryst_Method>  (45) 
Vapor Diffusion, Hanging Drop; 6.6Mg/Ml Pka With 0.25Mm Pki, 50Mm Bicine, 150Mm Ammonium Acetate, 2Mm Dtt, 8% Peg400, 11% Methanol, pH 8.0, Vapor Diffusion, Hanging Drop, Temperature 277K

>  <Deposit_Date>  (45) 
2010-09-17

>  <Resolution>  (45) 
1.9

>  <DOI>  (45) 
https://doi.org/10.1016/j.bmcl.2010.09.112

>  <Source_Organism>  (45) 
Mus musculus

>  <R_Free>  (45) 
0.20981

>  <Keywords>  (45) 
Transferase/Transferase Inhibitor

>  <REMARK_280>  (45) 
 Crystal Solvent Content, Vs (%): 53.54 Matthews Coefficient, Vm (Angstroms**3/Da): 2.65 Crystallization Conditions: 6.6Mg/Ml Pka With 0.25Mm Pki, 50Mm Bicine, 150Mm Ammonium Acetate, 2Mm Dtt, 8% Peg400, 11% Methanol, pH 8.0, Vapor Diffusion, Hanging Drop, Temperature 277K 

>  <REMARK_610>  (45) 
nan

>  <pH>  (45) 
8.0

>  <Cryst_Technique>  (45) 
nan

>  <Sequence>  (45) 
GNAAAAKKGSEQESVKEFLAKAKEDFLKKWETPSQNTAQLDQFDRIKTLGTGSFGRVMLVKHKESGNHYAMKILDKQKVVKLKQIEHTLNEKRILQAVNFPFLVKLEFSFKDNSNLYMVMEYVAGGEMFSHLRRIGRFSEPHARFYAAQIVLTFEYLHSLDLIYRDLKPENLLIDQQGYIQVTDFGFAKRVKGRTWTLCGTPEYLAPEIILSKGYNKAVDWWALGVLIYEMAAGYPPFFADQPIQIYEKIVSGKVRFPSHFSSDLKDLLRNLLQVDLTKRFGNLKNGVNDIKNHKWFATTDWIAIYQRKVEAPFIPKFKGPGDTSNFDDYEEEEIRVSINEKCGKEFTEF

>  <Sequence_Length>  (45) 
350.0

>  <Mutation_Count>  (45) 
0.0

>  <Gene_Name>  (45) 
PKACA

>  <MW>  (45) 
40.657

>  <Name>  (45) 
cAMP-Dependent Protein Kinase Catalytic Subunit Alpha

>  <Mutations>  (45) 
nan

>  <EC_Number>  (45) 
2.7.11.11

>  <Peptidic_Inhibitor>  (45) 
True

>  <Lig_Missing_Atoms>  (45) 
['No']

>  <PDBbind_Resolution>  (45) 
1.9

>  <PDBbind_Release_Year>  (45) 
2010.0

>  <PDBbind_Comment>  (45) 
compound 26; IC50=742+/-69nM

>  <PDBbind_Uniprot_Id>  (45) 
P05132

>  <PDBbind_Protein_Name>  (45) 
CAMP-DEPENDENT PROTEIN KINASE, ALPHA-CATALYTIC

>  <PDBbind_-Logkd/Ki>  (45) 
6.13

>  <PDBbind_Kd/Ki>  (45) 
IC=742nM

>  <PDBbind_Kd_Or_Ki_Or_Ic50>  (45) 
IC50

>  <PDBbind_Relation>  (45) 
=

>  <PDBbind_Value>  (45) 
742.0

>  <PDBbind_Unit>  (45) 
nM

>  <PDBbind_Standard_Value>  (45) 
742.0

>  <PDBbind_Standard_Unit>  (45) 
nM

>  <PDB_Chain>  (45) 
['A']

>  <Num_Ligs>  (45) 
[1.0]

>  <Orthosteric>  (45) 
[1.0]

>  <Allosteric>  (45) 
[0.0]

>  <Pockets_Assigned>  (45) 
['A']

>  <Multisite>  (45) 
[False]

>  <Same_Number>  (45) 
True

>  <Same_Binding_Site>  (45) 
True

>  <Same_Orientation>  (45) 
True

>  <Lig_Order_in_.pdb>  (45) 
Orthosteric

$$$$

     RDKit          2D

 21 22  0  0  0  0  0  0  0  0999 V2000
    1.5000    0.0000    0.0000 C   0  0  0  0  0  0  0  0  0  0  0  0
    0.7500   -1.2990    0.0000 C   0  0  0  0  0  0  0  0  0  0  0  0
   -0.7500   -1.2990    0.0000 C   0  0  0  0  0  0  0  0  0  0  0  0
   -1.5000    0.0000    0.0000 C   0  0  0  0  0  0  0  0  0  0  0  0
   -0.7500    1.2990    0.0000 C   0  0  0  0  0  0  0  0  0  0  0  0
    0.7500    1.2990    0.0000 C   0  0  0  0  0  0  0  0  0  0  0  0
   -3.0000    0.0000    0.0000 C   0  0  0  0  0  0  0  0  0  0  0  0
   -3.7500    1.2990    0.0000 C   0  0  0  0  0  0  0  0  0  0  0  0
   -3.0000    2.5981    0.0000 O   0  0  0  0  0  0  0  0  0  0  0  0
   -5.2500    1.2990    0.0000 N   0  0  0  0  0  0  0  0  0  0  0  0
   -6.0000    2.5981    0.0000 N   0  0  0  0  0  0  0  0  0  0  0  0
   -7.5000    2.5981    0.0000 C   0  0  0  0  0  0  0  0  0  0  0  0
   -8.2500    3.8971    0.0000 C   0  0  0  0  0  0  0  0  0  0  0  0
   -7.5000    5.1962    0.0000 C   0  0  0  0  0  0  0  0  0  0  0  0
   -8.2500    6.4952    0.0000 C   0  0  0  0  0  0  0  0  0  0  0  0
   -9.7500    6.4952    0.0000 C   0  0  0  0  0  0  0  0  0  0  0  0
  -10.5000    5.1962    0.0000 C   0  0  0  0  0  0  0  0  0  0  0  0
   -9.7500    3.8971    0.0000 C   0  0  0  0  0  0  0  0  0  0  0  0
  -12.0000    5.1962    0.0000 Br  0  0  0  0  0  0  0  0  0  0  0  0
  -10.5000    7.7942    0.0000 O   0  0  0  0  0  0  0  0  0  0  0  0
   -3.7500   -1.2990    0.0000 N   0  0  0  0  0  0  0  0  0  0  0  0
  1  2  2  0
  2  3  1  0
  3  4  2  0
  4  5  1  0
  5  6  2  0
  4  7  1  0
  7  8  1  0
  8  9  2  0
  8 10  1  0
 10 11  1  0
 11 12  2  0
 12 13  1  0
 13 14  2  0
 14 15  1  0
 15 16  2  0
 16 17  1  0
 17 18  2  0
 17 19  1  0
 16 20  1  0
  7 21  1  6
  6  1  1  0
 18 13  1  0
M  END
>  <Structure>  (46) 
3OWP

>  <Dataset>  (46) 
PDB

>  <Chain>  (46) 
A

>  <Spatial_Label>  (46) 
DFGin

>  <Dihedral_Label>  (46) 
BLAminus

>  <C_Helix_Label>  (46) 
Chelix-in

>  <Lig_ID>  (46) 
2SB

>  <Lig_Entity_ID>  (46) 
3OWP_3

>  <Lig_Name>  (46) 
(2S)-2-amino-N'-[(1E)-(3-bromo-4-hydroxyphenyl)methylidene]-2-phenylethanehydrazide

>  <Lig_Formula>  (46) 
C15H14BrN3O2

>  <Lig_SMILES>  (46) 
c1ccc(cc1)[C@@H](C(=O)N/N=C/c2ccc(c(c2)Br)O)N

>  <Lig_MW>  (46) 
348.195

>  <Lig_ChEMBL_ID>  (46) 
nan

>  <Lig_DrugBank_ID>  (46) 
nan

>  <Occurence>  (46) 
1.0

>  <Lig_SMILES_Uncharged>  (46) 
N[C@H](C(=O)N/N=C/c1ccc(O)c(Br)c1)c1ccccc1

>  <Lig_Conformer>  (46) 
['NaN']

>  <Lig_Of_Interest>  (46) 
['Y']

>  <Lig_Completeness>  (46) 
[1.0]

>  <Lig_Occupancy>  (46) 
[1.0]

>  <Lig_RSCC>  (46) 
[0.987]

>  <Lig_RSR>  (46) 
[0.101]

>  <Lig_RMSZ_Bonds>  (46) 
[1.29]

>  <Lig_RMSZ_Angles>  (46) 
[2.07]

>  <Lig_Alt_Conf>  (46) 
0.0

>  <Title>  (46) 
Human cAMP-dependent protein kinase in complex with an inhibitor

>  <Nonpolymer_Entity_Count>  (46) 
1.0

>  <Protein_Entity_Count>  (46) 
2.0

>  <Exp_Method>  (46) 
X-Ray Diffraction

>  <Cryst_Method>  (46) 
Vapor Diffusion, Sitting Drop; 5 Mm Mes, 5Mm Bistris-Propane, 75Mm Licl, 1Mm Dtt, 0.1 Mm Edta, Equilibrated Against Water/Ethanol, pH 6.9, Vapor Diffusion, Sitting Drop, Temperature 277K

>  <Deposit_Date>  (46) 
2010-09-20

>  <Resolution>  (46) 
1.88

>  <DOI>  (46) 
nan

>  <Source_Organism>  (46) 
Homo sapiens

>  <R_Free>  (46) 
0.2113

>  <Keywords>  (46) 
Transferase/Transferase Inhibitor

>  <REMARK_280>  (46) 
 Crystal Solvent Content, Vs (%): 51.99 Matthews Coefficient, Vm (Angstroms**3/Da): 2.56 Crystallization Conditions: 5 Mm Mes, 5Mm Bistris-Propane, 75Mm Licl, 1Mm Dtt, 0.1 Mm Edta, Equilibrated Against Water/Ethanol, pH 6.9, Vapor Diffusion, Sitting Drop, Temperature 277K 

>  <REMARK_610>  (46) 
nan

>  <pH>  (46) 
6.9

>  <Cryst_Technique>  (46) 
nan

>  <Sequence>  (46) 
MGNAAAAKKGSEQESVKEFLAKAKEDFLKKWESPAQNTAHLDQFERIKTLGTGSFGRVMLVKHKETGNHYAMKILDKQKVVKLKQIEHTLNEKRILQAVNFPFLVKLEFSFKDNSNLYMVMEYVPGGEMFSHLRRIGRFSEPHARFYAAQIVLTFEYLHSLDLIYRDLKPENLLIDQQGYIQVTDFGFAKRVKGRTWTLCGTPEYLAPEIILSKGYNKAVDWWALGVLIYEMAAGYPPFFADQPIQIYEKIVSGKVRFPSHFSSDLKDLLRNLLQVDLTKRFGNLKNGVNDIKNHKWFATTDWIAIYQRKVEAPFIPKFKGPGDTSNFDDYEEEEIRVSINEKCGKEFSEF

>  <Sequence_Length>  (46) 
351.0

>  <Mutation_Count>  (46) 
0.0

>  <Gene_Name>  (46) 
PKACA

>  <MW>  (46) 
40.809

>  <Name>  (46) 
cAMP-Dependent Protein Kinase Catalytic Subunit Alpha

>  <Mutations>  (46) 
nan

>  <EC_Number>  (46) 
2.7.11.11

>  <Peptidic_Inhibitor>  (46) 
True

>  <Lig_Missing_Atoms>  (46) 
['No']

>  <PDBbind_Resolution>  (46) 
nan

>  <PDBbind_Release_Year>  (46) 
nan

>  <PDBbind_Comment>  (46) 
nan

>  <PDBbind_Uniprot_Id>  (46) 
nan

>  <PDBbind_Protein_Name>  (46) 
nan

>  <PDBbind_-Logkd/Ki>  (46) 
nan

>  <PDBbind_Kd/Ki>  (46) 
nan

>  <PDBbind_Kd_Or_Ki_Or_Ic50>  (46) 
nan

>  <PDBbind_Relation>  (46) 
nan

>  <PDBbind_Value>  (46) 
nan

>  <PDBbind_Unit>  (46) 
nan

>  <PDBbind_Standard_Value>  (46) 
nan

>  <PDBbind_Standard_Unit>  (46) 
nan

>  <PDB_Chain>  (46) 
['A']

>  <Num_Ligs>  (46) 
[1.0]

>  <Orthosteric>  (46) 
[1.0]

>  <Allosteric>  (46) 
[0.0]

>  <Pockets_Assigned>  (46) 
['A']

>  <Multisite>  (46) 
[False]

>  <Same_Number>  (46) 
True

>  <Same_Binding_Site>  (46) 
True

>  <Same_Orientation>  (46) 
True

>  <Lig_Order_in_.pdb>  (46) 
Orthosteric

$$$$

     RDKit          2D

 22 23  0  0  0  0  0  0  0  0999 V2000
    3.0000    0.0000    0.0000 C   0  0  0  0  0  0  0  0  0  0  0  0
    1.5000    0.0000    0.0000 C   0  0  0  0  0  0  0  0  0  0  0  0
    0.7500   -1.2990    0.0000 C   0  0  0  0  0  0  0  0  0  0  0  0
   -0.7500   -1.2990    0.0000 C   0  0  0  0  0  0  0  0  0  0  0  0
   -1.5000    0.0000    0.0000 C   0  0  0  0  0  0  0  0  0  0  0  0
   -0.7500    1.2990    0.0000 C   0  0  0  0  0  0  0  0  0  0  0  0
    0.7500    1.2990    0.0000 C   0  0  0  0  0  0  0  0  0  0  0  0
    1.5000    2.5981    0.0000 C   0  0  0  0  0  0  0  0  0  0  0  0
    0.7500    3.8971    0.0000 N   0  0  0  0  0  0  0  0  0  0  0  0
    1.5000    5.1962    0.0000 N   0  0  0  0  0  0  0  0  0  0  0  0
    0.7500    6.4952    0.0000 C   0  0  0  0  0  0  0  0  0  0  0  0
   -0.7500    6.4952    0.0000 O   0  0  0  0  0  0  0  0  0  0  0  0
    1.5000    7.7942    0.0000 C   0  0  0  0  0  0  0  0  0  0  0  0
    0.7500    9.0933    0.0000 C   0  0  0  0  0  0  0  0  0  0  0  0
    1.5000   10.3923    0.0000 C   0  0  0  0  0  0  0  0  0  0  0  0
    0.7500   11.6913    0.0000 C   0  0  0  0  0  0  0  0  0  0  0  0
   -0.7500   11.6913    0.0000 C   0  0  0  0  0  0  0  0  0  0  0  0
   -1.5000   10.3923    0.0000 C   0  0  0  0  0  0  0  0  0  0  0  0
   -0.7500    9.0933    0.0000 C   0  0  0  0  0  0  0  0  0  0  0  0
    3.0000    7.7942    0.0000 N   0  0  0  0  0  0  0  0  0  0  0  0
   -1.5000    2.5981    0.0000 O   0  0  0  0  0  0  0  0  0  0  0  0
   -1.5000   -2.5981    0.0000 O   0  0  0  0  0  0  0  0  0  0  0  0
  1  2  1  0
  2  3  2  0
  3  4  1  0
  4  5  2  0
  5  6  1  0
  6  7  2  0
  7  8  1  0
  8  9  2  0
  9 10  1  0
 10 11  1  0
 11 12  2  0
 11 13  1  0
 13 14  1  0
 14 15  2  0
 15 16  1  0
 16 17  2  0
 17 18  1  0
 18 19  2  0
 13 20  1  6
  6 21  1  0
  4 22  1  0
  7  2  1  0
 19 14  1  0
M  END
>  <Structure>  (47) 
3OXT

>  <Dataset>  (47) 
PDB

>  <Chain>  (47) 
A

>  <Spatial_Label>  (47) 
DFGin

>  <Dihedral_Label>  (47) 
BLAminus

>  <C_Helix_Label>  (47) 
Chelix-in

>  <Lig_ID>  (47) 
3SB

>  <Lig_Entity_ID>  (47) 
3OXT_3

>  <Lig_Name>  (47) 
(2S)-2-amino-N'-[(1E)-(2,4-dihydroxy-6-methylphenyl)methylidene]-2-phenylethanehydrazide

>  <Lig_Formula>  (47) 
C16H17N3O3

>  <Lig_SMILES>  (47) 
Cc1cc(cc(c1/C=N/NC(=O)[C@H](c2ccccc2)N)O)O

>  <Lig_MW>  (47) 
299.324

>  <Lig_ChEMBL_ID>  (47) 
nan

>  <Lig_DrugBank_ID>  (47) 
nan

>  <Occurence>  (47) 
1.0

>  <Lig_SMILES_Uncharged>  (47) 
Cc1cc(O)cc(O)c1/C=N/NC(=O)[C@@H](N)c1ccccc1

>  <Lig_Conformer>  (47) 
['NaN']

>  <Lig_Of_Interest>  (47) 
['Y']

>  <Lig_Completeness>  (47) 
[1.0]

>  <Lig_Occupancy>  (47) 
[1.0]

>  <Lig_RSCC>  (47) 
[0.946]

>  <Lig_RSR>  (47) 
[0.144]

>  <Lig_RMSZ_Bonds>  (47) 
[1.77]

>  <Lig_RMSZ_Angles>  (47) 
[1.14]

>  <Lig_Alt_Conf>  (47) 
0.0

>  <Title>  (47) 
Human cAMP-dependent protein kinase in complex with an inhibitor

>  <Nonpolymer_Entity_Count>  (47) 
1.0

>  <Protein_Entity_Count>  (47) 
2.0

>  <Exp_Method>  (47) 
X-Ray Diffraction

>  <Cryst_Method>  (47) 
Vapor Diffusion, Sitting Drop; 5Mm Mes, 5Mm Bistris-Propane, 75Mm Licl, 1Mm Dtt, 0.1 Mm Edta, Equilibrated Against Water/Ethanol, pH 6.9, Vapor Diffusion, Sitting Drop, Temperature 277K

>  <Deposit_Date>  (47) 
2010-09-22

>  <Resolution>  (47) 
2.2

>  <DOI>  (47) 
nan

>  <Source_Organism>  (47) 
Homo sapiens

>  <R_Free>  (47) 
0.2391

>  <Keywords>  (47) 
Transferase

>  <REMARK_280>  (47) 
 Crystal Solvent Content, Vs (%): 52.26 Matthews Coefficient, Vm (Angstroms**3/Da): 2.58 Crystallization Conditions: 5Mm Mes, 5Mm Bistris-Propane, 75Mm Licl, 1Mm Dtt, 0.1 Mm Edta, Equilibrated Against Water/Ethanol, pH 6.9, Vapor Diffusion, Sitting Drop, Temperature 277K 

>  <REMARK_610>  (47) 
nan

>  <pH>  (47) 
6.9

>  <Cryst_Technique>  (47) 
nan

>  <Sequence>  (47) 
MGNAAAAKKGSEQESVKEFLAKAKEDFLKKWESPAQNTAHLDQFERIKTLGTGSFGRVMLVKHKETGNHYAMKILDKQKVVKLKQIEHTLNEKRILQAVNFPFLVKLEFSFKDNSNLYMVMEYVPGGEMFSHLRRIGRFSEPHARFYAAQIVLTFEYLHSLDLIYRDLKPENLLIDQQGYIQVTDFGFAKRVKGRTWTLCGTPEYLAPEIILSKGYNKAVDWWALGVLIYEMAAGYPPFFADQPIQIYEKIVSGKVRFPSHFSSDLKDLLRNLLQVDLTKRFGNLKNGVNDIKNHKWFATTDWIAIYQRKVEAPFIPKFKGPGDTSNFDDYEEEEIRVSINEKCGKEFSEF

>  <Sequence_Length>  (47) 
351.0

>  <Mutation_Count>  (47) 
0.0

>  <Gene_Name>  (47) 
PKACA

>  <MW>  (47) 
40.809

>  <Name>  (47) 
cAMP-Dependent Protein Kinase Catalytic Subunit Alpha

>  <Mutations>  (47) 
nan

>  <EC_Number>  (47) 
2.7.11.11

>  <Peptidic_Inhibitor>  (47) 
True

>  <Lig_Missing_Atoms>  (47) 
['No']

>  <PDBbind_Resolution>  (47) 
nan

>  <PDBbind_Release_Year>  (47) 
nan

>  <PDBbind_Comment>  (47) 
nan

>  <PDBbind_Uniprot_Id>  (47) 
nan

>  <PDBbind_Protein_Name>  (47) 
nan

>  <PDBbind_-Logkd/Ki>  (47) 
nan

>  <PDBbind_Kd/Ki>  (47) 
nan

>  <PDBbind_Kd_Or_Ki_Or_Ic50>  (47) 
nan

>  <PDBbind_Relation>  (47) 
nan

>  <PDBbind_Value>  (47) 
nan

>  <PDBbind_Unit>  (47) 
nan

>  <PDBbind_Standard_Value>  (47) 
nan

>  <PDBbind_Standard_Unit>  (47) 
nan

>  <PDB_Chain>  (47) 
['A']

>  <Num_Ligs>  (47) 
[1.0]

>  <Orthosteric>  (47) 
[1.0]

>  <Allosteric>  (47) 
[0.0]

>  <Pockets_Assigned>  (47) 
['A']

>  <Multisite>  (47) 
[False]

>  <Same_Number>  (47) 
True

>  <Same_Binding_Site>  (47) 
True

>  <Same_Orientation>  (47) 
True

>  <Lig_Order_in_.pdb>  (47) 
Orthosteric

$$$$

     RDKit          2D

 23 24  0  0  0  0  0  0  0  0999 V2000
    1.5000    0.0000    0.0000 C   0  0  0  0  0  0  0  0  0  0  0  0
    0.7500   -1.2990    0.0000 C   0  0  0  0  0  0  0  0  0  0  0  0
   -0.7500   -1.2990    0.0000 C   0  0  0  0  0  0  0  0  0  0  0  0
   -1.5000    0.0000    0.0000 C   0  0  0  0  0  0  0  0  0  0  0  0
   -0.7500    1.2990    0.0000 C   0  0  0  0  0  0  0  0  0  0  0  0
    0.7500    1.2990    0.0000 C   0  0  0  0  0  0  0  0  0  0  0  0
   -3.0000    0.0000    0.0000 C   0  0  0  0  0  0  0  0  0  0  0  0
   -3.7500    1.2990    0.0000 C   0  0  0  0  0  0  0  0  0  0  0  0
   -5.2500    1.2990    0.0000 C   0  0  0  0  0  0  0  0  0  0  0  0
   -6.0000    2.5981    0.0000 N   0  0  0  0  0  0  0  0  0  0  0  0
   -3.7500   -1.2990    0.0000 C   0  0  0  0  0  0  0  0  0  0  0  0
   -3.0000   -2.5981    0.0000 O   0  0  0  0  0  0  0  0  0  0  0  0
   -5.2500   -1.2990    0.0000 N   0  0  0  0  0  0  0  0  0  0  0  0
   -6.0000   -2.5981    0.0000 N   0  0  0  0  0  0  0  0  0  0  0  0
   -7.5000   -2.5981    0.0000 C   0  0  0  0  0  0  0  0  0  0  0  0
   -8.2500   -3.8971    0.0000 C   0  0  0  0  0  0  0  0  0  0  0  0
   -9.7500   -3.8971    0.0000 C   0  0  0  0  0  0  0  0  0  0  0  0
  -10.5000   -5.1962    0.0000 C   0  0  0  0  0  0  0  0  0  0  0  0
   -9.7500   -6.4952    0.0000 C   0  0  0  0  0  0  0  0  0  0  0  0
   -8.2500   -6.4952    0.0000 C   0  0  0  0  0  0  0  0  0  0  0  0
   -7.5000   -5.1962    0.0000 C   0  0  0  0  0  0  0  0  0  0  0  0
   -7.5000   -7.7942    0.0000 Br  0  0  0  0  0  0  0  0  0  0  0  0
  -10.5000   -7.7942    0.0000 O   0  0  0  0  0  0  0  0  0  0  0  0
  1  2  2  0
  2  3  1  0
  3  4  2  0
  4  5  1  0
  5  6  2  0
  4  7  1  0
  7  8  1  6
  8  9  1  0
  9 10  1  0
  7 11  1  0
 11 12  2  0
 11 13  1  0
 13 14  1  0
 14 15  2  0
 15 16  1  0
 16 17  2  0
 17 18  1  0
 18 19  2  0
 19 20  1  0
 20 21  2  0
 20 22  1  0
 19 23  1  0
  6  1  1  0
 21 16  1  0
M  END
>  <Structure>  (48) 
3P0M

>  <Dataset>  (48) 
PDB

>  <Chain>  (48) 
A

>  <Spatial_Label>  (48) 
DFGin

>  <Dihedral_Label>  (48) 
BLAminus

>  <C_Helix_Label>  (48) 
Chelix-in

>  <Lig_ID>  (48) 
4SB

>  <Lig_Entity_ID>  (48) 
3P0M_3

>  <Lig_Name>  (48) 
(2R)-4-amino-N'-[(1E)-(3-bromo-4-hydroxyphenyl)methylidene]-2-phenylbutanehydrazide

>  <Lig_Formula>  (48) 
C17H18BrN3O2

>  <Lig_SMILES>  (48) 
c1ccc(cc1)[C@@H](CCN)C(=O)N/N=C/c2ccc(c(c2)Br)O

>  <Lig_MW>  (48) 
376.248

>  <Lig_ChEMBL_ID>  (48) 
nan

>  <Lig_DrugBank_ID>  (48) 
nan

>  <Occurence>  (48) 
1.0

>  <Lig_SMILES_Uncharged>  (48) 
NCC[C@@H](C(=O)N/N=C/c1ccc(O)c(Br)c1)c1ccccc1

>  <Lig_Conformer>  (48) 
['A', 'B']

>  <Lig_Of_Interest>  (48) 
['Y', 'Y']

>  <Lig_Completeness>  (48) 
[1.0, 1.0]

>  <Lig_Occupancy>  (48) 
[0.95, 0.943]

>  <Lig_RSCC>  (48) 
[0.976, 0.976]

>  <Lig_RSR>  (48) 
[0.167, 0.167]

>  <Lig_RMSZ_Bonds>  (48) 
[3.18, 3.18]

>  <Lig_RMSZ_Angles>  (48) 
[1.39, 1.39]

>  <Lig_Alt_Conf>  (48) 
2.0

>  <Title>  (48) 
Human cAMP-dependent protein kinase in complex with an inhibitor

>  <Nonpolymer_Entity_Count>  (48) 
1.0

>  <Protein_Entity_Count>  (48) 
2.0

>  <Exp_Method>  (48) 
X-Ray Diffraction

>  <Cryst_Method>  (48) 
Vapor Diffusion, Sitting Drop; 5Mm Mes, 5Mm Bistris-Propane, 75Mm Licl, 1Mm Dtt, 0.1Mm Edta, Equilibrated Against Water/Ethanol, pH 6.9, Vapor Diffusion, Sitting Drop, Temperature 277K

>  <Deposit_Date>  (48) 
2010-09-29

>  <Resolution>  (48) 
2.03

>  <DOI>  (48) 
nan

>  <Source_Organism>  (48) 
Homo sapiens

>  <R_Free>  (48) 
0.2047

>  <Keywords>  (48) 
Transferase

>  <REMARK_280>  (48) 
 Crystal Solvent Content, Vs (%): 51.58 Matthews Coefficient, Vm (Angstroms**3/Da): 2.54 Crystallization Conditions: 5Mm Mes, 5Mm Bistris-Propane, 75Mm Licl, 1Mm Dtt, 0.1Mm Edta, Equilibrated Against Water/Ethanol, pH 6.9, Vapor Diffusion, Sitting Drop, Temperature 277K 

>  <REMARK_610>  (48) 
nan

>  <pH>  (48) 
6.9

>  <Cryst_Technique>  (48) 
nan

>  <Sequence>  (48) 
MGNAAAAKKGSEQESVKEFLAKAKEDFLKKWESPAQNTAHLDQFERIKTLGTGSFGRVMLVKHKETGNHYAMKILDKQKVVKLKQIEHTLNEKRILQAVNFPFLVKLEFSFKDNSNLYMVMEYVPGGEMFSHLRRIGRFSEPHARFYAAQIVLTFEYLHSLDLIYRDLKPENLLIDQQGYIQVTDFGFAKRVKGRTWTLCGTPEYLAPEIILSKGYNKAVDWWALGVLIYEMAAGYPPFFADQPIQIYEKIVSGKVRFPSHFSSDLKDLLRNLLQVDLTKRFGNLKNGVNDIKNHKWFATTDWIAIYQRKVEAPFIPKFKGPGDTSNFDDYEEEEIRVSINEKCGKEFSEF

>  <Sequence_Length>  (48) 
351.0

>  <Mutation_Count>  (48) 
0.0

>  <Gene_Name>  (48) 
PKACA

>  <MW>  (48) 
40.809

>  <Name>  (48) 
cAMP-Dependent Protein Kinase Catalytic Subunit Alpha

>  <Mutations>  (48) 
nan

>  <EC_Number>  (48) 
2.7.11.11

>  <Peptidic_Inhibitor>  (48) 
True

>  <Lig_Missing_Atoms>  (48) 
['No', 'No']

>  <PDBbind_Resolution>  (48) 
nan

>  <PDBbind_Release_Year>  (48) 
nan

>  <PDBbind_Comment>  (48) 
nan

>  <PDBbind_Uniprot_Id>  (48) 
nan

>  <PDBbind_Protein_Name>  (48) 
nan

>  <PDBbind_-Logkd/Ki>  (48) 
nan

>  <PDBbind_Kd/Ki>  (48) 
nan

>  <PDBbind_Kd_Or_Ki_Or_Ic50>  (48) 
nan

>  <PDBbind_Relation>  (48) 
nan

>  <PDBbind_Value>  (48) 
nan

>  <PDBbind_Unit>  (48) 
nan

>  <PDBbind_Standard_Value>  (48) 
nan

>  <PDBbind_Standard_Unit>  (48) 
nan

>  <PDB_Chain>  (48) 
['A']

>  <Num_Ligs>  (48) 
[1.0]

>  <Orthosteric>  (48) 
[1.0]

>  <Allosteric>  (48) 
[0.0]

>  <Pockets_Assigned>  (48) 
['A']

>  <Multisite>  (48) 
[False]

>  <Same_Number>  (48) 
True

>  <Same_Binding_Site>  (48) 
True

>  <Same_Orientation>  (48) 
True

>  <Lig_Order_in_.pdb>  (48) 
Orthosteric

$$$$

     RDKit          2D

 23 24  0  0  0  0  0  0  0  0999 V2000
    3.0000    0.0000    0.0000 C   0  0  0  0  0  0  0  0  0  0  0  0
    1.5000    0.0000    0.0000 C   0  0  0  0  0  0  0  0  0  0  0  0
    0.7500   -1.2990    0.0000 C   0  0  0  0  0  0  0  0  0  0  0  0
   -0.7500   -1.2990    0.0000 C   0  0  0  0  0  0  0  0  0  0  0  0
   -1.5000    0.0000    0.0000 C   0  0  0  0  0  0  0  0  0  0  0  0
   -0.7500    1.2990    0.0000 C   0  0  0  0  0  0  0  0  0  0  0  0
    0.7500    1.2990    0.0000 C   0  0  0  0  0  0  0  0  0  0  0  0
    1.5000    2.5981    0.0000 C   0  0  0  0  0  0  0  0  0  0  0  0
    0.7500    3.8971    0.0000 N   0  0  0  0  0  0  0  0  0  0  0  0
    1.5000    5.1962    0.0000 N   0  0  0  0  0  0  0  0  0  0  0  0
    0.7500    6.4952    0.0000 C   0  0  0  0  0  0  0  0  0  0  0  0
   -0.7500    6.4952    0.0000 O   0  0  0  0  0  0  0  0  0  0  0  0
    1.5000    7.7942    0.0000 C   0  0  0  0  0  0  0  0  0  0  0  0
    0.7500    9.0933    0.0000 C   0  0  0  0  0  0  0  0  0  0  0  0
    1.5000   10.3923    0.0000 C   0  0  0  0  0  0  0  0  0  0  0  0
    0.7500   11.6913    0.0000 C   0  0  0  0  0  0  0  0  0  0  0  0
   -0.7500   11.6913    0.0000 C   0  0  0  0  0  0  0  0  0  0  0  0
   -1.5000   10.3923    0.0000 C   0  0  0  0  0  0  0  0  0  0  0  0
   -0.7500    9.0933    0.0000 C   0  0  0  0  0  0  0  0  0  0  0  0
   -3.0000   10.3923    0.0000 O   0  0  0  0  0  0  0  0  0  0  0  0
   -3.7500   11.6913    0.0000 C   0  0  0  0  0  0  0  0  0  0  0  0
   -1.5000    2.5981    0.0000 O   0  0  0  0  0  0  0  0  0  0  0  0
   -1.5000   -2.5981    0.0000 O   0  0  0  0  0  0  0  0  0  0  0  0
  1  2  1  0
  2  3  2  0
  3  4  1  0
  4  5  2  0
  5  6  1  0
  6  7  2  0
  7  8  1  0
  8  9  2  0
  9 10  1  0
 10 11  1  0
 11 12  2  0
 11 13  1  0
 13 14  1  0
 14 15  2  0
 15 16  1  0
 16 17  2  0
 17 18  1  0
 18 19  2  0
 18 20  1  0
 20 21  1  0
  6 22  1  0
  4 23  1  0
  7  2  1  0
 19 14  1  0
M  END
>  <Structure>  (49) 
3POO

>  <Dataset>  (49) 
PDB

>  <Chain>  (49) 
A

>  <Spatial_Label>  (49) 
DFGin

>  <Dihedral_Label>  (49) 
BLAminus

>  <C_Helix_Label>  (49) 
Chelix-in

>  <Lig_ID>  (49) 
S69

>  <Lig_Entity_ID>  (49) 
3POO_3

>  <Lig_Name>  (49) 
N'-[(E)-(2,4-dihydroxy-6-methylphenyl)methylidene]-2-(3-methoxyphenyl)acetohydrazide

>  <Lig_Formula>  (49) 
C17H18N2O4

>  <Lig_SMILES>  (49) 
Cc1cc(cc(c1/C=N/NC(=O)Cc2cccc(c2)OC)O)O

>  <Lig_MW>  (49) 
314.336

>  <Lig_ChEMBL_ID>  (49) 
nan

>  <Lig_DrugBank_ID>  (49) 
nan

>  <Occurence>  (49) 
1.0

>  <Lig_SMILES_Uncharged>  (49) 
COc1cccc(CC(=O)N/N=C/c2c(C)cc(O)cc2O)c1

>  <Lig_Conformer>  (49) 
['NaN']

>  <Lig_Of_Interest>  (49) 
['Y']

>  <Lig_Completeness>  (49) 
[1.0]

>  <Lig_Occupancy>  (49) 
[1.0]

>  <Lig_RSCC>  (49) 
[0.954]

>  <Lig_RSR>  (49) 
[0.11]

>  <Lig_RMSZ_Bonds>  (49) 
[3.23]

>  <Lig_RMSZ_Angles>  (49) 
[1.45]

>  <Lig_Alt_Conf>  (49) 
0.0

>  <Title>  (49) 
human cAMP-dependent protein kinase in complex with an inhibitor

>  <Nonpolymer_Entity_Count>  (49) 
2.0

>  <Protein_Entity_Count>  (49) 
2.0

>  <Exp_Method>  (49) 
X-Ray Diffraction

>  <Cryst_Method>  (49) 
Vapor Diffusion, Sitting Drop; 5Mm Mes, 5Mm Bistris-Propane, 75Mm Licl, 1Ml Dtt, 0.1Mm Edta Equilibrated Against Water/Ethanol, pH 6.9, Vapor Diffusion, Sitting Drop, Temperature 277K, Temperature 289K

>  <Deposit_Date>  (49) 
2010-11-23

>  <Resolution>  (49) 
1.6

>  <DOI>  (49) 
nan

>  <Source_Organism>  (49) 
Homo sapiens

>  <R_Free>  (49) 
0.2122

>  <Keywords>  (49) 
Transferase/Transferase Inhibitor

>  <REMARK_280>  (49) 
 Crystal Solvent Content, Vs (%): 51.35 Matthews Coefficient, Vm (Angstroms**3/Da): 2.53 Crystallization Conditions: 5Mm Mes, 5Mm Bistris-Propane, 75Mm Licl, 1Ml Dtt, 0.1Mm Edta Equilibrated Against Water/Ethanol, pH 6.9, Vapor Diffusion, Sitting Drop, Temperature 277K, Temperature 289K 

>  <REMARK_610>  (49) 
nan

>  <pH>  (49) 
6.9

>  <Cryst_Technique>  (49) 
nan

>  <Sequence>  (49) 
MGNAAAAKKGSEQESVKEFLAKAKEDFLKKWESPAQNTAHLDQFERIKTLGTGSFGRVMLVKHKETGNHYAMKILDKQKVVKLKQIEHTLNEKRILQAVNFPFLVKLEFSFKDNSNLYMVMEYVPGGEMFSHLRRIGRFSEPHARFYAAQIVLTFEYLHSLDLIYRDLKPENLLIDQQGYIQVTDFGFAKRVKGRTWTLCGTPEYLAPEIILSKGYNKAVDWWALGVLIYEMAAGYPPFFADQPIQIYEKIVSGKVRFPSHFSSDLKDLLRNLLQVDLTKRFGNLKNGVNDIKNHKWFATTDWIAIYQRKVEAPFIPKFKGPGDTSNFDDYEEEEIRVSINEKCGKEFSEF

>  <Sequence_Length>  (49) 
351.0

>  <Mutation_Count>  (49) 
0.0

>  <Gene_Name>  (49) 
PKACA

>  <MW>  (49) 
40.809

>  <Name>  (49) 
cAMP-Dependent Protein Kinase Catalytic Subunit Alpha

>  <Mutations>  (49) 
nan

>  <EC_Number>  (49) 
2.7.11.11

>  <Peptidic_Inhibitor>  (49) 
True

>  <Lig_Missing_Atoms>  (49) 
['No']

>  <PDBbind_Resolution>  (49) 
nan

>  <PDBbind_Release_Year>  (49) 
nan

>  <PDBbind_Comment>  (49) 
nan

>  <PDBbind_Uniprot_Id>  (49) 
nan

>  <PDBbind_Protein_Name>  (49) 
nan

>  <PDBbind_-Logkd/Ki>  (49) 
nan

>  <PDBbind_Kd/Ki>  (49) 
nan

>  <PDBbind_Kd_Or_Ki_Or_Ic50>  (49) 
nan

>  <PDBbind_Relation>  (49) 
nan

>  <PDBbind_Value>  (49) 
nan

>  <PDBbind_Unit>  (49) 
nan

>  <PDBbind_Standard_Value>  (49) 
nan

>  <PDBbind_Standard_Unit>  (49) 
nan

>  <PDB_Chain>  (49) 
['A']

>  <Num_Ligs>  (49) 
[1.0]

>  <Orthosteric>  (49) 
[1.0]

>  <Allosteric>  (49) 
[0.0]

>  <Pockets_Assigned>  (49) 
['A']

>  <Multisite>  (49) 
[False]

>  <Same_Number>  (49) 
True

>  <Same_Binding_Site>  (49) 
True

>  <Same_Orientation>  (49) 
True

>  <Lig_Order_in_.pdb>  (49) 
Orthosteric

$$$$

     RDKit          2D

 31 33  0  0  0  0  0  0  0  0999 V2000
    1.5000    0.0000    0.0000 C   0  0  0  0  0  0  0  0  0  0  0  0
    0.7500   -1.2990    0.0000 N   0  0  0  0  0  0  0  0  0  0  0  0
   -0.7500   -1.2990    0.0000 C   0  0  0  0  0  0  0  0  0  0  0  0
   -1.5000    0.0000    0.0000 C   0  0  0  0  0  0  0  0  0  0  0  0
   -0.7500    1.2990    0.0000 C   0  0  0  0  0  0  0  0  0  0  0  0
    0.7500    1.2990    0.0000 N   0  0  0  0  0  0  0  0  0  0  0  0
   -1.7537    2.4138    0.0000 N   0  0  0  0  0  0  0  0  0  0  0  0
   -3.1240    1.8037    0.0000 C   0  0  0  0  0  0  0  0  0  0  0  0
   -2.9672    0.3119    0.0000 N   0  0  0  0  0  0  0  0  0  0  0  0
   -1.4418    3.8810    0.0000 C   0  0  0  0  0  0  0  0  0  0  0  0
   -2.4455    4.9957    0.0000 C   0  0  0  0  0  0  0  0  0  0  0  0
   -1.6955    6.2947    0.0000 C   0  0  0  0  0  0  0  0  0  0  0  0
   -0.2283    5.9829    0.0000 C   0  0  0  0  0  0  0  0  0  0  0  0
   -0.0715    4.4911    0.0000 O   0  0  0  0  0  0  0  0  0  0  0  0
    0.8864    6.9866    0.0000 C   0  0  0  0  0  0  0  0  0  0  0  0
    2.3130    6.5230    0.0000 O   0  0  0  0  0  0  0  0  0  0  0  0
    3.4277    7.5267    0.0000 P   0  0  0  0  0  5  0  0  0  0  0  0
    2.4240    8.6414    0.0000 O   0  0  0  0  0  0  0  0  0  0  0  0
    4.4314    6.4120    0.0000 O   0  0  0  0  0  0  0  0  0  0  0  0
    4.5424    8.5304    0.0000 O   0  0  0  0  0  0  0  0  0  0  0  0
    4.2306    9.9976    0.0000 P   0  0  0  0  0  5  0  0  0  0  0  0
    5.6978   10.3095    0.0000 O   0  0  0  0  0  0  0  0  0  0  0  0
    2.7633    9.6858    0.0000 O   0  0  0  0  0  0  0  0  0  0  0  0
    3.9187   11.4649    0.0000 O   0  0  0  0  0  0  0  0  0  0  0  0
    2.4921   11.9284    0.0000 P   0  0  0  0  0  0  0  0  0  0  0  0
    2.9556   13.3550    0.0000 O   0  0  0  0  0  0  0  0  0  0  0  0
    2.0286   10.5018    0.0000 O   0  0  0  0  0  0  0  0  0  0  0  0
    1.0655   12.3919    0.0000 O   0  0  0  0  0  0  0  0  0  0  0  0
   -2.3056    7.6651    0.0000 O   0  0  0  0  0  0  0  0  0  0  0  0
   -3.9373    4.8389    0.0000 O   0  0  0  0  0  0  0  0  0  0  0  0
   -1.5000   -2.5981    0.0000 N   0  0  0  0  0  0  0  0  0  0  0  0
  1  2  2  0
  2  3  1  0
  3  4  2  0
  4  5  1  0
  5  6  2  0
  5  7  1  0
  7  8  1  0
  8  9  2  0
 10  7  1  1
 10 11  1  0
 11 12  1  0
 12 13  1  0
 13 14  1  0
 13 15  1  1
 15 16  1  0
 16 17  1  0
 17 18  2  0
 17 19  1  1
 17 20  1  0
 20 21  1  0
 21 22  2  0
 21 23  1  1
 21 24  1  0
 24 25  1  0
 25 26  2  0
 25 27  1  0
 25 28  1  0
 12 29  1  6
 11 30  1  6
  3 31  1  0
  6  1  1  0
  9  4  1  0
 14 10  1  0
M  END
>  <Structure>  (50) 
3QAL

>  <Dataset>  (50) 
PDB

>  <Chain>  (50) 
E

>  <Spatial_Label>  (50) 
DFGin

>  <Dihedral_Label>  (50) 
BLAminus

>  <C_Helix_Label>  (50) 
Chelix-in

>  <Lig_ID>  (50) 
ATP

>  <Lig_Entity_ID>  (50) 
3QAL_3

>  <Lig_Name>  (50) 
ADENOSINE-5'-TRIPHOSPHATE

>  <Lig_Formula>  (50) 
C10H16N5O13P3

>  <Lig_SMILES>  (50) 
c1nc(c2c(n1)n(cn2)[C@H]3[C@@H]([C@@H]([C@H](O3)CO[P@@](=O)(O)O[P@](=O)(O)OP(=O)(O)O)O)O)N

>  <Lig_MW>  (50) 
507.181

>  <Lig_ChEMBL_ID>  (50) 
['CHEMBL14249']

>  <Lig_DrugBank_ID>  (50) 
['DB00171']

>  <Occurence>  (50) 
14.0

>  <Lig_SMILES_Uncharged>  (50) 
Nc1ncnc2c1ncn2[C@@H]1O[C@H](CO[P@@](=O)(O)O[P@](=O)(O)OP(=O)(O)O)[C@@H](O)[C@H]1O

>  <Lig_Conformer>  (50) 
['NaN']

>  <Lig_Of_Interest>  (50) 
['Y']

>  <Lig_Completeness>  (50) 
[1.0]

>  <Lig_Occupancy>  (50) 
[1.0]

>  <Lig_RSCC>  (50) 
[0.973]

>  <Lig_RSR>  (50) 
[0.087]

>  <Lig_RMSZ_Bonds>  (50) 
[0.69]

>  <Lig_RMSZ_Angles>  (50) 
[1.24]

>  <Lig_Alt_Conf>  (50) 
0.0

>  <Title>  (50) 
Crystal Structure of Arg280Ala mutant of Catalytic subunit of cAMP-dependent Protein Kinase

>  <Nonpolymer_Entity_Count>  (50) 
3.0

>  <Protein_Entity_Count>  (50) 
2.0

>  <Exp_Method>  (50) 
X-Ray Diffraction

>  <Cryst_Method>  (50) 
Vapor Diffusion, Hanging Drop; 13-15% Mpd, 100 Mm Bicine, 10 Mm Dtt, pH 8.0, Vapor Diffusion, Hanging Drop, Temperature 277K

>  <Deposit_Date>  (50) 
2011-01-11

>  <Resolution>  (50) 
1.7

>  <DOI>  (50) 
https://doi.org/10.1016/j.jmb.2011.11.035

>  <Source_Organism>  (50) 
Mus musculus

>  <R_Free>  (50) 
0.194

>  <Keywords>  (50) 
Transferase/Transferase Inhibitor

>  <REMARK_280>  (50) 
 Crystal Solvent Content, Vs (%): 53.69 Matthews Coefficient, Vm (Angstroms**3/Da): 2.66 Crystallization Conditions: 13-15% Mpd, 100 Mm Bicine, 10 Mm Dtt, pH 8.0, Vapor Diffusion, Hanging Drop, Temperature 277K 

>  <REMARK_610>  (50) 
nan

>  <pH>  (50) 
8.0

>  <Cryst_Technique>  (50) 
co-crystallized

>  <Sequence>  (50) 
GNAAAAKKGSEQESVKEFLAKAKEDFLKKWETPSQNTAQLDQFDRIKTLGTGSFGRVMLVKHKESGNHYAMKILDKQKVVKLKQIEHTLNEKRILQAVNFPFLVKLEFSFKDNSNLYMVMEYVAGGEMFSHLRRIGRFSEPHARFYAAQIVLTFEYLHSLDLIYRDLKPENLLIDQQGYIQVTDFGFAKRVKGRTWTLCGTPEYLAPEIILSKGYNKAVDWWALGVLIYEMAAGYPPFFADQPIQIYEKIVSGKVRFPSHFSSDLKDLLRNLLQVDLTKAFGNLKNGVNDIKNHKWFATTDWIAIYQRKVEAPFIPKFKGPGDTSNFDDYEEEEIRVSINEKCGKEFTEF

>  <Sequence_Length>  (50) 
350.0

>  <Mutation_Count>  (50) 
1.0

>  <Gene_Name>  (50) 
PKACA

>  <MW>  (50) 
40.571

>  <Name>  (50) 
cAMP-Dependent Protein Kinase Catalytic Subunit Alpha

>  <Mutations>  (50) 
E208A

>  <EC_Number>  (50) 
2.7.11.11

>  <Peptidic_Inhibitor>  (50) 
True

>  <Lig_Missing_Atoms>  (50) 
['No']

>  <PDBbind_Resolution>  (50) 
nan

>  <PDBbind_Release_Year>  (50) 
nan

>  <PDBbind_Comment>  (50) 
nan

>  <PDBbind_Uniprot_Id>  (50) 
nan

>  <PDBbind_Protein_Name>  (50) 
nan

>  <PDBbind_-Logkd/Ki>  (50) 
nan

>  <PDBbind_Kd/Ki>  (50) 
nan

>  <PDBbind_Kd_Or_Ki_Or_Ic50>  (50) 
nan

>  <PDBbind_Relation>  (50) 
nan

>  <PDBbind_Value>  (50) 
nan

>  <PDBbind_Unit>  (50) 
nan

>  <PDBbind_Standard_Value>  (50) 
nan

>  <PDBbind_Standard_Unit>  (50) 
nan

>  <PDB_Chain>  (50) 
['E']

>  <Num_Ligs>  (50) 
[1.0]

>  <Orthosteric>  (50) 
[1.0]

>  <Allosteric>  (50) 
[0.0]

>  <Pockets_Assigned>  (50) 
['A']

>  <Multisite>  (50) 
[False]

>  <Same_Number>  (50) 
True

>  <Same_Binding_Site>  (50) 
True

>  <Same_Orientation>  (50) 
True

>  <Lig_Order_in_.pdb>  (50) 
Orthosteric

$$$$

     RDKit          2D

 31 33  0  0  0  0  0  0  0  0999 V2000
    1.5000    0.0000    0.0000 C   0  0  0  0  0  0  0  0  0  0  0  0
    0.7500   -1.2990    0.0000 N   0  0  0  0  0  0  0  0  0  0  0  0
   -0.7500   -1.2990    0.0000 C   0  0  0  0  0  0  0  0  0  0  0  0
   -1.5000    0.0000    0.0000 C   0  0  0  0  0  0  0  0  0  0  0  0
   -0.7500    1.2990    0.0000 C   0  0  0  0  0  0  0  0  0  0  0  0
    0.7500    1.2990    0.0000 N   0  0  0  0  0  0  0  0  0  0  0  0
   -1.7537    2.4138    0.0000 N   0  0  0  0  0  0  0  0  0  0  0  0
   -3.1240    1.8037    0.0000 C   0  0  0  0  0  0  0  0  0  0  0  0
   -2.9672    0.3119    0.0000 N   0  0  0  0  0  0  0  0  0  0  0  0
   -1.4418    3.8810    0.0000 C   0  0  0  0  0  0  0  0  0  0  0  0
   -2.4455    4.9957    0.0000 C   0  0  0  0  0  0  0  0  0  0  0  0
   -1.6955    6.2947    0.0000 C   0  0  0  0  0  0  0  0  0  0  0  0
   -0.2283    5.9829    0.0000 C   0  0  0  0  0  0  0  0  0  0  0  0
   -0.0715    4.4911    0.0000 O   0  0  0  0  0  0  0  0  0  0  0  0
    0.8864    6.9866    0.0000 C   0  0  0  0  0  0  0  0  0  0  0  0
    2.3130    6.5230    0.0000 O   0  0  0  0  0  0  0  0  0  0  0  0
    3.4277    7.5267    0.0000 P   0  0  0  0  0  5  0  0  0  0  0  0
    2.4240    8.6414    0.0000 O   0  0  0  0  0  0  0  0  0  0  0  0
    4.4314    6.4120    0.0000 O   0  0  0  0  0  0  0  0  0  0  0  0
    4.5424    8.5304    0.0000 O   0  0  0  0  0  0  0  0  0  0  0  0
    4.2306    9.9976    0.0000 P   0  0  0  0  0  5  0  0  0  0  0  0
    5.6978   10.3095    0.0000 O   0  0  0  0  0  0  0  0  0  0  0  0
    2.7633    9.6858    0.0000 O   0  0  0  0  0  0  0  0  0  0  0  0
    3.9187   11.4649    0.0000 O   0  0  0  0  0  0  0  0  0  0  0  0
    2.4921   11.9284    0.0000 P   0  0  0  0  0  0  0  0  0  0  0  0
    2.9556   13.3550    0.0000 O   0  0  0  0  0  0  0  0  0  0  0  0
    2.0286   10.5018    0.0000 O   0  0  0  0  0  0  0  0  0  0  0  0
    1.0655   12.3919    0.0000 O   0  0  0  0  0  0  0  0  0  0  0  0
   -2.3056    7.6651    0.0000 O   0  0  0  0  0  0  0  0  0  0  0  0
   -3.9373    4.8389    0.0000 O   0  0  0  0  0  0  0  0  0  0  0  0
   -1.5000   -2.5981    0.0000 N   0  0  0  0  0  0  0  0  0  0  0  0
  1  2  2  0
  2  3  1  0
  3  4  2  0
  4  5  1  0
  5  6  2  0
  5  7  1  0
  7  8  1  0
  8  9  2  0
 10  7  1  1
 10 11  1  0
 11 12  1  0
 12 13  1  0
 13 14  1  0
 13 15  1  1
 15 16  1  0
 16 17  1  0
 17 18  2  0
 17 19  1  1
 17 20  1  0
 20 21  1  0
 21 22  2  0
 21 23  1  1
 21 24  1  0
 24 25  1  0
 25 26  2  0
 25 27  1  0
 25 28  1  0
 12 29  1  6
 11 30  1  6
  3 31  1  0
  6  1  1  0
  9  4  1  0
 14 10  1  0
M  END
>  <Structure>  (51) 
3QAM

>  <Dataset>  (51) 
PDB

>  <Chain>  (51) 
E

>  <Spatial_Label>  (51) 
DFGin

>  <Dihedral_Label>  (51) 
BLAminus

>  <C_Helix_Label>  (51) 
Chelix-in

>  <Lig_ID>  (51) 
ATP

>  <Lig_Entity_ID>  (51) 
3QAM_3

>  <Lig_Name>  (51) 
ADENOSINE-5'-TRIPHOSPHATE

>  <Lig_Formula>  (51) 
C10H16N5O13P3

>  <Lig_SMILES>  (51) 
c1nc(c2c(n1)n(cn2)[C@H]3[C@@H]([C@@H]([C@H](O3)CO[P@@](=O)(O)O[P@](=O)(O)OP(=O)(O)O)O)O)N

>  <Lig_MW>  (51) 
507.181

>  <Lig_ChEMBL_ID>  (51) 
['CHEMBL14249']

>  <Lig_DrugBank_ID>  (51) 
['DB00171']

>  <Occurence>  (51) 
14.0

>  <Lig_SMILES_Uncharged>  (51) 
Nc1ncnc2c1ncn2[C@@H]1O[C@H](CO[P@@](=O)(O)O[P@](=O)(O)OP(=O)(O)O)[C@@H](O)[C@H]1O

>  <Lig_Conformer>  (51) 
['NaN']

>  <Lig_Of_Interest>  (51) 
['Y']

>  <Lig_Completeness>  (51) 
[1.0]

>  <Lig_Occupancy>  (51) 
[1.0]

>  <Lig_RSCC>  (51) 
[0.97]

>  <Lig_RSR>  (51) 
[0.081]

>  <Lig_RMSZ_Bonds>  (51) 
[0.71]

>  <Lig_RMSZ_Angles>  (51) 
[1.34]

>  <Lig_Alt_Conf>  (51) 
0.0

>  <Title>  (51) 
Crystal Structure of Glu208Ala mutant of catalytic subunit of cAMP-dependent protein kinase

>  <Nonpolymer_Entity_Count>  (51) 
3.0

>  <Protein_Entity_Count>  (51) 
2.0

>  <Exp_Method>  (51) 
X-Ray Diffraction

>  <Cryst_Method>  (51) 
Vapor Diffusion, Hanging Drop; 10-12% Polyethylene Glycol 6000, 100 Mm Tris-Hcl, 10 Mm Dtt, pH 7.5, Vapor Diffusion, Hanging Drop, Temperature 277K

>  <Deposit_Date>  (51) 
2011-01-11

>  <Resolution>  (51) 
1.92

>  <DOI>  (51) 
https://doi.org/10.1016/j.jmb.2011.11.035

>  <Source_Organism>  (51) 
Mus musculus

>  <R_Free>  (51) 
0.228

>  <Keywords>  (51) 
Transferase/Transferase Inhibitor

>  <REMARK_280>  (51) 
 Crystal Solvent Content, Vs (%): 51.21 Matthews Coefficient, Vm (Angstroms**3/Da): 2.52 Crystallization Conditions: 10-12% Polyethylene Glycol 6000, 100 Mm Tris-Hcl, 10 Mm Dtt, pH 7.5, Vapor Diffusion, Hanging Drop, Temperature 277K 

>  <REMARK_610>  (51) 
nan

>  <pH>  (51) 
7.5

>  <Cryst_Technique>  (51) 
co-crystallized

>  <Sequence>  (51) 
GNAAAAKKGSEQESVKEFLAKAKEDFLKKWETPSQNTAQLDQFDRIKTLGTGSFGRVMLVKHKESGNHYAMKILDKQKVVKLKQIEHTLNEKRILQAVNFPFLVKLEFSFKDNSNLYMVMEYVAGGEMFSHLRRIGRFSEPHARFYAAQIVLTFEYLHSLDLIYRDLKPENLLIDQQGYIQVTDFGFAKRVKGRTWTLCGTPEYLAPAIILSKGYNKAVDWWALGVLIYEMAAGYPPFFADQPIQIYEKIVSGKVRFPSHFSSDLKDLLRNLLQVDLTKRFGNLKNGVNDIKNHKWFATTDWIAIYQRKVEAPFIPKFKGPGDTSNFDDYEEEEIRVSINEKCGKEFTEF

>  <Sequence_Length>  (51) 
350.0

>  <Mutation_Count>  (51) 
1.0

>  <Gene_Name>  (51) 
PKACA

>  <MW>  (51) 
40.599

>  <Name>  (51) 
cAMP-Dependent Protein Kinase Catalytic Subunit Alpha

>  <Mutations>  (51) 
E208A

>  <EC_Number>  (51) 
2.7.11.11

>  <Peptidic_Inhibitor>  (51) 
True

>  <Lig_Missing_Atoms>  (51) 
['No']

>  <PDBbind_Resolution>  (51) 
nan

>  <PDBbind_Release_Year>  (51) 
nan

>  <PDBbind_Comment>  (51) 
nan

>  <PDBbind_Uniprot_Id>  (51) 
nan

>  <PDBbind_Protein_Name>  (51) 
nan

>  <PDBbind_-Logkd/Ki>  (51) 
nan

>  <PDBbind_Kd/Ki>  (51) 
nan

>  <PDBbind_Kd_Or_Ki_Or_Ic50>  (51) 
nan

>  <PDBbind_Relation>  (51) 
nan

>  <PDBbind_Value>  (51) 
nan

>  <PDBbind_Unit>  (51) 
nan

>  <PDBbind_Standard_Value>  (51) 
nan

>  <PDBbind_Standard_Unit>  (51) 
nan

>  <PDB_Chain>  (51) 
['E']

>  <Num_Ligs>  (51) 
[1.0]

>  <Orthosteric>  (51) 
[1.0]

>  <Allosteric>  (51) 
[0.0]

>  <Pockets_Assigned>  (51) 
['A']

>  <Multisite>  (51) 
[False]

>  <Same_Number>  (51) 
True

>  <Same_Binding_Site>  (51) 
True

>  <Same_Orientation>  (51) 
True

>  <Lig_Order_in_.pdb>  (51) 
Orthosteric

$$$$

     RDKit          2D

 27 29  0  0  0  0  0  0  0  0999 V2000
    0.7500   -3.8971    0.0000 C   0  0  0  0  0  0  0  0  0  0  0  0
    1.5000   -2.5981    0.0000 C   0  0  0  0  0  0  0  0  0  0  0  0
    0.7500   -1.2990    0.0000 C   0  0  0  0  0  0  0  0  0  0  0  0
    1.5000    0.0000    0.0000 C   0  0  0  0  0  0  0  0  0  0  0  0
    0.7500    1.2990    0.0000 N   0  0  0  0  0  0  0  0  0  0  0  0
   -0.7500    1.2990    0.0000 C   0  0  0  0  0  0  0  0  0  0  0  0
   -1.5000    0.0000    0.0000 C   0  0  0  0  0  0  0  0  0  0  0  0
   -0.7500   -1.2990    0.0000 C   0  0  0  0  0  0  0  0  0  0  0  0
   -1.5000   -2.5981    0.0000 C   0  0  0  0  0  0  0  0  0  0  0  0
   -0.7500   -3.8971    0.0000 C   0  0  0  0  0  0  0  0  0  0  0  0
   -3.0000   -2.5981    0.0000 S   0  0  0  0  0  0  0  0  0  0  0  0
   -3.0000   -4.0981    0.0000 O   0  0  0  0  0  0  0  0  0  0  0  0
   -3.0000   -1.0981    0.0000 O   0  0  0  0  0  0  0  0  0  0  0  0
   -4.5000   -2.5981    0.0000 N   0  0  0  0  0  0  0  0  0  0  0  0
   -5.2500   -1.2990    0.0000 C   0  0  0  0  0  0  0  0  0  0  0  0
   -6.7500   -1.2990    0.0000 C   0  0  0  0  0  0  0  0  0  0  0  0
   -7.5000   -0.0000    0.0000 N   0  0  0  0  0  0  0  0  0  0  0  0
   -9.0000   -0.0000    0.0000 C   0  0  0  0  0  0  0  0  0  0  0  0
   -9.7500    1.2990    0.0000 C   0  0  0  0  0  0  0  0  0  0  0  0
  -11.2500    1.2990    0.0000 C   0  0  0  0  0  0  0  0  0  0  0  0
  -12.0000    2.5981    0.0000 C   0  0  0  0  0  0  0  0  0  0  0  0
  -11.2500    3.8971    0.0000 C   0  0  0  0  0  0  0  0  0  0  0  0
  -12.0000    5.1962    0.0000 C   0  0  0  0  0  0  0  0  0  0  0  0
  -13.5000    5.1962    0.0000 C   0  0  0  0  0  0  0  0  0  0  0  0
  -14.2500    3.8971    0.0000 C   0  0  0  0  0  0  0  0  0  0  0  0
  -13.5000    2.5981    0.0000 C   0  0  0  0  0  0  0  0  0  0  0  0
  -14.2500    6.4952    0.0000 Br  0  0  0  0  0  0  0  0  0  0  0  0
  1  2  2  0
  2  3  1  0
  3  4  2  0
  4  5  1  0
  5  6  2  0
  6  7  1  0
  7  8  2  0
  8  9  1  0
  9 10  2  0
  9 11  1  0
 11 12  2  0
 11 13  2  0
 11 14  1  0
 14 15  1  0
 15 16  1  0
 16 17  1  0
 17 18  1  0
 18 19  1  0
 19 20  2  0
 20 21  1  0
 21 22  2  0
 22 23  1  0
 23 24  2  0
 24 25  1  0
 25 26  2  0
 24 27  1  0
 10  1  1  0
  8  3  1  0
 26 21  1  0
M  END
>  <Structure>  (52) 
3VQH

>  <Dataset>  (52) 
PDB

>  <Chain>  (52) 
A

>  <Spatial_Label>  (52) 
DFGin

>  <Dihedral_Label>  (52) 
BLAminus

>  <C_Helix_Label>  (52) 
Chelix-in

>  <Lig_ID>  (52) 
IQB

>  <Lig_Entity_ID>  (52) 
3VQH_3

>  <Lig_Name>  (52) 
N-[2-(4-BROMOCINNAMYLAMINO)ETHYL]-5-ISOQUINOLINE SULFONAMIDE

>  <Lig_Formula>  (52) 
C20H20BrN3O2S

>  <Lig_SMILES>  (52) 
c1cc2cnccc2c(c1)S(=O)(=O)NCCNC\C=C\c3ccc(cc3)Br

>  <Lig_MW>  (52) 
446.361

>  <Lig_ChEMBL_ID>  (52) 
['CHEMBL104264']

>  <Lig_DrugBank_ID>  (52) 
['DB07995']

>  <Occurence>  (52) 
1.0

>  <Lig_SMILES_Uncharged>  (52) 
O=S(=O)(NCCNC/C=C/c1ccc(Br)cc1)c1cccc2cnccc12

>  <Lig_Conformer>  (52) 
['A', 'B']

>  <Lig_Of_Interest>  (52) 
['Y', 'Y']

>  <Lig_Completeness>  (52) 
[1.0, 1.0]

>  <Lig_Occupancy>  (52) 
[0.5, 0.5]

>  <Lig_RSCC>  (52) 
[0.943, 0.943]

>  <Lig_RSR>  (52) 
[0.16, 0.16]

>  <Lig_RMSZ_Bonds>  (52) 
[1.86, 1.97]

>  <Lig_RMSZ_Angles>  (52) 
[1.97, 1.82]

>  <Lig_Alt_Conf>  (52) 
2.0

>  <Title>  (52) 
Bromine SAD partially resolves multiple binding modes for PKA inhibitor H-89

>  <Nonpolymer_Entity_Count>  (52) 
2.0

>  <Protein_Entity_Count>  (52) 
2.0

>  <Exp_Method>  (52) 
X-Ray Diffraction

>  <Cryst_Method>  (52) 
Vapor Diffusion, Hanging Drop; 10Mg/Ml Protein, 25Mm Bistris/Mes pH6.9, 50Mm Kcl, 1.5Mm Octanoyl-N-Methylglucamide, 1Mm Protein Kinase Inhibitor Peptide, 5Mm H-89 In Meoh', Vapor Diffusion, Hanging Drop, Temperature 277K

>  <Deposit_Date>  (52) 
2012-03-23

>  <Resolution>  (52) 
1.95

>  <DOI>  (52) 
https://doi.org/10.1107/S1744309112028655

>  <Source_Organism>  (52) 
Homo sapiens

>  <R_Free>  (52) 
0.23395

>  <Keywords>  (52) 
Transferase/Transferase Inhibitor

>  <REMARK_280>  (52) 
 Crystal Solvent Content, Vs (%): 51.70 Matthews Coefficient, Vm (Angstroms**3/Da): 2.55 Crystallization Conditions: 10Mg/Ml Protein, 25Mm Bistris/Mes pH6.9, 50Mm Kcl, 1.5Mm Octanoyl-N-Methylglucamide, 1Mm Protein Kinase Inhibitor Peptide, 5Mm H-89 In Meoh', Vapor Diffusion, Hanging Drop, Temperature 277K 

>  <REMARK_610>  (52) 
nan

>  <pH>  (52) 
6.9

>  <Cryst_Technique>  (52) 
co-crystallized

>  <Sequence>  (52) 
MGNAAAAKKGSEQESVKEFLAKAKEDFLKKWESPAQNTAHLDQFERIKTLGTGSFGRVMLVKHKETGNHYAMKILDKQKVVKLKQIEHTLNEKRILQAVNFPFLVKLEFSFKDNSNLYMVMEYVPGGEMFSHLRRIGRFSEPHARFYAAQIVLTFEYLHSLDLIYRDLKPENLLIDQQGYIQVTDFGFAKRVKGRTWTLCGTPEYLAPEIILSKGYNKAVDWWALGVLIYEMAAGYPPFFADQPIQIYEKIVSGKVRFPSHFSSDLKDLLRNLLQVDLTKRFGNLKNGVNDIKNHKWFATTDWIAIYQRKVEAPFIPKFKGPGDTSNFDDYEEEEIRVSINEKCGKEFSEF

>  <Sequence_Length>  (52) 
351.0

>  <Mutation_Count>  (52) 
0.0

>  <Gene_Name>  (52) 
PKACA

>  <MW>  (52) 
40.889

>  <Name>  (52) 
cAMP-Dependent Protein Kinase Catalytic Subunit Alpha

>  <Mutations>  (52) 
nan

>  <EC_Number>  (52) 
2.7.11.11

>  <Peptidic_Inhibitor>  (52) 
True

>  <Lig_Missing_Atoms>  (52) 
['No', 'No']

>  <PDBbind_Resolution>  (52) 
1.95

>  <PDBbind_Release_Year>  (52) 
2012.0

>  <PDBbind_Comment>  (52) 
ligand is H-89, luminescence based assay

>  <PDBbind_Uniprot_Id>  (52) 
P17612

>  <PDBbind_Protein_Name>  (52) 
CAMP-DEPENDENT PROTEIN KINASE, ALPHA-CATALYTIC

>  <PDBbind_-Logkd/Ki>  (52) 
5.92

>  <PDBbind_Kd/Ki>  (52) 
IC=1.2uM

>  <PDBbind_Kd_Or_Ki_Or_Ic50>  (52) 
IC50

>  <PDBbind_Relation>  (52) 
=

>  <PDBbind_Value>  (52) 
1.2

>  <PDBbind_Unit>  (52) 
uM

>  <PDBbind_Standard_Value>  (52) 
1200.0

>  <PDBbind_Standard_Unit>  (52) 
nM

>  <PDB_Chain>  (52) 
['A']

>  <Num_Ligs>  (52) 
[1.0]

>  <Orthosteric>  (52) 
[1.0]

>  <Allosteric>  (52) 
[0.0]

>  <Pockets_Assigned>  (52) 
['A']

>  <Multisite>  (52) 
[False]

>  <Same_Number>  (52) 
True

>  <Same_Binding_Site>  (52) 
True

>  <Same_Orientation>  (52) 
True

>  <Lig_Order_in_.pdb>  (52) 
Orthosteric

$$$$

     RDKit          2D

 31 33  0  0  0  0  0  0  0  0999 V2000
    1.5000    0.0000    0.0000 C   0  0  0  0  0  0  0  0  0  0  0  0
    0.7500   -1.2990    0.0000 N   0  0  0  0  0  0  0  0  0  0  0  0
   -0.7500   -1.2990    0.0000 C   0  0  0  0  0  0  0  0  0  0  0  0
   -1.5000    0.0000    0.0000 C   0  0  0  0  0  0  0  0  0  0  0  0
   -0.7500    1.2990    0.0000 C   0  0  0  0  0  0  0  0  0  0  0  0
    0.7500    1.2990    0.0000 N   0  0  0  0  0  0  0  0  0  0  0  0
   -1.7537    2.4138    0.0000 N   0  0  0  0  0  0  0  0  0  0  0  0
   -3.1240    1.8037    0.0000 C   0  0  0  0  0  0  0  0  0  0  0  0
   -2.9672    0.3119    0.0000 N   0  0  0  0  0  0  0  0  0  0  0  0
   -1.4418    3.8810    0.0000 C   0  0  0  0  0  0  0  0  0  0  0  0
   -2.4455    4.9957    0.0000 C   0  0  0  0  0  0  0  0  0  0  0  0
   -1.6955    6.2947    0.0000 C   0  0  0  0  0  0  0  0  0  0  0  0
   -0.2283    5.9829    0.0000 C   0  0  0  0  0  0  0  0  0  0  0  0
   -0.0715    4.4911    0.0000 O   0  0  0  0  0  0  0  0  0  0  0  0
    0.8864    6.9866    0.0000 C   0  0  0  0  0  0  0  0  0  0  0  0
    2.3130    6.5230    0.0000 O   0  0  0  0  0  0  0  0  0  0  0  0
    3.4277    7.5267    0.0000 P   0  0  0  0  0  5  0  0  0  0  0  0
    2.4240    8.6414    0.0000 O   0  0  0  0  0  0  0  0  0  0  0  0
    4.4314    6.4120    0.0000 O   0  0  0  0  0  0  0  0  0  0  0  0
    4.5424    8.5304    0.0000 O   0  0  0  0  0  0  0  0  0  0  0  0
    4.2306    9.9976    0.0000 P   0  0  0  0  0  5  0  0  0  0  0  0
    5.6978   10.3095    0.0000 O   0  0  0  0  0  0  0  0  0  0  0  0
    2.7633    9.6858    0.0000 O   0  0  0  0  0  0  0  0  0  0  0  0
    3.9187   11.4649    0.0000 O   0  0  0  0  0  0  0  0  0  0  0  0
    2.4921   11.9284    0.0000 P   0  0  0  0  0  0  0  0  0  0  0  0
    2.9556   13.3550    0.0000 O   0  0  0  0  0  0  0  0  0  0  0  0
    2.0286   10.5018    0.0000 O   0  0  0  0  0  0  0  0  0  0  0  0
    1.0655   12.3919    0.0000 O   0  0  0  0  0  0  0  0  0  0  0  0
   -2.3056    7.6651    0.0000 O   0  0  0  0  0  0  0  0  0  0  0  0
   -3.9373    4.8389    0.0000 O   0  0  0  0  0  0  0  0  0  0  0  0
   -1.5000   -2.5981    0.0000 N   0  0  0  0  0  0  0  0  0  0  0  0
  1  2  2  0
  2  3  1  0
  3  4  2  0
  4  5  1  0
  5  6  2  0
  5  7  1  0
  7  8  1  0
  8  9  2  0
 10  7  1  1
 10 11  1  0
 11 12  1  0
 12 13  1  0
 13 14  1  0
 13 15  1  1
 15 16  1  0
 16 17  1  0
 17 18  2  0
 17 19  1  1
 17 20  1  0
 20 21  1  0
 21 22  2  0
 21 23  1  1
 21 24  1  0
 24 25  1  0
 25 26  2  0
 25 27  1  0
 25 28  1  0
 12 29  1  6
 11 30  1  6
  3 31  1  0
  6  1  1  0
  9  4  1  0
 14 10  1  0
M  END
>  <Structure>  (53) 
3X2U

>  <Dataset>  (53) 
PDB

>  <Chain>  (53) 
A

>  <Spatial_Label>  (53) 
DFGin

>  <Dihedral_Label>  (53) 
BLAminus

>  <C_Helix_Label>  (53) 
Chelix-in

>  <Lig_ID>  (53) 
ATP

>  <Lig_Entity_ID>  (53) 
3X2U_3

>  <Lig_Name>  (53) 
ADENOSINE-5'-TRIPHOSPHATE

>  <Lig_Formula>  (53) 
C10H16N5O13P3

>  <Lig_SMILES>  (53) 
c1nc(c2c(n1)n(cn2)[C@H]3[C@@H]([C@@H]([C@H](O3)CO[P@@](=O)(O)O[P@](=O)(O)OP(=O)(O)O)O)O)N

>  <Lig_MW>  (53) 
507.181

>  <Lig_ChEMBL_ID>  (53) 
['CHEMBL14249']

>  <Lig_DrugBank_ID>  (53) 
['DB00171']

>  <Occurence>  (53) 
14.0

>  <Lig_SMILES_Uncharged>  (53) 
Nc1ncnc2c1ncn2[C@@H]1O[C@H](CO[P@@](=O)(O)O[P@](=O)(O)OP(=O)(O)O)[C@@H](O)[C@H]1O

>  <Lig_Conformer>  (53) 
['NaN']

>  <Lig_Of_Interest>  (53) 
['Y']

>  <Lig_Completeness>  (53) 
[1.0]

>  <Lig_Occupancy>  (53) 
[0.9]

>  <Lig_RSCC>  (53) 
[0.892]

>  <Lig_RSR>  (53) 
[0.141]

>  <Lig_RMSZ_Bonds>  (53) 
[2.79]

>  <Lig_RMSZ_Angles>  (53) 
[1.54]

>  <Lig_Alt_Conf>  (53) 
0.0

>  <Title>  (53) 
Michaelis-like initial complex of cAMP-dependent Protein Kinase Catalytic Subunit.

>  <Nonpolymer_Entity_Count>  (53) 
3.0

>  <Protein_Entity_Count>  (53) 
2.0

>  <Exp_Method>  (53) 
X-Ray Diffraction

>  <Cryst_Method>  (53) 
Vapor Diffusion, Sitting Drop; 100Mm Mes pH 6.5, 5Mm Dtt, 15-20% Peg 3350, Vapor Diffusion, Sitting Drop, Temperature 277K

>  <Deposit_Date>  (53) 
2015-01-02

>  <Resolution>  (53) 
2.4

>  <DOI>  (53) 
https://doi.org/10.1016/j.str.2015.10.005

>  <Source_Organism>  (53) 
Mus musculus

>  <R_Free>  (53) 
0.2386

>  <Keywords>  (53) 
Transferase/Peptide

>  <REMARK_280>  (53) 
 Crystal Solvent Content, Vs (%): 49.50 Matthews Coefficient, Vm (Angstroms**3/Da): 2.44 Crystallization Conditions: 100Mm Mes pH 6.5, 5Mm Dtt, 15-20% Peg 3350, Vapor Diffusion, Sitting Drop, Temperature 277K 

>  <REMARK_610>  (53) 
nan

>  <pH>  (53) 
6.5

>  <Cryst_Technique>  (53) 
soaked

>  <Sequence>  (53) 
HHHHHHMGNAAAAKKGSEQESVKEFLAKAKEDFLKKWETPSQNTAQLDQFDRIKTLGTGSFGRVMLVKHKESGNHYAMKILDKQKVVKLKQIEHTLNEKRILQAVNFPFLVKLEFSFKDNSNLYMVMEYVAGGEMFSHLRRIGRFSEPHARFYAAQIVLTFEYLHSLDLIYRDLKPENLLIDQQGYIQVTDFGFAKRVKGRTWTLCGTPEYLAPEIILSKGYNKAVDWWALGVLIYEMAAGYPPFFADQPIQIYEKIVSGKVRFPSHFSSDLKDLLRNLLQVDLTKRFGNLKNGVNDIKNHKWFATTDWIAIYQRKVEAPFIPKFKGPGDTSNFDDYEEEEIRVSINEKCGKEFTEF

>  <Sequence_Length>  (53) 
357.0

>  <Mutation_Count>  (53) 
0.0

>  <Gene_Name>  (53) 
PKACA

>  <MW>  (53) 
41.697

>  <Name>  (53) 
cAMP-Dependent Protein Kinase Catalytic Subunit Alpha

>  <Mutations>  (53) 
nan

>  <EC_Number>  (53) 
2.7.11.11

>  <Peptidic_Inhibitor>  (53) 
True

>  <Lig_Missing_Atoms>  (53) 
['No']

>  <PDBbind_Resolution>  (53) 
nan

>  <PDBbind_Release_Year>  (53) 
nan

>  <PDBbind_Comment>  (53) 
nan

>  <PDBbind_Uniprot_Id>  (53) 
nan

>  <PDBbind_Protein_Name>  (53) 
nan

>  <PDBbind_-Logkd/Ki>  (53) 
nan

>  <PDBbind_Kd/Ki>  (53) 
nan

>  <PDBbind_Kd_Or_Ki_Or_Ic50>  (53) 
nan

>  <PDBbind_Relation>  (53) 
nan

>  <PDBbind_Value>  (53) 
nan

>  <PDBbind_Unit>  (53) 
nan

>  <PDBbind_Standard_Value>  (53) 
nan

>  <PDBbind_Standard_Unit>  (53) 
nan

>  <PDB_Chain>  (53) 
['A']

>  <Num_Ligs>  (53) 
[1.0]

>  <Orthosteric>  (53) 
[1.0]

>  <Allosteric>  (53) 
[0.0]

>  <Pockets_Assigned>  (53) 
['A']

>  <Multisite>  (53) 
[False]

>  <Same_Number>  (53) 
True

>  <Same_Binding_Site>  (53) 
True

>  <Same_Orientation>  (53) 
True

>  <Lig_Order_in_.pdb>  (53) 
Orthosteric

$$$$

     RDKit          2D

 31 33  0  0  0  0  0  0  0  0999 V2000
    1.5000    0.0000    0.0000 C   0  0  0  0  0  0  0  0  0  0  0  0
    0.7500   -1.2990    0.0000 N   0  0  0  0  0  0  0  0  0  0  0  0
   -0.7500   -1.2990    0.0000 C   0  0  0  0  0  0  0  0  0  0  0  0
   -1.5000    0.0000    0.0000 C   0  0  0  0  0  0  0  0  0  0  0  0
   -0.7500    1.2990    0.0000 C   0  0  0  0  0  0  0  0  0  0  0  0
    0.7500    1.2990    0.0000 N   0  0  0  0  0  0  0  0  0  0  0  0
   -1.7537    2.4138    0.0000 N   0  0  0  0  0  0  0  0  0  0  0  0
   -3.1240    1.8037    0.0000 C   0  0  0  0  0  0  0  0  0  0  0  0
   -2.9672    0.3119    0.0000 N   0  0  0  0  0  0  0  0  0  0  0  0
   -1.4418    3.8810    0.0000 C   0  0  0  0  0  0  0  0  0  0  0  0
   -2.4455    4.9957    0.0000 C   0  0  0  0  0  0  0  0  0  0  0  0
   -1.6955    6.2947    0.0000 C   0  0  0  0  0  0  0  0  0  0  0  0
   -0.2283    5.9829    0.0000 C   0  0  0  0  0  0  0  0  0  0  0  0
   -0.0715    4.4911    0.0000 O   0  0  0  0  0  0  0  0  0  0  0  0
    0.8864    6.9866    0.0000 C   0  0  0  0  0  0  0  0  0  0  0  0
    2.3130    6.5230    0.0000 O   0  0  0  0  0  0  0  0  0  0  0  0
    3.4277    7.5267    0.0000 P   0  0  0  0  0  5  0  0  0  0  0  0
    2.4240    8.6414    0.0000 O   0  0  0  0  0  0  0  0  0  0  0  0
    4.4314    6.4120    0.0000 O   0  0  0  0  0  0  0  0  0  0  0  0
    4.5424    8.5304    0.0000 O   0  0  0  0  0  0  0  0  0  0  0  0
    4.2306    9.9976    0.0000 P   0  0  0  0  0  5  0  0  0  0  0  0
    5.6978   10.3095    0.0000 O   0  0  0  0  0  0  0  0  0  0  0  0
    2.7633    9.6858    0.0000 O   0  0  0  0  0  0  0  0  0  0  0  0
    3.9187   11.4649    0.0000 O   0  0  0  0  0  0  0  0  0  0  0  0
    2.4921   11.9284    0.0000 P   0  0  0  0  0  0  0  0  0  0  0  0
    2.9556   13.3550    0.0000 O   0  0  0  0  0  0  0  0  0  0  0  0
    2.0286   10.5018    0.0000 O   0  0  0  0  0  0  0  0  0  0  0  0
    1.0655   12.3919    0.0000 O   0  0  0  0  0  0  0  0  0  0  0  0
   -2.3056    7.6651    0.0000 O   0  0  0  0  0  0  0  0  0  0  0  0
   -3.9373    4.8389    0.0000 O   0  0  0  0  0  0  0  0  0  0  0  0
   -1.5000   -2.5981    0.0000 N   0  0  0  0  0  0  0  0  0  0  0  0
  1  2  2  0
  2  3  1  0
  3  4  2  0
  4  5  1  0
  5  6  2  0
  5  7  1  0
  7  8  1  0
  8  9  2  0
 10  7  1  1
 10 11  1  0
 11 12  1  0
 12 13  1  0
 13 14  1  0
 13 15  1  1
 15 16  1  0
 16 17  1  0
 17 18  2  0
 17 19  1  1
 17 20  1  0
 20 21  1  0
 21 22  2  0
 21 23  1  1
 21 24  1  0
 24 25  1  0
 25 26  2  0
 25 27  1  0
 25 28  1  0
 12 29  1  6
 11 30  1  6
  3 31  1  0
  6  1  1  0
  9  4  1  0
 14 10  1  0
M  END
>  <Structure>  (54) 
3X2V

>  <Dataset>  (54) 
PDB

>  <Chain>  (54) 
A

>  <Spatial_Label>  (54) 
DFGin

>  <Dihedral_Label>  (54) 
BLAminus

>  <C_Helix_Label>  (54) 
Chelix-in

>  <Lig_ID>  (54) 
ATP

>  <Lig_Entity_ID>  (54) 
3X2V_4

>  <Lig_Name>  (54) 
ADENOSINE-5'-TRIPHOSPHATE

>  <Lig_Formula>  (54) 
C10H16N5O13P3

>  <Lig_SMILES>  (54) 
c1nc(c2c(n1)n(cn2)[C@H]3[C@@H]([C@@H]([C@H](O3)CO[P@@](=O)(O)O[P@](=O)(O)OP(=O)(O)O)O)O)N

>  <Lig_MW>  (54) 
507.181

>  <Lig_ChEMBL_ID>  (54) 
['CHEMBL14249']

>  <Lig_DrugBank_ID>  (54) 
['DB00171']

>  <Occurence>  (54) 
14.0

>  <Lig_SMILES_Uncharged>  (54) 
Nc1ncnc2c1ncn2[C@@H]1O[C@H](CO[P@@](=O)(O)O[P@](=O)(O)OP(=O)(O)O)[C@@H](O)[C@H]1O

>  <Lig_Conformer>  (54) 
['NaN']

>  <Lig_Of_Interest>  (54) 
['Y']

>  <Lig_Completeness>  (54) 
[1.0]

>  <Lig_Occupancy>  (54) 
[1.0]

>  <Lig_RSCC>  (54) 
[0.978]

>  <Lig_RSR>  (54) 
[0.073]

>  <Lig_RMSZ_Bonds>  (54) 
[1.3]

>  <Lig_RMSZ_Angles>  (54) 
[1.19]

>  <Lig_Alt_Conf>  (54) 
0.0

>  <Title>  (54) 
Michaelis-like complex of cAMP-dependent Protein Kinase Catalytic Subunit

>  <Nonpolymer_Entity_Count>  (54) 
4.0

>  <Protein_Entity_Count>  (54) 
2.0

>  <Exp_Method>  (54) 
X-Ray Diffraction

>  <Cryst_Method>  (54) 
Vapor Diffusion, Sitting Drop; 100Mm Mes pH 6.5, 5Mm Dtt, 15-20% Peg 3350, Vapor Diffusion, Sitting Drop, Temperature 277K

>  <Deposit_Date>  (54) 
2015-01-02

>  <Resolution>  (54) 
1.77

>  <DOI>  (54) 
https://doi.org/10.1016/j.str.2015.10.005

>  <Source_Organism>  (54) 
Mus musculus

>  <R_Free>  (54) 
0.2296

>  <Keywords>  (54) 
Transferase/Peptide

>  <REMARK_280>  (54) 
 Crystal Solvent Content, Vs (%): 43.55 Matthews Coefficient, Vm (Angstroms**3/Da): 2.18 Crystallization Conditions: 100Mm Mes pH 6.5, 5Mm Dtt, 15-20% Peg 3350, Vapor Diffusion, Sitting Drop, Temperature 277K 

>  <REMARK_610>  (54) 
nan

>  <pH>  (54) 
6.5

>  <Cryst_Technique>  (54) 
soaked

>  <Sequence>  (54) 
HHHHHHMGNAAAAKKGSEQESVKEFLAKAKEDFLKKWETPSQNTAQLDQFDRIKTLGTGSFGRVMLVKHKESGNHYAMKILDKQKVVKLKQIEHTLNEKRILQAVNFPFLVKLEFSFKDNSNLYMVMEYVAGGEMFSHLRRIGRFSEPHARFYAAQIVLTFEYLHSLDLIYRDLKPENLLIDQQGYIQVTDFGFAKRVKGRTWTLCGTPEYLAPEIILSKGYNKAVDWWALGVLIYEMAAGYPPFFADQPIQIYEKIVSGKVRFPSHFSSDLKDLLRNLLQVDLTKRFGNLKNGVNDIKNHKWFATTDWIAIYQRKVEAPFIPKFKGPGDTSNFDDYEEEEIRVSINEKCGKEFTEF

>  <Sequence_Length>  (54) 
357.0

>  <Mutation_Count>  (54) 
0.0

>  <Gene_Name>  (54) 
PKACA

>  <MW>  (54) 
41.697

>  <Name>  (54) 
cAMP-Dependent Protein Kinase Catalytic Subunit Alpha

>  <Mutations>  (54) 
nan

>  <EC_Number>  (54) 
2.7.11.11

>  <Peptidic_Inhibitor>  (54) 
True

>  <Lig_Missing_Atoms>  (54) 
['No']

>  <PDBbind_Resolution>  (54) 
nan

>  <PDBbind_Release_Year>  (54) 
nan

>  <PDBbind_Comment>  (54) 
nan

>  <PDBbind_Uniprot_Id>  (54) 
nan

>  <PDBbind_Protein_Name>  (54) 
nan

>  <PDBbind_-Logkd/Ki>  (54) 
nan

>  <PDBbind_Kd/Ki>  (54) 
nan

>  <PDBbind_Kd_Or_Ki_Or_Ic50>  (54) 
nan

>  <PDBbind_Relation>  (54) 
nan

>  <PDBbind_Value>  (54) 
nan

>  <PDBbind_Unit>  (54) 
nan

>  <PDBbind_Standard_Value>  (54) 
nan

>  <PDBbind_Standard_Unit>  (54) 
nan

>  <PDB_Chain>  (54) 
['A']

>  <Num_Ligs>  (54) 
[1.0]

>  <Orthosteric>  (54) 
[1.0]

>  <Allosteric>  (54) 
[0.0]

>  <Pockets_Assigned>  (54) 
['A']

>  <Multisite>  (54) 
[False]

>  <Same_Number>  (54) 
True

>  <Same_Binding_Site>  (54) 
True

>  <Same_Orientation>  (54) 
True

>  <Lig_Order_in_.pdb>  (54) 
Orthosteric

$$$$

     RDKit          2D

 31 33  0  0  0  0  0  0  0  0999 V2000
    1.5000    0.0000    0.0000 C   0  0  0  0  0  0  0  0  0  0  0  0
    0.7500   -1.2990    0.0000 N   0  0  0  0  0  0  0  0  0  0  0  0
   -0.7500   -1.2990    0.0000 C   0  0  0  0  0  0  0  0  0  0  0  0
   -1.5000    0.0000    0.0000 C   0  0  0  0  0  0  0  0  0  0  0  0
   -0.7500    1.2990    0.0000 C   0  0  0  0  0  0  0  0  0  0  0  0
    0.7500    1.2990    0.0000 N   0  0  0  0  0  0  0  0  0  0  0  0
   -1.7537    2.4138    0.0000 N   0  0  0  0  0  0  0  0  0  0  0  0
   -3.1240    1.8037    0.0000 C   0  0  0  0  0  0  0  0  0  0  0  0
   -2.9672    0.3119    0.0000 N   0  0  0  0  0  0  0  0  0  0  0  0
   -1.4418    3.8810    0.0000 C   0  0  0  0  0  0  0  0  0  0  0  0
   -2.4455    4.9957    0.0000 C   0  0  0  0  0  0  0  0  0  0  0  0
   -1.6955    6.2947    0.0000 C   0  0  0  0  0  0  0  0  0  0  0  0
   -0.2283    5.9829    0.0000 C   0  0  0  0  0  0  0  0  0  0  0  0
   -0.0715    4.4911    0.0000 O   0  0  0  0  0  0  0  0  0  0  0  0
    0.8864    6.9866    0.0000 C   0  0  0  0  0  0  0  0  0  0  0  0
    2.3130    6.5230    0.0000 O   0  0  0  0  0  0  0  0  0  0  0  0
    3.4277    7.5267    0.0000 P   0  0  0  0  0  5  0  0  0  0  0  0
    2.4240    8.6414    0.0000 O   0  0  0  0  0  0  0  0  0  0  0  0
    4.4314    6.4120    0.0000 O   0  0  0  0  0  0  0  0  0  0  0  0
    4.5424    8.5304    0.0000 O   0  0  0  0  0  0  0  0  0  0  0  0
    4.2306    9.9976    0.0000 P   0  0  0  0  0  5  0  0  0  0  0  0
    5.6978   10.3095    0.0000 O   0  0  0  0  0  0  0  0  0  0  0  0
    2.7633    9.6858    0.0000 O   0  0  0  0  0  0  0  0  0  0  0  0
    3.9187   11.4649    0.0000 O   0  0  0  0  0  0  0  0  0  0  0  0
    2.4921   11.9284    0.0000 P   0  0  0  0  0  0  0  0  0  0  0  0
    2.9556   13.3550    0.0000 O   0  0  0  0  0  0  0  0  0  0  0  0
    2.0286   10.5018    0.0000 O   0  0  0  0  0  0  0  0  0  0  0  0
    1.0655   12.3919    0.0000 O   0  0  0  0  0  0  0  0  0  0  0  0
   -2.3056    7.6651    0.0000 O   0  0  0  0  0  0  0  0  0  0  0  0
   -3.9373    4.8389    0.0000 O   0  0  0  0  0  0  0  0  0  0  0  0
   -1.5000   -2.5981    0.0000 N   0  0  0  0  0  0  0  0  0  0  0  0
  1  2  2  0
  2  3  1  0
  3  4  2  0
  4  5  1  0
  5  6  2  0
  5  7  1  0
  7  8  1  0
  8  9  2  0
 10  7  1  1
 10 11  1  0
 11 12  1  0
 12 13  1  0
 13 14  1  0
 13 15  1  1
 15 16  1  0
 16 17  1  0
 17 18  2  0
 17 19  1  1
 17 20  1  0
 20 21  1  0
 21 22  2  0
 21 23  1  1
 21 24  1  0
 24 25  1  0
 25 26  2  0
 25 27  1  0
 25 28  1  0
 12 29  1  6
 11 30  1  6
  3 31  1  0
  6  1  1  0
  9  4  1  0
 14 10  1  0
M  END
>  <Structure>  (55) 
3X2W

>  <Dataset>  (55) 
PDB

>  <Chain>  (55) 
A

>  <Spatial_Label>  (55) 
DFGin

>  <Dihedral_Label>  (55) 
BLAminus

>  <C_Helix_Label>  (55) 
Chelix-in

>  <Lig_ID>  (55) 
ATP

>  <Lig_Entity_ID>  (55) 
3X2W_4

>  <Lig_Name>  (55) 
ADENOSINE-5'-TRIPHOSPHATE

>  <Lig_Formula>  (55) 
C10H16N5O13P3

>  <Lig_SMILES>  (55) 
c1nc(c2c(n1)n(cn2)[C@H]3[C@@H]([C@@H]([C@H](O3)CO[P@@](=O)(O)O[P@](=O)(O)OP(=O)(O)O)O)O)N

>  <Lig_MW>  (55) 
507.181

>  <Lig_ChEMBL_ID>  (55) 
['CHEMBL14249']

>  <Lig_DrugBank_ID>  (55) 
['DB00171']

>  <Occurence>  (55) 
14.0

>  <Lig_SMILES_Uncharged>  (55) 
Nc1ncnc2c1ncn2[C@@H]1O[C@H](CO[P@@](=O)(O)O[P@](=O)(O)OP(=O)(O)O)[C@@H](O)[C@H]1O

>  <Lig_Conformer>  (55) 
['NaN']

>  <Lig_Of_Interest>  (55) 
['Y']

>  <Lig_Completeness>  (55) 
[1.0]

>  <Lig_Occupancy>  (55) 
[1.0]

>  <Lig_RSCC>  (55) 
[0.975]

>  <Lig_RSR>  (55) 
[0.066]

>  <Lig_RMSZ_Bonds>  (55) 
[1.33]

>  <Lig_RMSZ_Angles>  (55) 
[1.44]

>  <Lig_Alt_Conf>  (55) 
0.0

>  <Title>  (55) 
Michaelis complex of cAMP-dependent Protein Kinase Catalytic Subunit

>  <Nonpolymer_Entity_Count>  (55) 
4.0

>  <Protein_Entity_Count>  (55) 
2.0

>  <Exp_Method>  (55) 
X-Ray Diffraction

>  <Cryst_Method>  (55) 
Vapor Diffusion, Sitting Drop; 100Mm Mes pH 6.5, 5Mm Dtt, 15-20% Peg 3350, Vapor Diffusion, Sitting Drop, Temperature 277K

>  <Deposit_Date>  (55) 
2015-01-02

>  <Resolution>  (55) 
1.7

>  <DOI>  (55) 
https://doi.org/10.1016/j.str.2015.10.005

>  <Source_Organism>  (55) 
Mus musculus

>  <R_Free>  (55) 
0.198

>  <Keywords>  (55) 
Transferase/Peptide

>  <REMARK_280>  (55) 
 Crystal Solvent Content, Vs (%): 50.00 Matthews Coefficient, Vm (Angstroms**3/Da): 2.46 Crystallization Conditions: 100Mm Mes pH 6.5, 5Mm Dtt, 15-20% Peg 3350, Vapor Diffusion, Sitting Drop, Temperature 277K 

>  <REMARK_610>  (55) 
nan

>  <pH>  (55) 
6.5

>  <Cryst_Technique>  (55) 
soaked

>  <Sequence>  (55) 
HHHHHHMGNAAAAKKGSEQESVKEFLAKAKEDFLKKWETPSQNTAQLDQFDRIKTLGTGSFGRVMLVKHKESGNHYAMKILDKQKVVKLKQIEHTLNEKRILQAVNFPFLVKLEFSFKDNSNLYMVMEYVAGGEMFSHLRRIGRFSEPHARFYAAQIVLTFEYLHSLDLIYRDLKPENLLIDQQGYIQVTDFGFAKRVKGRTWTLCGTPEYLAPEIILSKGYNKAVDWWALGVLIYEMAAGYPPFFADQPIQIYEKIVSGKVRFPSHFSSDLKDLLRNLLQVDLTKRFGNLKNGVNDIKNHKWFATTDWIAIYQRKVEAPFIPKFKGPGDTSNFDDYEEEEIRVSINEKCGKEFTEF

>  <Sequence_Length>  (55) 
357.0

>  <Mutation_Count>  (55) 
0.0

>  <Gene_Name>  (55) 
PKACA

>  <MW>  (55) 
41.697

>  <Name>  (55) 
cAMP-Dependent Protein Kinase Catalytic Subunit Alpha

>  <Mutations>  (55) 
nan

>  <EC_Number>  (55) 
2.7.11.11

>  <Peptidic_Inhibitor>  (55) 
True

>  <Lig_Missing_Atoms>  (55) 
['No']

>  <PDBbind_Resolution>  (55) 
nan

>  <PDBbind_Release_Year>  (55) 
nan

>  <PDBbind_Comment>  (55) 
nan

>  <PDBbind_Uniprot_Id>  (55) 
nan

>  <PDBbind_Protein_Name>  (55) 
nan

>  <PDBbind_-Logkd/Ki>  (55) 
nan

>  <PDBbind_Kd/Ki>  (55) 
nan

>  <PDBbind_Kd_Or_Ki_Or_Ic50>  (55) 
nan

>  <PDBbind_Relation>  (55) 
nan

>  <PDBbind_Value>  (55) 
nan

>  <PDBbind_Unit>  (55) 
nan

>  <PDBbind_Standard_Value>  (55) 
nan

>  <PDBbind_Standard_Unit>  (55) 
nan

>  <PDB_Chain>  (55) 
['A']

>  <Num_Ligs>  (55) 
[1.0]

>  <Orthosteric>  (55) 
[1.0]

>  <Allosteric>  (55) 
[0.0]

>  <Pockets_Assigned>  (55) 
['A']

>  <Multisite>  (55) 
[False]

>  <Same_Number>  (55) 
True

>  <Same_Binding_Site>  (55) 
True

>  <Same_Orientation>  (55) 
True

>  <Lig_Order_in_.pdb>  (55) 
Orthosteric

$$$$

     RDKit          2D

 20 23  0  0  0  0  0  0  0  0999 V2000
    0.6260   -8.2988    0.0000 C   0  0  0  0  0  0  0  0  0  0  0  0
    1.9963   -8.9089    0.0000 N   0  0  0  0  0  0  0  0  0  0  0  0
    3.0000   -7.7942    0.0000 C   0  0  0  0  0  0  0  0  0  0  0  0
    2.2500   -6.4952    0.0000 C   0  0  0  0  0  0  0  0  0  0  0  0
    0.7828   -6.8071    0.0000 N   0  0  0  0  0  0  0  0  0  0  0  0
    3.0000   -5.1962    0.0000 C   0  0  0  0  0  0  0  0  0  0  0  0
    4.5000   -5.1962    0.0000 N   0  0  0  0  0  0  0  0  0  0  0  0
    5.2500   -6.4952    0.0000 C   0  0  0  0  0  0  0  0  0  0  0  0
    4.5000   -7.7942    0.0000 N   0  0  0  0  0  0  0  0  0  0  0  0
    2.2500   -3.8971    0.0000 N   0  0  0  0  0  0  0  0  0  0  0  0
    3.0000   -2.5981    0.0000 C   0  0  0  0  0  0  0  0  0  0  0  0
    2.2500   -1.2990    0.0000 C   0  0  0  0  0  0  0  0  0  0  0  0
    0.7500   -1.2990    0.0000 C   0  0  0  0  0  0  0  0  0  0  0  0
    1.5000    0.0000    0.0000 C   0  0  0  0  0  0  0  0  0  0  0  0
    0.7500    1.2990    0.0000 C   0  0  0  0  0  0  0  0  0  0  0  0
   -0.7500    1.2990    0.0000 C   0  0  0  0  0  0  0  0  0  0  0  0
   -1.5000    0.0000    0.0000 C   0  0  0  0  0  0  0  0  0  0  0  0
   -0.7500   -1.2990    0.0000 N   0  0  0  0  0  0  0  0  0  0  0  0
   -0.0000   -2.5981    0.0000 C   0  0  0  0  0  0  0  0  0  0  0  0
    0.7500   -3.8971    0.0000 C   0  0  0  0  0  0  0  0  0  0  0  0
  1  2  1  0
  2  3  1  0
  3  4  2  0
  4  5  1  0
  4  6  1  0
  6  7  2  0
  7  8  1  0
  8  9  2  0
  6 10  1  0
 10 11  1  0
 11 12  1  0
 12 13  1  0
 13 14  1  0
 14 15  1  0
 15 16  1  0
 16 17  1  0
 17 18  1  0
 13 19  1  0
 19 20  1  0
  5  1  2  0
  9  3  1  0
 20 10  1  0
 18 13  1  0
M  END
>  <Structure>  (56) 
3ZO1

>  <Dataset>  (56) 
PDB

>  <Chain>  (56) 
A

>  <Spatial_Label>  (56) 
DFGin

>  <Dihedral_Label>  (56) 
BLAminus

>  <C_Helix_Label>  (56) 
Chelix-in

>  <Lig_ID>  (56) 
SIJ

>  <Lig_Entity_ID>  (56) 
3ZO1_3

>  <Lig_Name>  (56) 
6-(1,9-DIAZASPIRO[5.5]UNDECAN-9-YL)-9H-PURINE

>  <Lig_Formula>  (56) 
C14H20N6

>  <Lig_SMILES>  (56) 
c1[nH]c2c(n1)c(ncn2)N3CCC4(CCCCN4)CC3

>  <Lig_MW>  (56) 
272.349

>  <Lig_ChEMBL_ID>  (56) 
['CHEMBL2420909']

>  <Lig_DrugBank_ID>  (56) 
nan

>  <Occurence>  (56) 
1.0

>  <Lig_SMILES_Uncharged>  (56) 
c1nc(N2CCC3(CCCCN3)CC2)c2nc[nH]c2n1

>  <Lig_Conformer>  (56) 
['NaN']

>  <Lig_Of_Interest>  (56) 
['Y']

>  <Lig_Completeness>  (56) 
[1.0]

>  <Lig_Occupancy>  (56) 
[1.0]

>  <Lig_RSCC>  (56) 
[0.963]

>  <Lig_RSR>  (56) 
[0.081]

>  <Lig_RMSZ_Bonds>  (56) 
[1.15]

>  <Lig_RMSZ_Angles>  (56) 
[1.68]

>  <Lig_Alt_Conf>  (56) 
0.0

>  <Title>  (56) 
The Synthesis and Evaluation of Diazaspirocyclic Protein Kinase Inhibitors

>  <Nonpolymer_Entity_Count>  (56) 
7.0

>  <Protein_Entity_Count>  (56) 
2.0

>  <Exp_Method>  (56) 
X-Ray Diffraction

>  <Cryst_Method>  (56) 
NaN; 25Mm Mes-Bistris pH6.5, 75Mm Licl, 1Mm Dtt, 0.1Mm Edta, 1.5Mm Mega8; 4 Degree Celsius

>  <Deposit_Date>  (56) 
2013-02-20

>  <Resolution>  (56) 
2.0

>  <DOI>  (56) 
https://doi.org/10.1016/j.bmc.2013.07.021

>  <Source_Organism>  (56) 
Bos taurus

>  <R_Free>  (56) 
0.1895

>  <Keywords>  (56) 
Transferase/Inhibitor

>  <REMARK_280>  (56) 
 Crystal Solvent Content, Vs (%): 55.07 Matthews Coefficient, Vm (Angstroms**3/Da): 2.74 Crystallization Conditions: 25Mm Mes-Bistris pH6.5, 75Mm Licl, 1Mm Dtt, 0.1Mm Edta, 1.5Mm Mega8; 4 Degree Celsius, Temperature 277K 

>  <REMARK_610>  (56) 
nan

>  <pH>  (56) 
6.5

>  <Cryst_Technique>  (56) 
soaked

>  <Sequence>  (56) 
MGNAAAAKKGSEQESVKEFLAKAKEDFLKKWENPAQNTAHLDQFERIKTLGTGSFGRVMLVKHMETGNHYAMKILDKQKVVKLKQIEHTLNEKRILQAVNFPFLVKLEFSFKDNSNLYMVMEYVPGGEMFSHLRRIGRFSEPHARFYAAQIVLTFEYLHSLDLIYRDLKPENLLIDQQGYIQVTDFGFAKRVKGRTWTLCGTPEYLAPEIILSKGYNKAVDWWALGVLIYEMAAGYPPFFADQPIQIYEKIVSGKVRFPSHFSSDLKDLLRNLLQVDLTKRFGNLKNGVNDIKNHKWFATTDWIAIYQRKVEAPFIPKFKGPGDTSNFDDYEEEEIRVSINEKCGKEFSEF

>  <Sequence_Length>  (56) 
351.0

>  <Mutation_Count>  (56) 
0.0

>  <Gene_Name>  (56) 
nan

>  <MW>  (56) 
40.918

>  <Name>  (56) 
cAMP-Dependent Protein Kinase Catalytic Subunit Alpha

>  <Mutations>  (56) 
nan

>  <EC_Number>  (56) 
2.7.11.11

>  <Peptidic_Inhibitor>  (56) 
True

>  <Lig_Missing_Atoms>  (56) 
['No']

>  <PDBbind_Resolution>  (56) 
2.0

>  <PDBbind_Release_Year>  (56) 
2013.0

>  <PDBbind_Comment>  (56) 
ligand is compound 12

>  <PDBbind_Uniprot_Id>  (56) 
P00517

>  <PDBbind_Protein_Name>  (56) 
CAMP-DEPENDENT PROTEIN KINASE, ALPHA-CATALYTIC

>  <PDBbind_-Logkd/Ki>  (56) 
6.0

>  <PDBbind_Kd/Ki>  (56) 
IC=1uM

>  <PDBbind_Kd_Or_Ki_Or_Ic50>  (56) 
IC50

>  <PDBbind_Relation>  (56) 
=

>  <PDBbind_Value>  (56) 
1.0

>  <PDBbind_Unit>  (56) 
uM

>  <PDBbind_Standard_Value>  (56) 
1000.0

>  <PDBbind_Standard_Unit>  (56) 
nM

>  <PDB_Chain>  (56) 
['A']

>  <Num_Ligs>  (56) 
[1.0]

>  <Orthosteric>  (56) 
[1.0]

>  <Allosteric>  (56) 
[0.0]

>  <Pockets_Assigned>  (56) 
['A']

>  <Multisite>  (56) 
[False]

>  <Same_Number>  (56) 
True

>  <Same_Binding_Site>  (56) 
True

>  <Same_Orientation>  (56) 
True

>  <Lig_Order_in_.pdb>  (56) 
Orthosteric

$$$$

     RDKit          2D

 20 23  0  0  0  0  0  0  0  0999 V2000
    0.6260   -8.2988    0.0000 C   0  0  0  0  0  0  0  0  0  0  0  0
    1.9963   -8.9089    0.0000 N   0  0  0  0  0  0  0  0  0  0  0  0
    3.0000   -7.7942    0.0000 C   0  0  0  0  0  0  0  0  0  0  0  0
    2.2500   -6.4952    0.0000 C   0  0  0  0  0  0  0  0  0  0  0  0
    0.7828   -6.8071    0.0000 N   0  0  0  0  0  0  0  0  0  0  0  0
    3.0000   -5.1962    0.0000 C   0  0  0  0  0  0  0  0  0  0  0  0
    4.5000   -5.1962    0.0000 N   0  0  0  0  0  0  0  0  0  0  0  0
    5.2500   -6.4952    0.0000 C   0  0  0  0  0  0  0  0  0  0  0  0
    4.5000   -7.7942    0.0000 N   0  0  0  0  0  0  0  0  0  0  0  0
    2.2500   -3.8971    0.0000 N   0  0  0  0  0  0  0  0  0  0  0  0
    3.0000   -2.5981    0.0000 C   0  0  0  0  0  0  0  0  0  0  0  0
    2.2500   -1.2990    0.0000 C   0  0  0  0  0  0  0  0  0  0  0  0
    0.7500   -1.2990    0.0000 C   0  0  0  0  0  0  0  0  0  0  0  0
    1.5000    0.0000    0.0000 C   0  0  0  0  0  0  0  0  0  0  0  0
    0.7500    1.2990    0.0000 C   0  0  0  0  0  0  0  0  0  0  0  0
   -0.7500    1.2990    0.0000 C   0  0  0  0  0  0  0  0  0  0  0  0
   -1.5000    0.0000    0.0000 N   0  0  0  0  0  0  0  0  0  0  0  0
   -0.7500   -1.2990    0.0000 C   0  0  0  0  0  0  0  0  0  0  0  0
   -0.0000   -2.5981    0.0000 C   0  0  0  0  0  0  0  0  0  0  0  0
    0.7500   -3.8971    0.0000 C   0  0  0  0  0  0  0  0  0  0  0  0
  1  2  1  0
  2  3  1  0
  3  4  2  0
  4  5  1  0
  4  6  1  0
  6  7  2  0
  7  8  1  0
  8  9  2  0
  6 10  1  0
 10 11  1  0
 11 12  1  0
 12 13  1  0
 13 14  1  0
 14 15  1  0
 15 16  1  0
 16 17  1  0
 17 18  1  0
 13 19  1  0
 19 20  1  0
  5  1  2  0
  9  3  1  0
 20 10  1  0
 18 13  1  0
M  END
>  <Structure>  (57) 
3ZO2

>  <Dataset>  (57) 
PDB

>  <Chain>  (57) 
A

>  <Spatial_Label>  (57) 
DFGin

>  <Dihedral_Label>  (57) 
ABAminus

>  <C_Helix_Label>  (57) 
Chelix-in

>  <Lig_ID>  (57) 
15I

>  <Lig_Entity_ID>  (57) 
3ZO2_3

>  <Lig_Name>  (57) 
6-(2,9-Diazaspiro[5.5]undecan-9-yl)-9H-purine

>  <Lig_Formula>  (57) 
C14H20N6

>  <Lig_SMILES>  (57) 
c1[nH]c2c(n1)c(ncn2)N3CCC4(CCCNC4)CC3

>  <Lig_MW>  (57) 
272.349

>  <Lig_ChEMBL_ID>  (57) 
['CHEMBL2420911']

>  <Lig_DrugBank_ID>  (57) 
nan

>  <Occurence>  (57) 
1.0

>  <Lig_SMILES_Uncharged>  (57) 
c1nc(N2CCC3(CCCNC3)CC2)c2nc[nH]c2n1

>  <Lig_Conformer>  (57) 
['NaN']

>  <Lig_Of_Interest>  (57) 
['Y']

>  <Lig_Completeness>  (57) 
[1.0]

>  <Lig_Occupancy>  (57) 
[1.0]

>  <Lig_RSCC>  (57) 
[0.974]

>  <Lig_RSR>  (57) 
[0.087]

>  <Lig_RMSZ_Bonds>  (57) 
[1.75]

>  <Lig_RMSZ_Angles>  (57) 
[1.45]

>  <Lig_Alt_Conf>  (57) 
0.0

>  <Title>  (57) 
The Synthesis and Evaluation of Diazaspirocyclic Protein Kinase Inhibitors

>  <Nonpolymer_Entity_Count>  (57) 
4.0

>  <Protein_Entity_Count>  (57) 
2.0

>  <Exp_Method>  (57) 
X-Ray Diffraction

>  <Cryst_Method>  (57) 
NaN; 25Mm Mes-Bistris pH6.5, 75Mm Licl, 1Mm Dtt, 0.1Mm Edta, 1.5Mm Mega8; 4 Degree Celsius

>  <Deposit_Date>  (57) 
2013-02-20

>  <Resolution>  (57) 
1.98

>  <DOI>  (57) 
https://doi.org/10.1016/j.bmc.2013.07.021

>  <Source_Organism>  (57) 
Bos taurus

>  <R_Free>  (57) 
0.1909

>  <Keywords>  (57) 
Transferase/Inhibitor

>  <REMARK_280>  (57) 
 Crystal Solvent Content, Vs (%): 54.53 Matthews Coefficient, Vm (Angstroms**3/Da): 2.70 Crystallization Conditions: 25Mm Mes-Bistris pH6.5, 75Mm Licl, 1Mm Dtt, 0.1Mm Edta, 1.5Mm Mega8; 4 Degree Celsius, Temperature 277K 

>  <REMARK_610>  (57) 
nan

>  <pH>  (57) 
6.5

>  <Cryst_Technique>  (57) 
soaked

>  <Sequence>  (57) 
MGNAAAAKKGSEQESVKEFLAKAKEDFLKKWENPAQNTAHLDQFERIKTLGTGSFGRVMLVKHMETGNHYAMKILDKQKVVKLKQIEHTLNEKRILQAVNFPFLVKLEFSFKDNSNLYMVMEYVPGGEMFSHLRRIGRFSEPHARFYAAQIVLTFEYLHSLDLIYRDLKPENLLIDQQGYIQVTDFGFAKRVKGRTWTLCGTPEYLAPEIILSKGYNKAVDWWALGVLIYEMAAGYPPFFADQPIQIYEKIVSGKVRFPSHFSSDLKDLLRNLLQVDLTKRFGNLKNGVNDIKNHKWFATTDWIAIYQRKVEAPFIPKFKGPGDTSNFDDYEEEEIRVSINEKCGKEFSEF

>  <Sequence_Length>  (57) 
351.0

>  <Mutation_Count>  (57) 
0.0

>  <Gene_Name>  (57) 
nan

>  <MW>  (57) 
40.998

>  <Name>  (57) 
cAMP-Dependent Protein Kinase Catalytic Subunit Alpha

>  <Mutations>  (57) 
nan

>  <EC_Number>  (57) 
2.7.11.11

>  <Peptidic_Inhibitor>  (57) 
True

>  <Lig_Missing_Atoms>  (57) 
['No']

>  <PDBbind_Resolution>  (57) 
1.98

>  <PDBbind_Release_Year>  (57) 
2013.0

>  <PDBbind_Comment>  (57) 
ligand is compound 14

>  <PDBbind_Uniprot_Id>  (57) 
P00517

>  <PDBbind_Protein_Name>  (57) 
CAMP-DEPENDENT PROTEIN KINASE, ALPHA-CATALYTIC

>  <PDBbind_-Logkd/Ki>  (57) 
7.1

>  <PDBbind_Kd/Ki>  (57) 
IC=80nM

>  <PDBbind_Kd_Or_Ki_Or_Ic50>  (57) 
IC50

>  <PDBbind_Relation>  (57) 
=

>  <PDBbind_Value>  (57) 
80.0

>  <PDBbind_Unit>  (57) 
nM

>  <PDBbind_Standard_Value>  (57) 
80.0

>  <PDBbind_Standard_Unit>  (57) 
nM

>  <PDB_Chain>  (57) 
['A']

>  <Num_Ligs>  (57) 
[1.0]

>  <Orthosteric>  (57) 
[1.0]

>  <Allosteric>  (57) 
[0.0]

>  <Pockets_Assigned>  (57) 
['A']

>  <Multisite>  (57) 
[False]

>  <Same_Number>  (57) 
True

>  <Same_Binding_Site>  (57) 
True

>  <Same_Orientation>  (57) 
True

>  <Lig_Order_in_.pdb>  (57) 
Orthosteric

$$$$

     RDKit          2D

 20 23  0  0  0  0  0  0  0  0999 V2000
    2.3740   -8.2988    0.0000 C   0  0  0  0  0  0  0  0  0  0  0  0
    1.0037   -8.9089    0.0000 N   0  0  0  0  0  0  0  0  0  0  0  0
   -0.0000   -7.7942    0.0000 C   0  0  0  0  0  0  0  0  0  0  0  0
    0.7500   -6.4952    0.0000 C   0  0  0  0  0  0  0  0  0  0  0  0
    2.2172   -6.8071    0.0000 N   0  0  0  0  0  0  0  0  0  0  0  0
   -0.0000   -5.1962    0.0000 C   0  0  0  0  0  0  0  0  0  0  0  0
   -1.5000   -5.1962    0.0000 N   0  0  0  0  0  0  0  0  0  0  0  0
   -2.2500   -6.4952    0.0000 C   0  0  0  0  0  0  0  0  0  0  0  0
   -1.5000   -7.7942    0.0000 N   0  0  0  0  0  0  0  0  0  0  0  0
    0.7500   -3.8971    0.0000 N   0  0  0  0  0  0  0  0  0  0  0  0
    2.2500   -3.8971    0.0000 C   0  0  0  0  0  0  0  0  0  0  0  0
    3.0000   -2.5981    0.0000 C   0  0  0  0  0  0  0  0  0  0  0  0
    2.2500   -1.2990    0.0000 C   0  0  0  0  0  0  0  0  0  0  0  0
    0.7500   -1.2990    0.0000 C   0  0  0  0  0  0  0  0  0  0  0  0
   -0.0000   -2.5981    0.0000 C   0  0  0  0  0  0  0  0  0  0  0  0
    1.5000    0.0000    0.0000 C   0  0  0  0  0  0  0  0  0  0  0  0
    0.7500    1.2990    0.0000 C   0  0  0  0  0  0  0  0  0  0  0  0
   -0.7500    1.2990    0.0000 N   0  0  0  0  0  0  0  0  0  0  0  0
   -1.5000    0.0000    0.0000 C   0  0  0  0  0  0  0  0  0  0  0  0
   -0.7500   -1.2990    0.0000 C   0  0  0  0  0  0  0  0  0  0  0  0
  1  2  1  0
  2  3  1  0
  3  4  2  0
  4  5  1  0
  4  6  1  0
  6  7  2  0
  7  8  1  0
  8  9  2  0
  6 10  1  0
 10 11  1  0
 11 12  1  0
 12 13  1  0
 13 14  1  0
 14 15  1  0
 14 16  1  0
 16 17  1  0
 17 18  1  0
 18 19  1  0
 19 20  1  0
  5  1  2  0
  9  3  1  0
 15 10  1  0
 20 14  1  0
M  END
>  <Structure>  (58) 
3ZO3

>  <Dataset>  (58) 
PDB

>  <Chain>  (58) 
A

>  <Spatial_Label>  (58) 
DFGin

>  <Dihedral_Label>  (58) 
ABAminus

>  <C_Helix_Label>  (58) 
Chelix-in

>  <Lig_ID>  (58) 
QNI

>  <Lig_Entity_ID>  (58) 
3ZO3_3

>  <Lig_Name>  (58) 
6-(2,9-DIAZASPIRO[5.5]UNDECAN-2-YL)-9H-PURINE

>  <Lig_Formula>  (58) 
C14H20N6

>  <Lig_SMILES>  (58) 
c1[nH]c2c(n1)c(ncn2)N3CCCC4(C3)CCNCC4

>  <Lig_MW>  (58) 
272.349

>  <Lig_ChEMBL_ID>  (58) 
['CHEMBL2420913']

>  <Lig_DrugBank_ID>  (58) 
nan

>  <Occurence>  (58) 
1.0

>  <Lig_SMILES_Uncharged>  (58) 
c1nc(N2CCCC3(CCNCC3)C2)c2nc[nH]c2n1

>  <Lig_Conformer>  (58) 
['NaN']

>  <Lig_Of_Interest>  (58) 
['Y']

>  <Lig_Completeness>  (58) 
[1.0]

>  <Lig_Occupancy>  (58) 
[1.0]

>  <Lig_RSCC>  (58) 
[0.982]

>  <Lig_RSR>  (58) 
[0.09]

>  <Lig_RMSZ_Bonds>  (58) 
[1.88]

>  <Lig_RMSZ_Angles>  (58) 
[0.95]

>  <Lig_Alt_Conf>  (58) 
0.0

>  <Title>  (58) 
The Synthesis and Evaluation of Diazaspirocyclic Protein Kinase Inhibitors

>  <Nonpolymer_Entity_Count>  (58) 
12.0

>  <Protein_Entity_Count>  (58) 
2.0

>  <Exp_Method>  (58) 
X-Ray Diffraction

>  <Cryst_Method>  (58) 
NaN; 25Mm Mes-Bistris pH6.5, 75Mm Licl, 1Mm Dtt, 0.1Mm Edta, 1.5Mm Mega8; 4 Degree Celsius

>  <Deposit_Date>  (58) 
2013-02-20

>  <Resolution>  (58) 
2.1

>  <DOI>  (58) 
https://doi.org/10.1016/j.bmc.2013.07.021

>  <Source_Organism>  (58) 
Bos taurus

>  <R_Free>  (58) 
0.2105

>  <Keywords>  (58) 
Transferase/Inhibitor

>  <REMARK_280>  (58) 
 Crystal Solvent Content, Vs (%): 54.87 Matthews Coefficient, Vm (Angstroms**3/Da): 2.72 Crystallization Conditions: 25Mm Mes-Bistris pH6.5, 75Mm Licl, 1Mm Dtt, 0.1Mm Edta, 1.5Mm Mega8; 4 Degree Celsius, Temperature 277K 

>  <REMARK_610>  (58) 
nan

>  <pH>  (58) 
6.5

>  <Cryst_Technique>  (58) 
soaked

>  <Sequence>  (58) 
MGNAAAAKKGSEQESVKEFLAKAKEDFLKKWENPAQNTAHLDQFERIKTLGTGSFGRVMLVKHMETGNHYAMKILDKQKVVKLKQIEHTLNEKRILQAVNFPFLVKLEFSFKDNSNLYMVMEYVPGGEMFSHLRRIGRFSEPHARFYAAQIVLTFEYLHSLDLIYRDLKPENLLIDQQGYIQVTDFGFAKRVKGRTWTLCGTPEYLAPEIILSKGYNKAVDWWALGVLIYEMAAGYPPFFADQPIQIYEKIVSGKVRFPSHFSSDLKDLLRNLLQVDLTKRFGNLKNGVNDIKNHKWFATTDWIAIYQRKVEAPFIPKFKGPGDTSNFDDYEEEEIRVSINEKCGKEFSEF

>  <Sequence_Length>  (58) 
351.0

>  <Mutation_Count>  (58) 
0.0

>  <Gene_Name>  (58) 
nan

>  <MW>  (58) 
40.918

>  <Name>  (58) 
cAMP-Dependent Protein Kinase Catalytic Subunit Alpha

>  <Mutations>  (58) 
nan

>  <EC_Number>  (58) 
2.7.11.11

>  <Peptidic_Inhibitor>  (58) 
True

>  <Lig_Missing_Atoms>  (58) 
['No']

>  <PDBbind_Resolution>  (58) 
nan

>  <PDBbind_Release_Year>  (58) 
nan

>  <PDBbind_Comment>  (58) 
nan

>  <PDBbind_Uniprot_Id>  (58) 
nan

>  <PDBbind_Protein_Name>  (58) 
nan

>  <PDBbind_-Logkd/Ki>  (58) 
nan

>  <PDBbind_Kd/Ki>  (58) 
nan

>  <PDBbind_Kd_Or_Ki_Or_Ic50>  (58) 
nan

>  <PDBbind_Relation>  (58) 
nan

>  <PDBbind_Value>  (58) 
nan

>  <PDBbind_Unit>  (58) 
nan

>  <PDBbind_Standard_Value>  (58) 
nan

>  <PDBbind_Standard_Unit>  (58) 
nan

>  <PDB_Chain>  (58) 
['A']

>  <Num_Ligs>  (58) 
[1.0]

>  <Orthosteric>  (58) 
[1.0]

>  <Allosteric>  (58) 
[0.0]

>  <Pockets_Assigned>  (58) 
['A']

>  <Multisite>  (58) 
[False]

>  <Same_Number>  (58) 
True

>  <Same_Binding_Site>  (58) 
True

>  <Same_Orientation>  (58) 
True

>  <Lig_Order_in_.pdb>  (58) 
Orthosteric

$$$$

     RDKit          2D

 26 30  0  0  0  0  0  0  0  0999 V2000
    3.0000   -5.1962    0.0000 C   0  0  0  0  0  0  0  0  0  0  0  0
    1.5000   -5.1962    0.0000 C   0  0  0  0  0  0  0  0  0  0  0  0
    0.7500   -3.8971    0.0000 C   0  0  0  0  0  0  0  0  0  0  0  0
    1.5000   -2.5981    0.0000 C   0  0  0  0  0  0  0  0  0  0  0  0
    3.0000   -2.5981    0.0000 C   0  0  0  0  0  0  0  0  0  0  0  0
    3.7500   -3.8971    0.0000 C   0  0  0  0  0  0  0  0  0  0  0  0
    0.7500   -1.2990    0.0000 C   0  0  0  0  0  0  0  0  0  0  0  0
    1.5000    0.0000    0.0000 C   0  0  0  0  0  0  0  0  0  0  0  0
    0.7500    1.2990    0.0000 C   0  0  0  0  0  0  0  0  0  0  0  0
   -0.7500    1.2990    0.0000 N   0  0  0  0  0  0  0  0  0  0  0  0
   -1.5000    0.0000    0.0000 C   0  0  0  0  0  0  0  0  0  0  0  0
   -0.7500   -1.2990    0.0000 C   0  0  0  0  0  0  0  0  0  0  0  0
   -2.2500    1.2990    0.0000 C   0  0  0  0  0  0  0  0  0  0  0  0
   -3.7500    1.2990    0.0000 C   0  0  0  0  0  0  0  0  0  0  0  0
   -4.5000   -0.0000    0.0000 N   0  0  0  0  0  0  0  0  0  0  0  0
   -3.7500   -1.2990    0.0000 C   0  0  0  0  0  0  0  0  0  0  0  0
   -2.2500   -1.2990    0.0000 C   0  0  0  0  0  0  0  0  0  0  0  0
   -6.0000   -0.0000    0.0000 C   0  0  0  0  0  0  0  0  0  0  0  0
   -6.7500    1.2990    0.0000 C   0  0  0  0  0  0  0  0  0  0  0  0
   -8.2500    1.2990    0.0000 C   0  0  0  0  0  0  0  0  0  0  0  0
   -8.7135    2.7256    0.0000 N   0  0  0  0  0  0  0  0  0  0  0  0
   -7.5000    3.6073    0.0000 C   0  0  0  0  0  0  0  0  0  0  0  0
   -6.2865    2.7256    0.0000 N   0  0  0  0  0  0  0  0  0  0  0  0
   -9.0000   -0.0000    0.0000 N   0  0  0  0  0  0  0  0  0  0  0  0
   -8.2500   -1.2990    0.0000 C   0  0  0  0  0  0  0  0  0  0  0  0
   -6.7500   -1.2990    0.0000 N   0  0  0  0  0  0  0  0  0  0  0  0
  1  2  2  0
  2  3  1  0
  3  4  2  0
  4  5  1  0
  5  6  2  0
  7  4  1  1
  7  8  1  0
  8  9  1  0
  9 10  1  0
 10 11  1  0
 11 12  1  0
 11 13  1  0
 13 14  1  0
 14 15  1  0
 15 16  1  0
 16 17  1  0
 15 18  1  0
 18 19  1  0
 19 20  2  0
 20 21  1  0
 21 22  1  0
 22 23  2  0
 20 24  1  0
 24 25  2  0
 25 26  1  0
  6  1  1  0
 12  7  1  0
 17 11  1  0
 26 18  2  0
 23 19  1  0
M  END
>  <Structure>  (59) 
3ZO4

>  <Dataset>  (59) 
PDB

>  <Chain>  (59) 
A

>  <Spatial_Label>  (59) 
DFGin

>  <Dihedral_Label>  (59) 
BLAminus

>  <C_Helix_Label>  (59) 
Chelix-in

>  <Lig_ID>  (59) 
QWI

>  <Lig_Entity_ID>  (59) 
3ZO4_4

>  <Lig_Name>  (59) 
6-(4-PHENYL-1,9-DIAZASPIRO[5.5]UNDECAN-9-YL)-9H-PURINE

>  <Lig_Formula>  (59) 
C20H24N6

>  <Lig_SMILES>  (59) 
c1ccc(cc1)[C@@H]2CCNC3(C2)CCN(CC3)c4c5c([nH]cn5)ncn4

>  <Lig_MW>  (59) 
348.445

>  <Lig_ChEMBL_ID>  (59) 
nan

>  <Lig_DrugBank_ID>  (59) 
nan

>  <Occurence>  (59) 
1.0

>  <Lig_SMILES_Uncharged>  (59) 
c1ccc([C@@H]2CCNC3(CCN(c4ncnc5[nH]cnc45)CC3)C2)cc1

>  <Lig_Conformer>  (59) 
['NaN']

>  <Lig_Of_Interest>  (59) 
['Y']

>  <Lig_Completeness>  (59) 
[1.0]

>  <Lig_Occupancy>  (59) 
[1.0]

>  <Lig_RSCC>  (59) 
[0.933]

>  <Lig_RSR>  (59) 
[0.086]

>  <Lig_RMSZ_Bonds>  (59) 
[0.96]

>  <Lig_RMSZ_Angles>  (59) 
[1.21]

>  <Lig_Alt_Conf>  (59) 
0.0

>  <Title>  (59) 
The Synthesis and Evaluation of Diazaspirocyclic Protein Kinase Inhibitors

>  <Nonpolymer_Entity_Count>  (59) 
4.0

>  <Protein_Entity_Count>  (59) 
2.0

>  <Exp_Method>  (59) 
X-Ray Diffraction

>  <Cryst_Method>  (59) 
NaN; 25Mm Mes-Bistris pH6.5, 75Mm Licl, 1Mm Dtt, 0.1Mm Edta, 1.5Mm Mega8; 4 Degrees Celsius

>  <Deposit_Date>  (59) 
2013-02-20

>  <Resolution>  (59) 
1.65

>  <DOI>  (59) 
https://doi.org/10.1016/j.bmc.2013.07.021

>  <Source_Organism>  (59) 
Bos taurus

>  <R_Free>  (59) 
0.1949

>  <Keywords>  (59) 
Transferase/Inhibitor

>  <REMARK_280>  (59) 
 Crystal Solvent Content, Vs (%): 54.90 Matthews Coefficient, Vm (Angstroms**3/Da): 2.73 Crystallization Conditions: 25Mm Mes-Bistris pH6.5, 75Mm Licl, 1Mm Dtt, 0.1Mm Edta, 1.5Mm Mega8; 4 Degrees Celsius, Temperature 277K 

>  <REMARK_610>  (59) 
nan

>  <pH>  (59) 
6.5

>  <Cryst_Technique>  (59) 
soaked

>  <Sequence>  (59) 
MGNAAAAKKGSEQESVKEFLAKAKEDFLKKWENPAQNTAHLDQFERIKTLGTGSFGRVMLVKHMETGNHYAMKILDKQKVVKLKQIEHTLNEKRILQAVNFPFLVKLEFSFKDNSNLYMVMEYVPGGEMFSHLRRIGRFSEPHARFYAAQIVLTFEYLHSLDLIYRDLKPENLLIDQQGYIQVTDFGFAKRVKGRTWTLCGTPEYLAPEIILSKGYNKAVDWWALGVLIYEMAAGYPPFFADQPIQIYEKIVSGKVRFPSHFSSDLKDLLRNLLQVDLTKRFGNLKNGVNDIKNHKWFATTDWIAIYQRKVEAPFIPKFKGPGDTSNFDDYEEEEIRVSINEKCGKEFSEF

>  <Sequence_Length>  (59) 
351.0

>  <Mutation_Count>  (59) 
0.0

>  <Gene_Name>  (59) 
nan

>  <MW>  (59) 
40.838

>  <Name>  (59) 
cAMP-Dependent Protein Kinase Catalytic Subunit Alpha

>  <Mutations>  (59) 
nan

>  <EC_Number>  (59) 
2.7.11.11

>  <Peptidic_Inhibitor>  (59) 
True

>  <Lig_Missing_Atoms>  (59) 
['No']

>  <PDBbind_Resolution>  (59) 
1.65

>  <PDBbind_Release_Year>  (59) 
2013.0

>  <PDBbind_Comment>  (59) 
ligand is compound 41

>  <PDBbind_Uniprot_Id>  (59) 
P00517

>  <PDBbind_Protein_Name>  (59) 
CAMP-DEPENDENT PROTEIN KINASE, ALPHA-CATALYTIC

>  <PDBbind_-Logkd/Ki>  (59) 
6.83

>  <PDBbind_Kd/Ki>  (59) 
IC=149nM

>  <PDBbind_Kd_Or_Ki_Or_Ic50>  (59) 
IC50

>  <PDBbind_Relation>  (59) 
=

>  <PDBbind_Value>  (59) 
149.0

>  <PDBbind_Unit>  (59) 
nM

>  <PDBbind_Standard_Value>  (59) 
149.0

>  <PDBbind_Standard_Unit>  (59) 
nM

>  <PDB_Chain>  (59) 
['A']

>  <Num_Ligs>  (59) 
[1.0]

>  <Orthosteric>  (59) 
[1.0]

>  <Allosteric>  (59) 
[0.0]

>  <Pockets_Assigned>  (59) 
['A']

>  <Multisite>  (59) 
[False]

>  <Same_Number>  (59) 
True

>  <Same_Binding_Site>  (59) 
True

>  <Same_Orientation>  (59) 
True

>  <Lig_Order_in_.pdb>  (59) 
Orthosteric

$$$$

     RDKit          2D

 22 24  0  0  0  0  0  0  0  0999 V2000
    1.5000    0.0000    0.0000 C   0  0  0  0  0  0  0  0  0  0  0  0
    0.7500   -1.2990    0.0000 C   0  0  0  0  0  0  0  0  0  0  0  0
   -0.7500   -1.2990    0.0000 C   0  0  0  0  0  0  0  0  0  0  0  0
   -1.5000    0.0000    0.0000 C   0  0  0  0  0  0  0  0  0  0  0  0
   -0.7500    1.2990    0.0000 C   0  0  0  0  0  0  0  0  0  0  0  0
    0.7500    1.2990    0.0000 C   0  0  0  0  0  0  0  0  0  0  0  0
    1.5000    2.5981    0.0000 C   0  0  0  0  0  0  0  0  0  0  0  0
    0.8899    3.9684    0.0000 C   0  0  0  0  0  0  0  0  0  0  0  0
    2.0046    4.9721    0.0000 N   0  0  0  0  0  0  0  0  0  0  0  0
    3.3037    4.2221    0.0000 N   0  0  0  0  0  0  0  0  0  0  0  0
    2.9918    2.7549    0.0000 C   0  0  0  0  0  0  0  0  0  0  0  0
   -1.5000   -2.5981    0.0000 C   0  0  0  0  0  0  0  0  0  0  0  0
   -2.7990   -1.8481    0.0000 C   0  0  0  0  0  0  0  0  0  0  0  0
   -4.0981   -2.5981    0.0000 N   0  0  0  0  0  4  0  0  0  0  0  0
   -2.2500   -3.8971    0.0000 C   0  0  0  0  0  0  0  0  0  0  0  0
   -3.7500   -3.8971    0.0000 C   0  0  0  0  0  0  0  0  0  0  0  0
   -4.5000   -5.1962    0.0000 C   0  0  0  0  0  0  0  0  0  0  0  0
   -3.7500   -6.4952    0.0000 C   0  0  0  0  0  0  0  0  0  0  0  0
   -2.2500   -6.4952    0.0000 C   0  0  0  0  0  0  0  0  0  0  0  0
   -1.5000   -5.1962    0.0000 C   0  0  0  0  0  0  0  0  0  0  0  0
   -4.5000   -7.7942    0.0000 Cl  0  0  0  0  0  0  0  0  0  0  0  0
   -0.2010   -3.3481    0.0000 O   0  0  0  0  0  0  0  0  0  0  0  0
  1  2  2  0
  2  3  1  0
  3  4  2  0
  4  5  1  0
  5  6  2  0
  6  7  1  0
  7  8  2  0
  8  9  1  0
  9 10  1  0
 10 11  2  0
  3 12  1  0
 12 13  1  0
 13 14  1  0
 12 15  1  0
 15 16  2  0
 16 17  1  0
 17 18  2  0
 18 19  1  0
 19 20  2  0
 18 21  1  0
 12 22  1  1
  6  1  1  0
 11  7  1  0
 20 15  1  0
M  CHG  1  14   1
M  END
>  <Structure>  (60) 
4AXA

>  <Dataset>  (60) 
PDB

>  <Chain>  (60) 
A

>  <Spatial_Label>  (60) 
DFGin

>  <Dihedral_Label>  (60) 
ABAminus

>  <C_Helix_Label>  (60) 
Chelix-in

>  <Lig_ID>  (60) 
RKD

>  <Lig_Entity_ID>  (60) 
4AXA_3

>  <Lig_Name>  (60) 
(2S)-2-(4-chlorophenyl)-2-hydroxy-2-[4-(1H-pyrazol-4-yl)phenyl]ethanaminium

>  <Lig_Formula>  (60) 
C17H17ClN3O

>  <Lig_SMILES>  (60) 
c1cc(ccc1c2c[nH]nc2)[C@@](C[NH3+])(c3ccc(cc3)Cl)O

>  <Lig_MW>  (60) 
314.789

>  <Lig_ChEMBL_ID>  (60) 
nan

>  <Lig_DrugBank_ID>  (60) 
nan

>  <Occurence>  (60) 
1.0

>  <Lig_SMILES_Uncharged>  (60) 
NC[C@@](O)(c1ccc(Cl)cc1)c1ccc(-c2cn[nH]c2)cc1

>  <Lig_Conformer>  (60) 
['NaN']

>  <Lig_Of_Interest>  (60) 
['Y']

>  <Lig_Completeness>  (60) 
[1.0]

>  <Lig_Occupancy>  (60) 
[0.87]

>  <Lig_RSCC>  (60) 
[0.947]

>  <Lig_RSR>  (60) 
[0.138]

>  <Lig_RMSZ_Bonds>  (60) 
[0.43]

>  <Lig_RMSZ_Angles>  (60) 
[0.5]

>  <Lig_Alt_Conf>  (60) 
0.0

>  <Title>  (60) 
Structure of PKA-PKB chimera complexed with (1S)-2-amino-1-(4- chlorophenyl)-1-(4-(1H-pyrazol-4-yl)phenyl)ethan-1-ol

>  <Nonpolymer_Entity_Count>  (60) 
1.0

>  <Protein_Entity_Count>  (60) 
2.0

>  <Exp_Method>  (60) 
X-Ray Diffraction

>  <Cryst_Method>  (60) 
NaN; pH 6.5

>  <Deposit_Date>  (60) 
2012-06-12

>  <Resolution>  (60) 
1.9

>  <DOI>  (60) 
https://doi.org/10.1158/1078-0432.CCR-11-3313

>  <Source_Organism>  (60) 
Bos taurus

>  <R_Free>  (60) 
0.25584

>  <Keywords>  (60) 
Transferase/Transferase Inhibitor

>  <REMARK_280>  (60) 
 Crystal Solvent Content, Vs (%): 51.65 Matthews Coefficient, Vm (Angstroms**3/Da): 2.54 Crystallization Conditions: Null 

>  <REMARK_610>  (60) 
nan

>  <pH>  (60) 
nan

>  <Cryst_Technique>  (60) 
soaked

>  <Sequence>  (60) 
MGNAAAAKKGSEQESVKEFLAKAKEDFLKKWENPAQNTAHLDQFERIKTLGTGSFGRVMLVKHMETGNHYAMKILDKQKVVKLKQIEHTLNEKRILQAVNFPFLTKLEFSFKDNSNLYMVMEYAPGGEMFSHLRRIGRFSEPHARFYAAQIVLTFEYLHSLDLIYRDLKPENLMIDQQGYIKVTDFGFAKRVKGRTWTLCGTPEYLAPEIILSKGYNKAVDWWALGVLIYEMAAGYPPFFADQPIQIYEKIVSGKVRFPSHFSSDLKDLLRNLLQVDLTKRFGNLKNGVNDIKNHKWFATTDWIAIYQRKVEAPFIPKFKGPGDTSNFDDYEEEEIRVSINEKCGKEFSEF

>  <Sequence_Length>  (60) 
351.0

>  <Mutation_Count>  (60) 
4.0

>  <Gene_Name>  (60) 
nan

>  <MW>  (60) 
40.831

>  <Name>  (60) 
cAMP-Dependent Protein Kinase Catalytic Subunit Alpha

>  <Mutations>  (60) 
YES

>  <EC_Number>  (60) 
2.7.11.11

>  <Peptidic_Inhibitor>  (60) 
True

>  <Lig_Missing_Atoms>  (60) 
['No']

>  <PDBbind_Resolution>  (60) 
1.9

>  <PDBbind_Release_Year>  (60) 
2012.0

>  <PDBbind_Comment>  (60) 
ligand is AT13148

>  <PDBbind_Uniprot_Id>  (60) 
P00517

>  <PDBbind_Protein_Name>  (60) 
CAMP-DEPENDENT PROTEIN KINASE, ALPHA-CATALYTIC

>  <PDBbind_-Logkd/Ki>  (60) 
8.0

>  <PDBbind_Kd/Ki>  (60) 
IC<10nM

>  <PDBbind_Kd_Or_Ki_Or_Ic50>  (60) 
IC50

>  <PDBbind_Relation>  (60) 
<

>  <PDBbind_Value>  (60) 
10.0

>  <PDBbind_Unit>  (60) 
nM

>  <PDBbind_Standard_Value>  (60) 
10.0

>  <PDBbind_Standard_Unit>  (60) 
nM

>  <PDB_Chain>  (60) 
['A']

>  <Num_Ligs>  (60) 
[1.0]

>  <Orthosteric>  (60) 
[1.0]

>  <Allosteric>  (60) 
[0.0]

>  <Pockets_Assigned>  (60) 
['A']

>  <Multisite>  (60) 
[False]

>  <Same_Number>  (60) 
True

>  <Same_Binding_Site>  (60) 
True

>  <Same_Orientation>  (60) 
True

>  <Lig_Order_in_.pdb>  (60) 
Orthosteric

$$$$

     RDKit          2D

 35 42  0  0  0  0  0  0  0  0999 V2000
    3.4199   -7.0384    0.0000 C   0  0  0  0  0  0  0  0  0  0  0  0
    2.5382   -5.8249    0.0000 C   0  0  0  0  0  0  0  0  0  0  0  0
    4.0414   -5.7874    0.0000 C   0  0  0  0  0  0  0  0  0  0  0  0
    4.8489   -4.5234    0.0000 C   0  0  0  0  0  0  0  0  0  0  0  0
    4.1580   -3.1920    0.0000 C   0  0  0  0  0  0  0  0  0  0  0  0
    2.6595   -3.1247    0.0000 C   0  0  0  0  0  0  0  0  0  0  0  0
    3.2490   -4.5040    0.0000 O   0  0  0  0  0  0  0  0  0  0  0  0
    1.2135   -2.7256    0.0000 N   0  0  0  0  0  0  0  0  0  0  0  0
    0.7500   -1.2990    0.0000 C   0  0  0  0  0  0  0  0  0  0  0  0
    1.5000    0.0000    0.0000 C   0  0  0  0  0  0  0  0  0  0  0  0
    0.7500    1.2990    0.0000 C   0  0  0  0  0  0  0  0  0  0  0  0
   -0.7500    1.2990    0.0000 C   0  0  0  0  0  0  0  0  0  0  0  0
   -1.5000    0.0000    0.0000 C   0  0  0  0  0  0  0  0  0  0  0  0
   -0.7500   -1.2990    0.0000 C   0  0  0  0  0  0  0  0  0  0  0  0
   -1.2135   -2.7256    0.0000 C   0  0  0  0  0  0  0  0  0  0  0  0
   -0.0000   -3.6073    0.0000 C   0  0  0  0  0  0  0  0  0  0  0  0
   -0.0673   -5.1058    0.0000 C   0  0  0  0  0  0  0  0  0  0  0  0
    1.0623   -6.0927    0.0000 N   0  0  0  0  0  0  0  0  0  0  0  0
    0.4728   -7.4720    0.0000 C   0  0  0  0  0  0  0  0  0  0  0  0
    1.1033   -8.8330    0.0000 C   0  0  0  0  0  0  0  0  0  0  0  0
    0.2399  -10.0596    0.0000 C   0  0  0  0  0  0  0  0  0  0  0  0
   -1.2541   -9.9251    0.0000 C   0  0  0  0  0  0  0  0  0  0  0  0
   -1.8846   -8.5641    0.0000 C   0  0  0  0  0  0  0  0  0  0  0  0
   -1.0212   -7.3375    0.0000 C   0  0  0  0  0  0  0  0  0  0  0  0
   -1.3550   -5.8751    0.0000 C   0  0  0  0  0  0  0  0  0  0  0  0
   -2.6122   -4.9151    0.0000 C   0  0  0  0  0  0  0  0  0  0  0  0
   -2.5449   -3.4166    0.0000 C   0  0  0  0  0  0  0  0  0  0  0  0
   -3.9493   -2.8895    0.0000 C   0  0  0  0  0  0  0  0  0  0  0  0
   -4.3483   -1.4436    0.0000 O   0  0  0  0  0  0  0  0  0  0  0  0
   -4.8845   -4.0623    0.0000 N   0  0  0  0  0  0  0  0  0  0  0  0
   -4.0581   -5.3141    0.0000 C   0  0  0  0  0  0  0  0  0  0  0  0
    6.3474   -4.5907    0.0000 N   0  0  0  0  0  0  0  0  0  0  0  0
    7.0384   -5.9220    0.0000 C   0  0  0  0  0  0  0  0  0  0  0  0
    4.7324   -7.1188    0.0000 O   0  0  0  0  0  0  0  0  0  0  0  0
    3.9248   -8.3829    0.0000 C   0  0  0  0  0  0  0  0  0  0  0  0
  2  1  1  6
  2  3  1  0
  3  4  1  0
  4  5  1  0
  6  5  1  1
  6  7  1  0
  6  8  1  0
  8  9  1  0
  9 10  2  0
 10 11  1  0
 11 12  2  0
 12 13  1  0
 13 14  2  0
 14 15  1  0
 15 16  2  0
 16 17  1  0
 17 18  1  0
 18 19  1  0
 19 20  2  0
 20 21  1  0
 21 22  2  0
 22 23  1  0
 23 24  2  0
 24 25  1  0
 25 26  1  0
 26 27  2  0
 27 28  1  0
 28 29  2  0
 28 30  1  0
 30 31  1  0
  4 32  1  1
 32 33  1  0
  3 34  1  1
 34 35  1  0
  7  2  1  0
 18  2  1  0
 16  8  1  0
 14  9  1  0
 27 15  1  0
 25 17  2  0
 24 19  1  0
 31 26  1  0
M  END
>  <Structure>  (61) 
4C34

>  <Dataset>  (61) 
PDB

>  <Chain>  (61) 
A

>  <Spatial_Label>  (61) 
DFGin

>  <Dihedral_Label>  (61) 
ABAminus

>  <C_Helix_Label>  (61) 
Chelix-in

>  <Lig_ID>  (61) 
STU

>  <Lig_Entity_ID>  (61) 
4C34_3

>  <Lig_Name>  (61) 
STAUROSPORINE

>  <Lig_Formula>  (61) 
C28H26N4O3

>  <Lig_SMILES>  (61) 
C[C@@]12[C@@H]([C@@H](C[C@@H](O1)n3c4ccccc4c5c3c6n2c7ccccc7c6c8c5C(=O)NC8)NC)OC

>  <Lig_MW>  (61) 
466.531

>  <Lig_ChEMBL_ID>  (61) 
['CHEMBL388978']

>  <Lig_DrugBank_ID>  (61) 
['DB02010']

>  <Occurence>  (61) 
1.0

>  <Lig_SMILES_Uncharged>  (61) 
CN[C@@H]1C[C@H]2O[C@@](C)([C@@H]1OC)n1c3ccccc3c3c4c(c5c6ccccc6n2c5c31)C(=O)NC4

>  <Lig_Conformer>  (61) 
['NaN']

>  <Lig_Of_Interest>  (61) 
['Y']

>  <Lig_Completeness>  (61) 
[1.0]

>  <Lig_Occupancy>  (61) 
[1.0]

>  <Lig_RSCC>  (61) 
[0.947]

>  <Lig_RSR>  (61) 
[0.086]

>  <Lig_RMSZ_Bonds>  (61) 
[1.51]

>  <Lig_RMSZ_Angles>  (61) 
[1.02]

>  <Lig_Alt_Conf>  (61) 
0.0

>  <Title>  (61) 
PKA-S6K1 Chimera with Staurosporine bound

>  <Nonpolymer_Entity_Count>  (61) 
3.0

>  <Protein_Entity_Count>  (61) 
2.0

>  <Exp_Method>  (61) 
X-Ray Diffraction

>  <Cryst_Method>  (61) 
NaN; 18 Mg/Ml Protein In 25Mm Mes-Bis-Tris pH 6.5, 75Mm Licl, 0.1Mm Edta, 1Mm Mega-8, 1Mm Dtt And 1Mm Pki Peptide Mixed 1:1 With 8-16% Aqueous Methanol

>  <Deposit_Date>  (61) 
2013-08-21

>  <Resolution>  (61) 
1.78

>  <DOI>  (61) 
https://doi.org/10.18632/oncotarget.1255

>  <Source_Organism>  (61) 
Bos taurus

>  <R_Free>  (61) 
0.2145

>  <Keywords>  (61) 
Transferase/Inhibitor

>  <REMARK_280>  (61) 
 Crystal Solvent Content, Vs (%): 49.90 Matthews Coefficient, Vm (Angstroms**3/Da): 2.45 Crystallization Conditions: 18 Mg/Ml Protein In 25Mm Mes-Bis-Tris pH 6.5, 75Mm Licl, 0.1Mm Edta, 1Mm Mega-8, 1Mm Dtt And 1Mm Pki Peptide Mixed 1:1 With 8-16% Aqueous Methanol, pH 6.4 

>  <REMARK_610>  (61) 
  MG8 A 1353 

>  <pH>  (61) 
6.5

>  <Cryst_Technique>  (61) 
co-crystallized

>  <Sequence>  (61) 
MGNAAAAKKGSEQESVKEFLAKAKEDFLKKWENPAQNTAHLDQFERIKTLGTGSYGRVMLVKHMETGNHYAMKILDKQKVVKLKQIEHTLNEKRILQAVNFPFLVKLEFSFKDNSNLYMVLEYLPGGEMFSHLRRIGRFSEPHARFYAAQIVLTFEYLHSLDLIYRDLKPENLMIDQQGYIKVTDFGFAKRVKGRTWTLCGTPEYLAPEIILSKGYNKAVDWWALGVLIYEMAAGYPPFFADQPIQIYEKIVSGKVRFPSHFSSDLKDLLRNLLQVDLTKRFGNLKNGVNDIKNHKWFATTDWIAIYQRKVEAPFIPKFKGPGDTSNFDDYEEEEIRVSINEKCGKEFSEF

>  <Sequence_Length>  (61) 
351.0

>  <Mutation_Count>  (61) 
5.0

>  <Gene_Name>  (61) 
nan

>  <MW>  (61) 
41.029

>  <Name>  (61) 
cAMP-Dependent Protein Kinase Catalytic Subunit Alpha

>  <Mutations>  (61) 
YES

>  <EC_Number>  (61) 
2.7.11.11

>  <Peptidic_Inhibitor>  (61) 
True

>  <Lig_Missing_Atoms>  (61) 
['No']

>  <PDBbind_Resolution>  (61) 
nan

>  <PDBbind_Release_Year>  (61) 
nan

>  <PDBbind_Comment>  (61) 
nan

>  <PDBbind_Uniprot_Id>  (61) 
nan

>  <PDBbind_Protein_Name>  (61) 
nan

>  <PDBbind_-Logkd/Ki>  (61) 
nan

>  <PDBbind_Kd/Ki>  (61) 
nan

>  <PDBbind_Kd_Or_Ki_Or_Ic50>  (61) 
nan

>  <PDBbind_Relation>  (61) 
nan

>  <PDBbind_Value>  (61) 
nan

>  <PDBbind_Unit>  (61) 
nan

>  <PDBbind_Standard_Value>  (61) 
nan

>  <PDBbind_Standard_Unit>  (61) 
nan

>  <PDB_Chain>  (61) 
['A']

>  <Num_Ligs>  (61) 
[1.0]

>  <Orthosteric>  (61) 
[1.0]

>  <Allosteric>  (61) 
[0.0]

>  <Pockets_Assigned>  (61) 
['A']

>  <Multisite>  (61) 
[False]

>  <Same_Number>  (61) 
True

>  <Same_Binding_Site>  (61) 
True

>  <Same_Orientation>  (61) 
True

>  <Lig_Order_in_.pdb>  (61) 
Orthosteric

$$$$

     RDKit          2D

 19 21  0  0  0  0  0  0  0  0999 V2000
    1.5000    0.0000    0.0000 C   0  0  0  0  0  0  0  0  0  0  0  0
    0.7500   -1.2990    0.0000 C   0  0  0  0  0  0  0  0  0  0  0  0
   -0.7500   -1.2990    0.0000 C   0  0  0  0  0  0  0  0  0  0  0  0
   -1.5000    0.0000    0.0000 C   0  0  0  0  0  0  0  0  0  0  0  0
   -0.7500    1.2990    0.0000 C   0  0  0  0  0  0  0  0  0  0  0  0
    0.7500    1.2990    0.0000 C   0  0  0  0  0  0  0  0  0  0  0  0
   -1.7537    2.4138    0.0000 N   0  0  0  0  0  0  0  0  0  0  0  0
   -3.1240    1.8037    0.0000 C   0  0  0  0  0  0  0  0  0  0  0  0
   -2.9672    0.3119    0.0000 N   0  0  0  0  0  0  0  0  0  0  0  0
   -4.4231    2.5537    0.0000 C   0  0  0  0  0  0  0  0  0  0  0  0
   -4.4231    4.0537    0.0000 C   0  0  0  0  0  0  0  0  0  0  0  0
   -5.7221    4.8037    0.0000 C   0  0  0  0  0  0  0  0  0  0  0  0
   -7.0211    4.0537    0.0000 C   0  0  0  0  0  0  0  0  0  0  0  0
   -7.0211    2.5537    0.0000 C   0  0  0  0  0  0  0  0  0  0  0  0
   -5.7221    1.8037    0.0000 C   0  0  0  0  0  0  0  0  0  0  0  0
   -8.3202    4.8037    0.0000 O   0  0  0  0  0  0  0  0  0  0  0  0
   -1.5000   -2.5981    0.0000 C   0  0  0  0  0  0  0  0  0  0  0  0
   -3.0000   -2.5981    0.0000 O   0  0  0  0  0  0  0  0  0  0  0  0
   -0.7500   -3.8971    0.0000 N   0  0  0  0  0  0  0  0  0  0  0  0
  1  2  2  0
  2  3  1  0
  3  4  2  0
  4  5  1  0
  5  6  2  0
  5  7  1  0
  7  8  1  0
  8  9  2  0
  8 10  1  0
 10 11  2  0
 11 12  1  0
 12 13  2  0
 13 14  1  0
 14 15  2  0
 13 16  1  0
  3 17  1  0
 17 18  2  0
 17 19  1  0
  6  1  1  0
  9  4  1  0
 15 10  1  0
M  END
>  <Structure>  (62) 
4C35

>  <Dataset>  (62) 
PDB

>  <Chain>  (62) 
A

>  <Spatial_Label>  (62) 
DFGin

>  <Dihedral_Label>  (62) 
Unassigned

>  <C_Helix_Label>  (62) 
Chelix-in

>  <Lig_ID>  (62) 
NU3

>  <Lig_Entity_ID>  (62) 
4C35_3

>  <Lig_Name>  (62) 
2-(4-hydroxyphenyl)-1H-benzimidazole-4-carboxamide

>  <Lig_Formula>  (62) 
C14H11N3O2

>  <Lig_SMILES>  (62) 
c1cc(c2c(c1)[nH]c(n2)c3ccc(cc3)O)C(=O)N

>  <Lig_MW>  (62) 
253.256

>  <Lig_ChEMBL_ID>  (62) 
['CHEMBL131719']

>  <Lig_DrugBank_ID>  (62) 
nan

>  <Occurence>  (62) 
1.0

>  <Lig_SMILES_Uncharged>  (62) 
NC(=O)c1cccc2[nH]c(-c3ccc(O)cc3)nc12

>  <Lig_Conformer>  (62) 
['NaN']

>  <Lig_Of_Interest>  (62) 
['Y']

>  <Lig_Completeness>  (62) 
[1.0]

>  <Lig_Occupancy>  (62) 
[1.0]

>  <Lig_RSCC>  (62) 
[0.984]

>  <Lig_RSR>  (62) 
[0.096]

>  <Lig_RMSZ_Bonds>  (62) 
[0.85]

>  <Lig_RMSZ_Angles>  (62) 
[0.81]

>  <Lig_Alt_Conf>  (62) 
0.0

>  <Title>  (62) 
PKA-S6K1 Chimera with compound 1 (NU1085) bound

>  <Nonpolymer_Entity_Count>  (62) 
2.0

>  <Protein_Entity_Count>  (62) 
2.0

>  <Exp_Method>  (62) 
X-Ray Diffraction

>  <Cryst_Method>  (62) 
NaN; 18 Mg/Ml Protein In 25Mm Mes-Bis-Tris pH 6.5, 75Mm Licl, 0.1Mm Edta, 1Mm Mega-8, 1Mm Dtt And 1Mm Pki Peptide Mixed 1:1 With 8-16% Aqueous Methanol

>  <Deposit_Date>  (62) 
2013-08-21

>  <Resolution>  (62) 
2.19

>  <DOI>  (62) 
https://doi.org/10.18632/oncotarget.1255

>  <Source_Organism>  (62) 
Bos taurus

>  <R_Free>  (62) 
0.2401

>  <Keywords>  (62) 
Transferase/Inhibitor

>  <REMARK_280>  (62) 
 Crystal Solvent Content, Vs (%): 51.20 Matthews Coefficient, Vm (Angstroms**3/Da): 2.50 Crystallization Conditions: 18 Mg/Ml Protein In 25Mm Mes-Bis-Tris pH 6.5, 75Mm Licl, 0.1Mm Edta, 1Mm Mega-8, 1Mm Dtt And 1Mm Pki Peptide Mixed 1:1 With 8-16% Aqueous Methanol, pH 6.4 

>  <REMARK_610>  (62) 
nan

>  <pH>  (62) 
6.5

>  <Cryst_Technique>  (62) 
soaked

>  <Sequence>  (62) 
MGNAAAAKKGSEQESVKEFLAKAKEDFLKKWENPAQNTAHLDQFERIKTLGTGSYGRVMLVKHMETGNHYAMKILDKQKVVKLKQIEHTLNEKRILQAVNFPFLVKLEFSFKDNSNLYMVLEYLPGGEMFSHLRRIGRFSEPHARFYAAQIVLTFEYLHSLDLIYRDLKPENLMIDQQGYIKVTDFGFAKRVKGRTWTLCGTPEYLAPEIILSKGYNKAVDWWALGVLIYEMAAGYPPFFADQPIQIYEKIVSGKVRFPSHFSSDLKDLLRNLLQVDLTKRFGNLKNGVNDIKNHKWFATTDWIAIYQRKVEAPFIPKFKGPGDTSNFDDYEEEEIRVSINEKCGKEFSEF

>  <Sequence_Length>  (62) 
351.0

>  <Mutation_Count>  (62) 
5.0

>  <Gene_Name>  (62) 
nan

>  <MW>  (62) 
41.029

>  <Name>  (62) 
cAMP-Dependent Protein Kinase Catalytic Subunit Alpha

>  <Mutations>  (62) 
YES

>  <EC_Number>  (62) 
2.7.11.11

>  <Peptidic_Inhibitor>  (62) 
True

>  <Lig_Missing_Atoms>  (62) 
['No']

>  <PDBbind_Resolution>  (62) 
2.19

>  <PDBbind_Release_Year>  (62) 
2013.0

>  <PDBbind_Comment>  (62) 
IC50 = 0.56 +/- 0.05 uM (AlphaScreen kinase assay)

>  <PDBbind_Uniprot_Id>  (62) 
P00517

>  <PDBbind_Protein_Name>  (62) 
CAMP-DEPENDENT PROTEIN KINASE, ALPHA-CATALYTIC

>  <PDBbind_-Logkd/Ki>  (62) 
6.25

>  <PDBbind_Kd/Ki>  (62) 
IC=0.56uM

>  <PDBbind_Kd_Or_Ki_Or_Ic50>  (62) 
IC50

>  <PDBbind_Relation>  (62) 
=

>  <PDBbind_Value>  (62) 
0.56

>  <PDBbind_Unit>  (62) 
uM

>  <PDBbind_Standard_Value>  (62) 
560.0

>  <PDBbind_Standard_Unit>  (62) 
nM

>  <PDB_Chain>  (62) 
['A']

>  <Num_Ligs>  (62) 
[1.0]

>  <Orthosteric>  (62) 
[1.0]

>  <Allosteric>  (62) 
[0.0]

>  <Pockets_Assigned>  (62) 
['A+B']

>  <Multisite>  (62) 
[False]

>  <Same_Number>  (62) 
True

>  <Same_Binding_Site>  (62) 
True

>  <Same_Orientation>  (62) 
True

>  <Lig_Order_in_.pdb>  (62) 
Orthosteric

$$$$

     RDKit          2D

 19 22  0  0  0  0  0  0  0  0999 V2000
    1.5000    0.0000    0.0000 C   0  0  0  0  0  0  0  0  0  0  0  0
    0.7500   -1.2990    0.0000 C   0  0  0  0  0  0  0  0  0  0  0  0
   -0.7500   -1.2990    0.0000 C   0  0  0  0  0  0  0  0  0  0  0  0
   -1.5000    0.0000    0.0000 C   0  0  0  0  0  0  0  0  0  0  0  0
   -0.7500    1.2990    0.0000 C   0  0  0  0  0  0  0  0  0  0  0  0
    0.7500    1.2990    0.0000 C   0  0  0  0  0  0  0  0  0  0  0  0
   -1.7537    2.4138    0.0000 N   0  0  0  0  0  0  0  0  0  0  0  0
   -3.1240    1.8037    0.0000 C   0  0  0  0  0  0  0  0  0  0  0  0
   -2.9672    0.3119    0.0000 N   0  0  0  0  0  0  0  0  0  0  0  0
   -4.0819   -0.6918    0.0000 C   0  0  0  0  0  0  0  0  0  0  0  0
   -3.7701   -2.1590    0.0000 C   0  0  0  0  0  0  0  0  0  0  0  0
   -2.7664   -3.2738    0.0000 C   0  0  0  0  0  0  0  0  0  0  0  0
   -4.2336   -3.5856    0.0000 C   0  0  0  0  0  0  0  0  0  0  0  0
   -4.4231    2.5537    0.0000 C   0  0  0  0  0  0  0  0  0  0  0  0
   -5.7934    1.9435    0.0000 C   0  0  0  0  0  0  0  0  0  0  0  0
   -6.7971    3.0583    0.0000 N   0  0  0  0  0  0  0  0  0  0  0  0
   -6.0471    4.3573    0.0000 O   0  0  0  0  0  0  0  0  0  0  0  0
   -4.5798    4.0454    0.0000 N   0  0  0  0  0  0  0  0  0  0  0  0
   -6.1052    0.4763    0.0000 N   0  0  0  0  0  0  0  0  0  0  0  0
  1  2  2  0
  2  3  1  0
  3  4  2  0
  4  5  1  0
  5  6  2  0
  5  7  1  0
  7  8  2  0
  8  9  1  0
  9 10  1  0
 10 11  1  0
 11 12  1  0
 12 13  1  0
  8 14  1  0
 14 15  1  0
 15 16  2  0
 16 17  1  0
 17 18  1  0
 15 19  1  0
  6  1  1  0
  9  4  1  0
 13 11  1  0
 18 14  2  0
M  END
>  <Structure>  (63) 
4C36

>  <Dataset>  (63) 
PDB

>  <Chain>  (63) 
A

>  <Spatial_Label>  (63) 
DFGin

>  <Dihedral_Label>  (63) 
BLAminus

>  <C_Helix_Label>  (63) 
Chelix-in

>  <Lig_ID>  (63) 
ZO9

>  <Lig_Entity_ID>  (63) 
4C36_3

>  <Lig_Name>  (63) 
4-[1-(cyclopropylmethyl)-1H-benzimidazol-2-yl]-1,2,5-oxadiazol-3-amine

>  <Lig_Formula>  (63) 
C13H13N5O

>  <Lig_SMILES>  (63) 
c1ccc2c(c1)nc(n2CC3CC3)c4c(non4)N

>  <Lig_MW>  (63) 
255.275

>  <Lig_ChEMBL_ID>  (63) 
['CHEMBL1078930']

>  <Lig_DrugBank_ID>  (63) 
nan

>  <Occurence>  (63) 
1.0

>  <Lig_SMILES_Uncharged>  (63) 
Nc1nonc1-c1nc2ccccc2n1CC1CC1

>  <Lig_Conformer>  (63) 
['NaN']

>  <Lig_Of_Interest>  (63) 
['Y']

>  <Lig_Completeness>  (63) 
[1.0]

>  <Lig_Occupancy>  (63) 
[1.0]

>  <Lig_RSCC>  (63) 
[0.957]

>  <Lig_RSR>  (63) 
[0.096]

>  <Lig_RMSZ_Bonds>  (63) 
[0.62]

>  <Lig_RMSZ_Angles>  (63) 
[0.72]

>  <Lig_Alt_Conf>  (63) 
0.0

>  <Title>  (63) 
PKA-S6K1 Chimera with compound 15e (CCT147581) bound

>  <Nonpolymer_Entity_Count>  (63) 
2.0

>  <Protein_Entity_Count>  (63) 
2.0

>  <Exp_Method>  (63) 
X-Ray Diffraction

>  <Cryst_Method>  (63) 
NaN; 18 Mg/Ml Protein In 25Mm Mes-Bis-Tris pH 6.5, 75Mm Licl, 0.1Mm Edta, 1Mm Mega-8, 1Mm Dtt And 1Mm Pki Peptide Mixed 1:1 With 8-16% Aqueous Methanol

>  <Deposit_Date>  (63) 
2013-08-21

>  <Resolution>  (63) 
1.98

>  <DOI>  (63) 
https://doi.org/10.18632/oncotarget.1255

>  <Source_Organism>  (63) 
Bos taurus

>  <R_Free>  (63) 
0.1901

>  <Keywords>  (63) 
Transferase/Inhibitor

>  <REMARK_280>  (63) 
 Crystal Solvent Content, Vs (%): 52.25 Matthews Coefficient, Vm (Angstroms**3/Da): 2.58 Crystallization Conditions: 18 Mg/Ml Protein In 25Mm Mes-Bis-Tris pH 6.5, 75Mm Licl, 0.1Mm Edta, 1Mm Mega-8, 1Mm Dtt And 1Mm Pki Peptide Mixed 1:1 With 8-16% Aqueous Methanol, pH 6.4 

>  <REMARK_610>  (63) 
nan

>  <pH>  (63) 
6.5

>  <Cryst_Technique>  (63) 
soaked

>  <Sequence>  (63) 
MGNAAAAKKGSEQESVKEFLAKAKEDFLKKWENPAQNTAHLDQFERIKTLGTGSYGRVMLVKHMETGNHYAMKILDKQKVVKLKQIEHTLNEKRILQAVNFPFLVKLEFSFKDNSNLYMVLEYLPGGEMFSHLRRIGRFSEPHARFYAAQIVLTFEYLHSLDLIYRDLKPENLMIDQQGYIKVTDFGFAKRVKGRTWTLCGTPEYLAPEIILSKGYNKAVDWWALGVLIYEMAAGYPPFFADQPIQIYEKIVSGKVRFPSHFSSDLKDLLRNLLQVDLTKRFGNLKNGVNDIKNHKWFATTDWIAIYQRKVEAPFIPKFKGPGDTSNFDDYEEEEIRVSINEKCGKEFSEF

>  <Sequence_Length>  (63) 
351.0

>  <Mutation_Count>  (63) 
5.0

>  <Gene_Name>  (63) 
nan

>  <MW>  (63) 
41.029

>  <Name>  (63) 
cAMP-Dependent Protein Kinase Catalytic Subunit Alpha

>  <Mutations>  (63) 
YES

>  <EC_Number>  (63) 
2.7.11.11

>  <Peptidic_Inhibitor>  (63) 
True

>  <Lig_Missing_Atoms>  (63) 
['No']

>  <PDBbind_Resolution>  (63) 
1.98

>  <PDBbind_Release_Year>  (63) 
2013.0

>  <PDBbind_Comment>  (63) 
IC50 (AlphaScreen kinase assay)

>  <PDBbind_Uniprot_Id>  (63) 
P00517

>  <PDBbind_Protein_Name>  (63) 
CAMP-DEPENDENT PROTEIN KINASE, ALPHA-CATALYTIC

>  <PDBbind_-Logkd/Ki>  (63) 
7.7

>  <PDBbind_Kd/Ki>  (63) 
IC=19.8nM

>  <PDBbind_Kd_Or_Ki_Or_Ic50>  (63) 
IC50

>  <PDBbind_Relation>  (63) 
=

>  <PDBbind_Value>  (63) 
19.8

>  <PDBbind_Unit>  (63) 
nM

>  <PDBbind_Standard_Value>  (63) 
19.8

>  <PDBbind_Standard_Unit>  (63) 
nM

>  <PDB_Chain>  (63) 
['A']

>  <Num_Ligs>  (63) 
[1.0]

>  <Orthosteric>  (63) 
[1.0]

>  <Allosteric>  (63) 
[0.0]

>  <Pockets_Assigned>  (63) 
['A']

>  <Multisite>  (63) 
[False]

>  <Same_Number>  (63) 
True

>  <Same_Binding_Site>  (63) 
True

>  <Same_Orientation>  (63) 
True

>  <Lig_Order_in_.pdb>  (63) 
Orthosteric

$$$$

     RDKit          2D

 18 20  0  0  0  0  0  0  0  0999 V2000
    3.7548   -2.1855    0.0000 C   0  0  0  0  0  0  0  0  0  0  0  0
    2.6401   -3.1891    0.0000 C   0  0  0  0  0  0  0  0  0  0  0  0
    1.2135   -2.7256    0.0000 N   0  0  0  0  0  0  0  0  0  0  0  0
    0.7500   -1.2990    0.0000 C   0  0  0  0  0  0  0  0  0  0  0  0
    1.5000    0.0000    0.0000 C   0  0  0  0  0  0  0  0  0  0  0  0
    0.7500    1.2990    0.0000 C   0  0  0  0  0  0  0  0  0  0  0  0
   -0.7500    1.2990    0.0000 N   0  0  0  0  0  0  0  0  0  0  0  0
   -1.5000    0.0000    0.0000 C   0  0  0  0  0  0  0  0  0  0  0  0
   -0.7500   -1.2990    0.0000 C   0  0  0  0  0  0  0  0  0  0  0  0
   -1.2135   -2.7256    0.0000 N   0  0  0  0  0  0  0  0  0  0  0  0
   -0.0000   -3.6073    0.0000 C   0  0  0  0  0  0  0  0  0  0  0  0
   -0.0000   -5.1073    0.0000 C   0  0  0  0  0  0  0  0  0  0  0  0
    1.2135   -5.9890    0.0000 C   0  0  0  0  0  0  0  0  0  0  0  0
    0.7500   -7.4156    0.0000 N   0  0  0  0  0  0  0  0  0  0  0  0
   -0.7500   -7.4156    0.0000 O   0  0  0  0  0  0  0  0  0  0  0  0
   -1.2135   -5.9890    0.0000 N   0  0  0  0  0  0  0  0  0  0  0  0
    2.6401   -5.5255    0.0000 N   0  0  0  0  0  0  0  0  0  0  0  0
    1.5000    2.5981    0.0000 Br  0  0  0  0  0  0  0  0  0  0  0  0
  1  2  1  0
  2  3  1  0
  3  4  1  0
  4  5  2  0
  5  6  1  0
  6  7  2  0
  7  8  1  0
  8  9  2  0
  9 10  1  0
 10 11  2  0
 11 12  1  0
 12 13  1  0
 13 14  2  0
 14 15  1  0
 15 16  1  0
 13 17  1  0
  6 18  1  0
 11  3  1  0
  9  4  1  0
 16 12  2  0
M  END
>  <Structure>  (64) 
4C37

>  <Dataset>  (64) 
PDB

>  <Chain>  (64) 
A

>  <Spatial_Label>  (64) 
DFGin

>  <Dihedral_Label>  (64) 
ABAminus

>  <C_Helix_Label>  (64) 
Chelix-in

>  <Lig_ID>  (64) 
Z21

>  <Lig_Entity_ID>  (64) 
4C37_3

>  <Lig_Name>  (64) 
4-(6-bromo-1-ethyl-1H-imidazo[4,5-c]pyridin-2-yl)-1,2,5-oxadiazol-3-amine

>  <Lig_Formula>  (64) 
C10H9BrN6O

>  <Lig_SMILES>  (64) 
CCn1c2cc(ncc2nc1c3c(non3)N)Br

>  <Lig_MW>  (64) 
309.122

>  <Lig_ChEMBL_ID>  (64) 
nan

>  <Lig_DrugBank_ID>  (64) 
nan

>  <Occurence>  (64) 
1.0

>  <Lig_SMILES_Uncharged>  (64) 
CCn1c(-c2nonc2N)nc2cnc(Br)cc21

>  <Lig_Conformer>  (64) 
['NaN']

>  <Lig_Of_Interest>  (64) 
['Y']

>  <Lig_Completeness>  (64) 
[1.0]

>  <Lig_Occupancy>  (64) 
[0.9]

>  <Lig_RSCC>  (64) 
[0.991]

>  <Lig_RSR>  (64) 
[0.08]

>  <Lig_RMSZ_Bonds>  (64) 
[0.75]

>  <Lig_RMSZ_Angles>  (64) 
[3.2]

>  <Lig_Alt_Conf>  (64) 
0.0

>  <Title>  (64) 
PKA-S6K1 Chimera with compound 21a (CCT196539) bound

>  <Nonpolymer_Entity_Count>  (64) 
2.0

>  <Protein_Entity_Count>  (64) 
2.0

>  <Exp_Method>  (64) 
X-Ray Diffraction

>  <Cryst_Method>  (64) 
NaN; 18 Mg/Ml Protein In 25Mm Mes-Bis-Tris pH 6.5, 75Mm Licl, 0.1Mm Edta, 1Mm Mega-8, 1Mm Dtt And 1Mm Pki Peptide Mixed 1:1 With 8-16% Aqueous Methanol

>  <Deposit_Date>  (64) 
2013-08-21

>  <Resolution>  (64) 
1.7

>  <DOI>  (64) 
https://doi.org/10.18632/oncotarget.1255

>  <Source_Organism>  (64) 
Bos taurus

>  <R_Free>  (64) 
0.1792

>  <Keywords>  (64) 
Transferase/Inhibitor

>  <REMARK_280>  (64) 
 Crystal Solvent Content, Vs (%): 52.80 Matthews Coefficient, Vm (Angstroms**3/Da): 2.60 Crystallization Conditions: 18 Mg/Ml Protein In 25Mm Mes-Bis-Tris pH 6.5, 75Mm Licl, 0.1Mm Edta, 1Mm Mega-8, 1Mm Dtt And 1Mm Pki Peptide Mixed 1:1 With 8-16% Aqueous Methanol, pH 6.4 

>  <REMARK_610>  (64) 
nan

>  <pH>  (64) 
6.5

>  <Cryst_Technique>  (64) 
soaked

>  <Sequence>  (64) 
MGNAAAAKKGSEQESVKEFLAKAKEDFLKKWENPAQNTAHLDQFERIKTLGTGSYGRVMLVKHMETGNHYAMKILDKQKVVKLKQIEHTLNEKRILQAVNFPFLVKLEFSFKDNSNLYMVLEYLPGGEMFSHLRRIGRFSEPHARFYAAQIVLTFEYLHSLDLIYRDLKPENLMIDQQGYIKVTDFGFAKRVKGRTWTLCGTPEYLAPEIILSKGYNKAVDWWALGVLIYEMAAGYPPFFADQPIQIYEKIVSGKVRFPSHFSSDLKDLLRNLLQVDLTKRFGNLKNGVNDIKNHKWFATTDWIAIYQRKVEAPFIPKFKGPGDTSNFDDYEEEEIRVSINEKCGKEFSEF

>  <Sequence_Length>  (64) 
351.0

>  <Mutation_Count>  (64) 
5.0

>  <Gene_Name>  (64) 
nan

>  <MW>  (64) 
40.949

>  <Name>  (64) 
cAMP-Dependent Protein Kinase Catalytic Subunit Alpha

>  <Mutations>  (64) 
YES

>  <EC_Number>  (64) 
2.7.11.11

>  <Peptidic_Inhibitor>  (64) 
True

>  <Lig_Missing_Atoms>  (64) 
['No']

>  <PDBbind_Resolution>  (64) 
1.7

>  <PDBbind_Release_Year>  (64) 
2013.0

>  <PDBbind_Comment>  (64) 
IC50 = 19.7 +/- 2.6 nM (AlphaScreen kinase assay)

>  <PDBbind_Uniprot_Id>  (64) 
P00517

>  <PDBbind_Protein_Name>  (64) 
CAMP-DEPENDENT PROTEIN KINASE, ALPHA-CATALYTIC

>  <PDBbind_-Logkd/Ki>  (64) 
7.71

>  <PDBbind_Kd/Ki>  (64) 
IC=19.7nM

>  <PDBbind_Kd_Or_Ki_Or_Ic50>  (64) 
IC50

>  <PDBbind_Relation>  (64) 
=

>  <PDBbind_Value>  (64) 
19.7

>  <PDBbind_Unit>  (64) 
nM

>  <PDBbind_Standard_Value>  (64) 
19.7

>  <PDBbind_Standard_Unit>  (64) 
nM

>  <PDB_Chain>  (64) 
['A']

>  <Num_Ligs>  (64) 
[1.0]

>  <Orthosteric>  (64) 
[1.0]

>  <Allosteric>  (64) 
[0.0]

>  <Pockets_Assigned>  (64) 
['A']

>  <Multisite>  (64) 
[False]

>  <Same_Number>  (64) 
True

>  <Same_Binding_Site>  (64) 
True

>  <Same_Orientation>  (64) 
True

>  <Lig_Order_in_.pdb>  (64) 
Orthosteric

$$$$

     RDKit          2D

 18 20  0  0  0  0  0  0  0  0999 V2000
    3.7548   -2.1855    0.0000 C   0  0  0  0  0  0  0  0  0  0  0  0
    2.6401   -3.1891    0.0000 C   0  0  0  0  0  0  0  0  0  0  0  0
    1.2135   -2.7256    0.0000 N   0  0  0  0  0  0  0  0  0  0  0  0
    0.7500   -1.2990    0.0000 C   0  0  0  0  0  0  0  0  0  0  0  0
    1.5000    0.0000    0.0000 C   0  0  0  0  0  0  0  0  0  0  0  0
    0.7500    1.2990    0.0000 C   0  0  0  0  0  0  0  0  0  0  0  0
   -0.7500    1.2990    0.0000 N   0  0  0  0  0  0  0  0  0  0  0  0
   -1.5000    0.0000    0.0000 C   0  0  0  0  0  0  0  0  0  0  0  0
   -0.7500   -1.2990    0.0000 C   0  0  0  0  0  0  0  0  0  0  0  0
   -1.2135   -2.7256    0.0000 N   0  0  0  0  0  0  0  0  0  0  0  0
   -0.0000   -3.6073    0.0000 C   0  0  0  0  0  0  0  0  0  0  0  0
   -0.0000   -5.1073    0.0000 C   0  0  0  0  0  0  0  0  0  0  0  0
    1.2135   -5.9890    0.0000 C   0  0  0  0  0  0  0  0  0  0  0  0
    0.7500   -7.4156    0.0000 N   0  0  0  0  0  0  0  0  0  0  0  0
   -0.7500   -7.4156    0.0000 O   0  0  0  0  0  0  0  0  0  0  0  0
   -1.2135   -5.9890    0.0000 N   0  0  0  0  0  0  0  0  0  0  0  0
    2.6401   -5.5255    0.0000 N   0  0  0  0  0  0  0  0  0  0  0  0
    1.5000    2.5981    0.0000 C   0  0  0  0  0  0  0  0  0  0  0  0
  1  2  1  0
  2  3  1  0
  3  4  1  0
  4  5  2  0
  5  6  1  0
  6  7  2  0
  7  8  1  0
  8  9  2  0
  9 10  1  0
 10 11  2  0
 11 12  1  0
 12 13  1  0
 13 14  2  0
 14 15  1  0
 15 16  1  0
 13 17  1  0
  6 18  1  0
 11  3  1  0
  9  4  1  0
 16 12  2  0
M  END
>  <Structure>  (65) 
4C38

>  <Dataset>  (65) 
PDB

>  <Chain>  (65) 
A

>  <Spatial_Label>  (65) 
DFGin

>  <Dihedral_Label>  (65) 
BLAminus

>  <C_Helix_Label>  (65) 
Chelix-in

>  <Lig_ID>  (65) 
VUP

>  <Lig_Entity_ID>  (65) 
4C38_3

>  <Lig_Name>  (65) 
4-(1-ethyl-6-methyl-imidazo[4,5-c]pyridin-2-yl)-1,2,5-oxadiazol-3-amine

>  <Lig_Formula>  (65) 
C11H12N6O

>  <Lig_SMILES>  (65) 
CCn1c2cc(ncc2nc1c3c(non3)N)C

>  <Lig_MW>  (65) 
244.253

>  <Lig_ChEMBL_ID>  (65) 
nan

>  <Lig_DrugBank_ID>  (65) 
nan

>  <Occurence>  (65) 
1.0

>  <Lig_SMILES_Uncharged>  (65) 
CCn1c(-c2nonc2N)nc2cnc(C)cc21

>  <Lig_Conformer>  (65) 
['NaN']

>  <Lig_Of_Interest>  (65) 
['Y']

>  <Lig_Completeness>  (65) 
[1.0]

>  <Lig_Occupancy>  (65) 
[1.0]

>  <Lig_RSCC>  (65) 
[0.971]

>  <Lig_RSR>  (65) 
[0.06]

>  <Lig_RMSZ_Bonds>  (65) 
[0.99]

>  <Lig_RMSZ_Angles>  (65) 
[2.9]

>  <Lig_Alt_Conf>  (65) 
0.0

>  <Title>  (65) 
PKA-S6K1 Chimera with compound 21e (CCT239066) bound

>  <Nonpolymer_Entity_Count>  (65) 
4.0

>  <Protein_Entity_Count>  (65) 
2.0

>  <Exp_Method>  (65) 
X-Ray Diffraction

>  <Cryst_Method>  (65) 
NaN; 18 Mg/Ml Protein In 25Mm Mes-Bis-Tris pH 6.5, 75Mm Licl, 0.1Mm Edta, 1Mm Mega-8, 1Mm Dtt And 1Mm Pki Peptide Mixed 1:1 With 8-16% Aqueous Methanol

>  <Deposit_Date>  (65) 
2013-08-21

>  <Resolution>  (65) 
1.58

>  <DOI>  (65) 
https://doi.org/10.18632/oncotarget.1255

>  <Source_Organism>  (65) 
Bos taurus

>  <R_Free>  (65) 
0.1778

>  <Keywords>  (65) 
Transferase/Inhibitor

>  <REMARK_280>  (65) 
 Crystal Solvent Content, Vs (%): 55.10 Matthews Coefficient, Vm (Angstroms**3/Da): 2.70 Crystallization Conditions: 18 Mg/Ml Protein In 25Mm Mes-Bis-Tris pH 6.5, 75Mm Licl, 0.1Mm Edta, 1Mm Mega-8, 1Mm Dtt And 1Mm Pki Peptide Mixed 1:1 With 8-16% Aqueous Methanol, pH 6.4 

>  <REMARK_610>  (65) 
nan

>  <pH>  (65) 
6.5

>  <Cryst_Technique>  (65) 
soaked

>  <Sequence>  (65) 
MGNAAAAKKGSEQESVKEFLAKAKEDFLKKWENPAQNTAHLDQFERIKTLGTGSYGRVMLVKHMETGNHYAMKILDKQKVVKLKQIEHTLNEKRILQAVNFPFLVKLEFSFKDNSNLYMVLEYLPGGEMFSHLRRIGRFSEPHARFYAAQIVLTFEYLHSLDLIYRDLKPENLMIDQQGYIKVTDFGFAKRVKGRTWTLCGTPEYLAPEIILSKGYNKAVDWWALGVLIYEMAAGYPPFFADQPIQIYEKIVSGKVRFPSHFSSDLKDLLRNLLQVDLTKRFGNLKNGVNDIKNHKWFATTDWIAIYQRKVEAPFIPKFKGPGDTSNFDDYEEEEIRVSINEKCGKEFSEF

>  <Sequence_Length>  (65) 
351.0

>  <Mutation_Count>  (65) 
5.0

>  <Gene_Name>  (65) 
nan

>  <MW>  (65) 
40.949

>  <Name>  (65) 
cAMP-Dependent Protein Kinase Catalytic Subunit Alpha

>  <Mutations>  (65) 
YES

>  <EC_Number>  (65) 
2.7.11.11

>  <Peptidic_Inhibitor>  (65) 
True

>  <Lig_Missing_Atoms>  (65) 
['No']

>  <PDBbind_Resolution>  (65) 
1.58

>  <PDBbind_Release_Year>  (65) 
2013.0

>  <PDBbind_Comment>  (65) 
IC50 = 17.4 +/- 6.0 nM (AlphaScreen kinase assay)

>  <PDBbind_Uniprot_Id>  (65) 
P00517

>  <PDBbind_Protein_Name>  (65) 
CAMP-DEPENDENT PROTEIN KINASE, ALPHA-CATALYTIC

>  <PDBbind_-Logkd/Ki>  (65) 
7.76

>  <PDBbind_Kd/Ki>  (65) 
IC=17.4nM

>  <PDBbind_Kd_Or_Ki_Or_Ic50>  (65) 
IC50

>  <PDBbind_Relation>  (65) 
=

>  <PDBbind_Value>  (65) 
17.4

>  <PDBbind_Unit>  (65) 
nM

>  <PDBbind_Standard_Value>  (65) 
17.4

>  <PDBbind_Standard_Unit>  (65) 
nM

>  <PDB_Chain>  (65) 
['A']

>  <Num_Ligs>  (65) 
[1.0]

>  <Orthosteric>  (65) 
[1.0]

>  <Allosteric>  (65) 
[0.0]

>  <Pockets_Assigned>  (65) 
['A']

>  <Multisite>  (65) 
[False]

>  <Same_Number>  (65) 
True

>  <Same_Binding_Site>  (65) 
True

>  <Same_Orientation>  (65) 
True

>  <Lig_Order_in_.pdb>  (65) 
Orthosteric

$$$$

     RDKit          2D

 31 33  0  0  0  0  0  0  0  0999 V2000
    1.5000    0.0000    0.0000 C   0  0  0  0  0  0  0  0  0  0  0  0
    0.7500   -1.2990    0.0000 N   0  0  0  0  0  0  0  0  0  0  0  0
   -0.7500   -1.2990    0.0000 C   0  0  0  0  0  0  0  0  0  0  0  0
   -1.5000    0.0000    0.0000 C   0  0  0  0  0  0  0  0  0  0  0  0
   -0.7500    1.2990    0.0000 C   0  0  0  0  0  0  0  0  0  0  0  0
    0.7500    1.2990    0.0000 N   0  0  0  0  0  0  0  0  0  0  0  0
   -1.7537    2.4138    0.0000 N   0  0  0  0  0  0  0  0  0  0  0  0
   -3.1240    1.8037    0.0000 C   0  0  0  0  0  0  0  0  0  0  0  0
   -2.9672    0.3119    0.0000 N   0  0  0  0  0  0  0  0  0  0  0  0
   -1.4418    3.8810    0.0000 C   0  0  0  0  0  0  0  0  0  0  0  0
   -2.4455    4.9957    0.0000 C   0  0  0  0  0  0  0  0  0  0  0  0
   -1.6955    6.2947    0.0000 C   0  0  0  0  0  0  0  0  0  0  0  0
   -0.2283    5.9829    0.0000 C   0  0  0  0  0  0  0  0  0  0  0  0
   -0.0715    4.4911    0.0000 O   0  0  0  0  0  0  0  0  0  0  0  0
    0.8864    6.9866    0.0000 C   0  0  0  0  0  0  0  0  0  0  0  0
    2.3130    6.5230    0.0000 O   0  0  0  0  0  0  0  0  0  0  0  0
    3.4277    7.5267    0.0000 P   0  0  0  0  0  5  0  0  0  0  0  0
    2.4240    8.6414    0.0000 O   0  0  0  0  0  0  0  0  0  0  0  0
    4.4314    6.4120    0.0000 O   0  0  0  0  0  0  0  0  0  0  0  0
    4.5424    8.5304    0.0000 O   0  0  0  0  0  0  0  0  0  0  0  0
    4.2306    9.9976    0.0000 P   0  0  0  0  0  5  0  0  0  0  0  0
    2.7633    9.6858    0.0000 O   0  0  0  0  0  0  0  0  0  0  0  0
    5.6978   10.3095    0.0000 N   0  0  0  0  0  0  0  0  0  0  0  0
    6.1613   11.7361    0.0000 P   0  0  0  0  0  0  0  0  0  0  0  0
    6.6248   13.1627    0.0000 O   0  0  0  0  0  0  0  0  0  0  0  0
    7.5879   11.2726    0.0000 O   0  0  0  0  0  0  0  0  0  0  0  0
    4.7347   12.1996    0.0000 O   0  0  0  0  0  0  0  0  0  0  0  0
    3.9187   11.4649    0.0000 O   0  0  0  0  0  0  0  0  0  0  0  0
   -2.3056    7.6651    0.0000 O   0  0  0  0  0  0  0  0  0  0  0  0
   -3.9373    4.8389    0.0000 O   0  0  0  0  0  0  0  0  0  0  0  0
   -1.5000   -2.5981    0.0000 N   0  0  0  0  0  0  0  0  0  0  0  0
  1  2  2  0
  2  3  1  0
  3  4  2  0
  4  5  1  0
  5  6  2  0
  5  7  1  0
  7  8  1  0
  8  9  2  0
 10  7  1  1
 10 11  1  0
 11 12  1  0
 12 13  1  0
 13 14  1  0
 13 15  1  1
 15 16  1  0
 16 17  1  0
 17 18  2  0
 17 19  1  6
 17 20  1  0
 20 21  1  0
 21 22  2  0
 21 23  1  0
 23 24  1  0
 24 25  2  0
 24 26  1  0
 24 27  1  0
 21 28  1  6
 12 29  1  6
 11 30  1  6
  3 31  1  0
  6  1  1  0
  9  4  1  0
 14 10  1  0
M  END
>  <Structure>  (66) 
4DFX

>  <Dataset>  (66) 
PDB

>  <Chain>  (66) 
E

>  <Spatial_Label>  (66) 
DFGin

>  <Dihedral_Label>  (66) 
BLAminus

>  <C_Helix_Label>  (66) 
Chelix-in

>  <Lig_ID>  (66) 
ANP

>  <Lig_Entity_ID>  (66) 
4DFX_4

>  <Lig_Name>  (66) 
PHOSPHOAMINOPHOSPHONIC ACID-ADENYLATE ESTER

>  <Lig_Formula>  (66) 
C10H17N6O12P3

>  <Lig_SMILES>  (66) 
c1nc(c2c(n1)n(cn2)[C@H]3[C@@H]([C@@H]([C@H](O3)CO[P@](=O)(O)O[P@@](=O)(NP(=O)(O)O)O)O)O)N

>  <Lig_MW>  (66) 
506.196

>  <Lig_ChEMBL_ID>  (66) 
['CHEMBL1230989']

>  <Lig_DrugBank_ID>  (66) 
nan

>  <Occurence>  (66) 
13.0

>  <Lig_SMILES_Uncharged>  (66) 
Nc1ncnc2c1ncn2[C@@H]1O[C@H](CO[P@](=O)(O)O[P@](=O)(O)NP(=O)(O)O)[C@@H](O)[C@H]1O

>  <Lig_Conformer>  (66) 
['NaN']

>  <Lig_Of_Interest>  (66) 
['Y']

>  <Lig_Completeness>  (66) 
[1.0]

>  <Lig_Occupancy>  (66) 
[1.0]

>  <Lig_RSCC>  (66) 
[0.986]

>  <Lig_RSR>  (66) 
[0.046]

>  <Lig_RMSZ_Bonds>  (66) 
[1.35]

>  <Lig_RMSZ_Angles>  (66) 
[1.35]

>  <Lig_Alt_Conf>  (66) 
0.0

>  <Title>  (66) 
Crystal structure of myristoylated K7C catalytic subunit of cAMP-dependent protein kinase in complex with SP20 and AMP-PNP

>  <Nonpolymer_Entity_Count>  (66) 
7.0

>  <Protein_Entity_Count>  (66) 
2.0

>  <Exp_Method>  (66) 
X-Ray Diffraction

>  <Cryst_Method>  (66) 
Vapor Diffusion, Hanging Drop; Mother Liquor: 12% Mpd, 100 Mm Bis-Tris, Protein Solution: 50 Mm Bicine, 150 Mm Ammonium Acetate, 10 Mm Dtt, 8-10 Mg/Ml   
9% Meoh Added To The Well Immediately Before Sealing.   
8 Ul Drop Size With 1:1 Protein:Mother Liquor, Vapor Diffusion, Hanging Drop, Temperature 277.15K, pH 8.0

>  <Deposit_Date>  (66) 
2012-01-24

>  <Resolution>  (66) 
1.35

>  <DOI>  (66) 
https://doi.org/10.1016/j.jmb.2012.05.021

>  <Source_Organism>  (66) 
Mus musculus

>  <R_Free>  (66) 
0.17893

>  <Keywords>  (66) 
Transferase/Transferase Inhibitor

>  <REMARK_280>  (66) 
 Crystal Solvent Content, Vs (%): 53.02 Matthews Coefficient, Vm (Angstroms**3/Da): 2.62 Crystallization Conditions: Mother Liquor: 12% Mpd, 100 Mm Bis- Tris, Protein Solution: 50 Mm Bicine, 150 Mm Ammonium Acetate, 10 Mm Dtt, 8-10 Mg/Ml 9% Meoh Added To The Well Immediately Before Sealing. 8 Ul Drop Size With 1:1 Protein:Mother Liquor, Vapor Diffusion, Hanging Drop, Temperature 277.15K, pH 8.0 

>  <REMARK_610>  (66) 
nan

>  <pH>  (66) 
8.0

>  <Cryst_Technique>  (66) 
co-crystallized

>  <Sequence>  (66) 
GNAAAACKGSEQESVKEFLAKAKEDFLKKWETPSQNTAQLDQFDRIKTLGTGSFGRVMLVKHKESGNHYAMKILDKQKVVKLKQIEHTLNEKRILQAVNFPFLVKLEFSFKDNSNLYMVMEYVAGGEMFSHLRRIGRFSEPHARFYAAQIVLTFEYLHSLDLIYRDLKPENLLIDQQGYIQVTDFGFAKRVKGRTWTLCGTPEYLAPEIILSKGYNKAVDWWALGVLIYEMAAGYPPFFADQPIQIYEKIVSGKVRFPSHFSSDLKDLLRNLLQVDLTKRFGNLKNGVNDIKNHKWFATTDWIAIYQRKVEAPFIPKFKGPGDTSNFDDYEEEEIRVSINEKCGKEFTEF

>  <Sequence_Length>  (66) 
350.0

>  <Mutation_Count>  (66) 
1.0

>  <Gene_Name>  (66) 
PKACA

>  <MW>  (66) 
40.711

>  <Name>  (66) 
cAMP-Dependent Protein Kinase Catalytic Subunit Alpha

>  <Mutations>  (66) 
K7C

>  <EC_Number>  (66) 
2.7.11.11

>  <Peptidic_Inhibitor>  (66) 
True

>  <Lig_Missing_Atoms>  (66) 
['No']

>  <PDBbind_Resolution>  (66) 
nan

>  <PDBbind_Release_Year>  (66) 
nan

>  <PDBbind_Comment>  (66) 
nan

>  <PDBbind_Uniprot_Id>  (66) 
nan

>  <PDBbind_Protein_Name>  (66) 
nan

>  <PDBbind_-Logkd/Ki>  (66) 
nan

>  <PDBbind_Kd/Ki>  (66) 
nan

>  <PDBbind_Kd_Or_Ki_Or_Ic50>  (66) 
nan

>  <PDBbind_Relation>  (66) 
nan

>  <PDBbind_Value>  (66) 
nan

>  <PDBbind_Unit>  (66) 
nan

>  <PDBbind_Standard_Value>  (66) 
nan

>  <PDBbind_Standard_Unit>  (66) 
nan

>  <PDB_Chain>  (66) 
['E']

>  <Num_Ligs>  (66) 
[1.0]

>  <Orthosteric>  (66) 
[1.0]

>  <Allosteric>  (66) 
[0.0]

>  <Pockets_Assigned>  (66) 
['A']

>  <Multisite>  (66) 
[False]

>  <Same_Number>  (66) 
True

>  <Same_Binding_Site>  (66) 
True

>  <Same_Orientation>  (66) 
True

>  <Lig_Order_in_.pdb>  (66) 
Orthosteric

$$$$

     RDKit          2D

 31 33  0  0  0  0  0  0  0  0999 V2000
    1.5000    0.0000    0.0000 C   0  0  0  0  0  0  0  0  0  0  0  0
    0.7500   -1.2990    0.0000 N   0  0  0  0  0  0  0  0  0  0  0  0
   -0.7500   -1.2990    0.0000 C   0  0  0  0  0  0  0  0  0  0  0  0
   -1.5000    0.0000    0.0000 C   0  0  0  0  0  0  0  0  0  0  0  0
   -0.7500    1.2990    0.0000 C   0  0  0  0  0  0  0  0  0  0  0  0
    0.7500    1.2990    0.0000 N   0  0  0  0  0  0  0  0  0  0  0  0
   -1.7537    2.4138    0.0000 N   0  0  0  0  0  0  0  0  0  0  0  0
   -3.1240    1.8037    0.0000 C   0  0  0  0  0  0  0  0  0  0  0  0
   -2.9672    0.3119    0.0000 N   0  0  0  0  0  0  0  0  0  0  0  0
   -1.4418    3.8810    0.0000 C   0  0  0  0  0  0  0  0  0  0  0  0
   -2.4455    4.9957    0.0000 C   0  0  0  0  0  0  0  0  0  0  0  0
   -1.6955    6.2947    0.0000 C   0  0  0  0  0  0  0  0  0  0  0  0
   -0.2283    5.9829    0.0000 C   0  0  0  0  0  0  0  0  0  0  0  0
   -0.0715    4.4911    0.0000 O   0  0  0  0  0  0  0  0  0  0  0  0
    0.8864    6.9866    0.0000 C   0  0  0  0  0  0  0  0  0  0  0  0
    2.3130    6.5230    0.0000 O   0  0  0  0  0  0  0  0  0  0  0  0
    3.4277    7.5267    0.0000 P   0  0  0  0  0  5  0  0  0  0  0  0
    2.4240    8.6414    0.0000 O   0  0  0  0  0  0  0  0  0  0  0  0
    4.4314    6.4120    0.0000 O   0  0  0  0  0  0  0  0  0  0  0  0
    4.5424    8.5304    0.0000 O   0  0  0  0  0  0  0  0  0  0  0  0
    4.2306    9.9976    0.0000 P   0  0  0  0  0  5  0  0  0  0  0  0
    2.7633    9.6858    0.0000 O   0  0  0  0  0  0  0  0  0  0  0  0
    5.6978   10.3095    0.0000 N   0  0  0  0  0  0  0  0  0  0  0  0
    6.1613   11.7361    0.0000 P   0  0  0  0  0  0  0  0  0  0  0  0
    6.6248   13.1627    0.0000 O   0  0  0  0  0  0  0  0  0  0  0  0
    7.5879   11.2726    0.0000 O   0  0  0  0  0  0  0  0  0  0  0  0
    4.7347   12.1996    0.0000 O   0  0  0  0  0  0  0  0  0  0  0  0
    3.9187   11.4649    0.0000 O   0  0  0  0  0  0  0  0  0  0  0  0
   -2.3056    7.6651    0.0000 O   0  0  0  0  0  0  0  0  0  0  0  0
   -3.9373    4.8389    0.0000 O   0  0  0  0  0  0  0  0  0  0  0  0
   -1.5000   -2.5981    0.0000 N   0  0  0  0  0  0  0  0  0  0  0  0
  1  2  2  0
  2  3  1  0
  3  4  2  0
  4  5  1  0
  5  6  2  0
  5  7  1  0
  7  8  1  0
  8  9  2  0
 10  7  1  1
 10 11  1  0
 11 12  1  0
 12 13  1  0
 13 14  1  0
 13 15  1  1
 15 16  1  0
 16 17  1  0
 17 18  2  0
 17 19  1  6
 17 20  1  0
 20 21  1  0
 21 22  2  0
 21 23  1  0
 23 24  1  0
 24 25  2  0
 24 26  1  0
 24 27  1  0
 21 28  1  6
 12 29  1  6
 11 30  1  6
  3 31  1  0
  6  1  1  0
  9  4  1  0
 14 10  1  0
M  END
>  <Structure>  (67) 
4DG0

>  <Dataset>  (67) 
PDB

>  <Chain>  (67) 
E

>  <Spatial_Label>  (67) 
DFGin

>  <Dihedral_Label>  (67) 
BLAminus

>  <C_Helix_Label>  (67) 
Chelix-in

>  <Lig_ID>  (67) 
ANP

>  <Lig_Entity_ID>  (67) 
4DG0_4

>  <Lig_Name>  (67) 
PHOSPHOAMINOPHOSPHONIC ACID-ADENYLATE ESTER

>  <Lig_Formula>  (67) 
C10H17N6O12P3

>  <Lig_SMILES>  (67) 
c1nc(c2c(n1)n(cn2)[C@H]3[C@@H]([C@@H]([C@H](O3)CO[P@](=O)(O)O[P@@](=O)(NP(=O)(O)O)O)O)O)N

>  <Lig_MW>  (67) 
506.196

>  <Lig_ChEMBL_ID>  (67) 
['CHEMBL1230989']

>  <Lig_DrugBank_ID>  (67) 
nan

>  <Occurence>  (67) 
13.0

>  <Lig_SMILES_Uncharged>  (67) 
Nc1ncnc2c1ncn2[C@@H]1O[C@H](CO[P@](=O)(O)O[P@](=O)(O)NP(=O)(O)O)[C@@H](O)[C@H]1O

>  <Lig_Conformer>  (67) 
['NaN']

>  <Lig_Of_Interest>  (67) 
['Y']

>  <Lig_Completeness>  (67) 
[1.0]

>  <Lig_Occupancy>  (67) 
[1.0]

>  <Lig_RSCC>  (67) 
[0.967]

>  <Lig_RSR>  (67) 
[0.088]

>  <Lig_RMSZ_Bonds>  (67) 
[1.46]

>  <Lig_RMSZ_Angles>  (67) 
[1.45]

>  <Lig_Alt_Conf>  (67) 
0.0

>  <Title>  (67) 
Crystal structure of myristoylated WT catalytic subunit of cAMP-dependent protein kinase in complex with SP20 and AMP-PNP

>  <Nonpolymer_Entity_Count>  (67) 
4.0

>  <Protein_Entity_Count>  (67) 
2.0

>  <Exp_Method>  (67) 
X-Ray Diffraction

>  <Cryst_Method>  (67) 
NaN; Mother Liquor: 10% Mpd  
Protein Solution: 50 Mm Bicine, 150 Mm Ammonium Acetate, 8-10 Mg/Ml   
9% Meoh Added To The Well Immediately Before Sealing.   
8 Ul Drop Size With 1:1 Protein:Mother Liquor, Vapor Diffusion, Hanging Drop, Temperature 277.15K, pH 8.0

>  <Deposit_Date>  (67) 
2012-01-24

>  <Resolution>  (67) 
2.0

>  <DOI>  (67) 
https://doi.org/10.1016/j.jmb.2012.05.021

>  <Source_Organism>  (67) 
Mus musculus

>  <R_Free>  (67) 
0.228

>  <Keywords>  (67) 
Transferase/Transferase Inhibitor

>  <REMARK_280>  (67) 
 Crystal Solvent Content, Vs (%): 53.11 Matthews Coefficient, Vm (Angstroms**3/Da): 2.62 Crystallization Conditions: Mother Liquor: 10% Mpd Protein Solution: 50 Mm Bicine, 150 Mm Ammonium Acetate, 8-10 Mg/Ml 9% Meoh Added To The Well Immediately Before Sealing. 8 Ul Drop Size With 1:1 Protein:Mother Liquor, Vapor Diffusion, Hanging Drop, Temperature 277.15K, pH 8.0 

>  <REMARK_610>  (67) 
  MYR E 401 

>  <pH>  (67) 
8.0

>  <Cryst_Technique>  (67) 
co-crystallized

>  <Sequence>  (67) 
GNAAAAKKGSEQESVKEFLAKAKEDFLKKWETPSQNTAQLDQFDRIKTLGTGSFGRVMLVKHKESGNHYAMKILDKQKVVKLKQIEHTLNEKRILQAVNFPFLVKLEFSFKDNSNLYMVMEYVAGGEMFSHLRRIGRFSEPHARFYAAQIVLTFEYLHSLDLIYRDLKPENLLIDQQGYIQVTDFGFAKRVKGRTWTLCGTPEYLAPEIILSKGYNKAVDWWALGVLIYEMAAGYPPFFADQPIQIYEKIVSGKVRFPSHFSSDLKDLLRNLLQVDLTKRFGNLKNGVNDIKNHKWFATTDWIAIYQRKVEAPFIPKFKGPGDTSNFDDYEEEEIRVSINEKCGKEFTEF

>  <Sequence_Length>  (67) 
350.0

>  <Mutation_Count>  (67) 
0.0

>  <Gene_Name>  (67) 
PKACA

>  <MW>  (67) 
40.737

>  <Name>  (67) 
cAMP-Dependent Protein Kinase Catalytic Subunit Alpha

>  <Mutations>  (67) 
nan

>  <EC_Number>  (67) 
2.7.11.11

>  <Peptidic_Inhibitor>  (67) 
True

>  <Lig_Missing_Atoms>  (67) 
['No']

>  <PDBbind_Resolution>  (67) 
nan

>  <PDBbind_Release_Year>  (67) 
nan

>  <PDBbind_Comment>  (67) 
nan

>  <PDBbind_Uniprot_Id>  (67) 
nan

>  <PDBbind_Protein_Name>  (67) 
nan

>  <PDBbind_-Logkd/Ki>  (67) 
nan

>  <PDBbind_Kd/Ki>  (67) 
nan

>  <PDBbind_Kd_Or_Ki_Or_Ic50>  (67) 
nan

>  <PDBbind_Relation>  (67) 
nan

>  <PDBbind_Value>  (67) 
nan

>  <PDBbind_Unit>  (67) 
nan

>  <PDBbind_Standard_Value>  (67) 
nan

>  <PDBbind_Standard_Unit>  (67) 
nan

>  <PDB_Chain>  (67) 
['E']

>  <Num_Ligs>  (67) 
[1.0]

>  <Orthosteric>  (67) 
[1.0]

>  <Allosteric>  (67) 
[0.0]

>  <Pockets_Assigned>  (67) 
['A']

>  <Multisite>  (67) 
[False]

>  <Same_Number>  (67) 
True

>  <Same_Binding_Site>  (67) 
True

>  <Same_Orientation>  (67) 
True

>  <Lig_Order_in_.pdb>  (67) 
Orthosteric

$$$$

     RDKit          2D

 31 33  0  0  0  0  0  0  0  0999 V2000
    1.5000    0.0000    0.0000 C   0  0  0  0  0  0  0  0  0  0  0  0
    0.7500   -1.2990    0.0000 N   0  0  0  0  0  0  0  0  0  0  0  0
   -0.7500   -1.2990    0.0000 C   0  0  0  0  0  0  0  0  0  0  0  0
   -1.5000    0.0000    0.0000 C   0  0  0  0  0  0  0  0  0  0  0  0
   -0.7500    1.2990    0.0000 C   0  0  0  0  0  0  0  0  0  0  0  0
    0.7500    1.2990    0.0000 N   0  0  0  0  0  0  0  0  0  0  0  0
   -1.7537    2.4138    0.0000 N   0  0  0  0  0  0  0  0  0  0  0  0
   -3.1240    1.8037    0.0000 C   0  0  0  0  0  0  0  0  0  0  0  0
   -2.9672    0.3119    0.0000 N   0  0  0  0  0  0  0  0  0  0  0  0
   -1.4418    3.8810    0.0000 C   0  0  0  0  0  0  0  0  0  0  0  0
   -2.4455    4.9957    0.0000 C   0  0  0  0  0  0  0  0  0  0  0  0
   -1.6955    6.2947    0.0000 C   0  0  0  0  0  0  0  0  0  0  0  0
   -0.2283    5.9829    0.0000 C   0  0  0  0  0  0  0  0  0  0  0  0
   -0.0715    4.4911    0.0000 O   0  0  0  0  0  0  0  0  0  0  0  0
    0.8864    6.9866    0.0000 C   0  0  0  0  0  0  0  0  0  0  0  0
    2.3130    6.5230    0.0000 O   0  0  0  0  0  0  0  0  0  0  0  0
    3.4277    7.5267    0.0000 P   0  0  0  0  0  5  0  0  0  0  0  0
    2.4240    8.6414    0.0000 O   0  0  0  0  0  0  0  0  0  0  0  0
    4.4314    6.4120    0.0000 O   0  0  0  0  0  0  0  0  0  0  0  0
    4.5424    8.5304    0.0000 O   0  0  0  0  0  0  0  0  0  0  0  0
    4.2306    9.9976    0.0000 P   0  0  0  0  0  5  0  0  0  0  0  0
    2.7633    9.6858    0.0000 O   0  0  0  0  0  0  0  0  0  0  0  0
    5.6978   10.3095    0.0000 N   0  0  0  0  0  0  0  0  0  0  0  0
    6.1613   11.7361    0.0000 P   0  0  0  0  0  0  0  0  0  0  0  0
    6.6248   13.1627    0.0000 O   0  0  0  0  0  0  0  0  0  0  0  0
    7.5879   11.2726    0.0000 O   0  0  0  0  0  0  0  0  0  0  0  0
    4.7347   12.1996    0.0000 O   0  0  0  0  0  0  0  0  0  0  0  0
    3.9187   11.4649    0.0000 O   0  0  0  0  0  0  0  0  0  0  0  0
   -2.3056    7.6651    0.0000 O   0  0  0  0  0  0  0  0  0  0  0  0
   -3.9373    4.8389    0.0000 O   0  0  0  0  0  0  0  0  0  0  0  0
   -1.5000   -2.5981    0.0000 N   0  0  0  0  0  0  0  0  0  0  0  0
  1  2  2  0
  2  3  1  0
  3  4  2  0
  4  5  1  0
  5  6  2  0
  5  7  1  0
  7  8  1  0
  8  9  2  0
 10  7  1  1
 10 11  1  0
 11 12  1  0
 12 13  1  0
 13 14  1  0
 13 15  1  1
 15 16  1  0
 16 17  1  0
 17 18  2  0
 17 19  1  6
 17 20  1  0
 20 21  1  0
 21 22  2  0
 21 23  1  0
 23 24  1  0
 24 25  2  0
 24 26  1  0
 24 27  1  0
 21 28  1  6
 12 29  1  6
 11 30  1  6
  3 31  1  0
  6  1  1  0
  9  4  1  0
 14 10  1  0
M  END
>  <Structure>  (68) 
4DG3

>  <Dataset>  (68) 
PDB

>  <Chain>  (68) 
E

>  <Spatial_Label>  (68) 
DFGin

>  <Dihedral_Label>  (68) 
BLAminus

>  <C_Helix_Label>  (68) 
Chelix-in

>  <Lig_ID>  (68) 
ANP

>  <Lig_Entity_ID>  (68) 
4DG3_3

>  <Lig_Name>  (68) 
PHOSPHOAMINOPHOSPHONIC ACID-ADENYLATE ESTER

>  <Lig_Formula>  (68) 
C10H17N6O12P3

>  <Lig_SMILES>  (68) 
c1nc(c2c(n1)n(cn2)[C@H]3[C@@H]([C@@H]([C@H](O3)CO[P@](=O)(O)O[P@@](=O)(NP(=O)(O)O)O)O)O)N

>  <Lig_MW>  (68) 
506.196

>  <Lig_ChEMBL_ID>  (68) 
['CHEMBL1230989']

>  <Lig_DrugBank_ID>  (68) 
nan

>  <Occurence>  (68) 
13.0

>  <Lig_SMILES_Uncharged>  (68) 
Nc1ncnc2c1ncn2[C@@H]1O[C@H](CO[P@](=O)(O)O[P@](=O)(O)NP(=O)(O)O)[C@@H](O)[C@H]1O

>  <Lig_Conformer>  (68) 
['NaN']

>  <Lig_Of_Interest>  (68) 
['Y']

>  <Lig_Completeness>  (68) 
[1.0]

>  <Lig_Occupancy>  (68) 
[1.0]

>  <Lig_RSCC>  (68) 
[0.989]

>  <Lig_RSR>  (68) 
[0.097]

>  <Lig_RMSZ_Bonds>  (68) 
[1.58]

>  <Lig_RMSZ_Angles>  (68) 
[1.45]

>  <Lig_Alt_Conf>  (68) 
0.0

>  <Title>  (68) 
Crystal structure of R336A mutant of cAMP-dependent protein kinase with unphosphorylated turn motif.

>  <Nonpolymer_Entity_Count>  (68) 
3.0

>  <Protein_Entity_Count>  (68) 
2.0

>  <Exp_Method>  (68) 
X-Ray Diffraction

>  <Cryst_Method>  (68) 
Vapor Diffusion, Hanging Drop; 8-14% Mpd, 100 Mm Tris, 10 Mm Dtt. 11-13% Methanol Added To Well Before Sealing, pH 8.0, Vapor Diffusion, Hanging Drop, Temperature 277.15K

>  <Deposit_Date>  (68) 
2012-01-24

>  <Resolution>  (68) 
1.8

>  <DOI>  (68) 
nan

>  <Source_Organism>  (68) 
Mus musculus

>  <R_Free>  (68) 
0.21734

>  <Keywords>  (68) 
Transferase/Transferase Inhibitor

>  <REMARK_280>  (68) 
 Crystal Solvent Content, Vs (%): 50.16 Matthews Coefficient, Vm (Angstroms**3/Da): 2.47 Crystallization Conditions: 8-14% Mpd, 100 Mm Tris, 10 Mm Dtt. 11- 13% Methanol Added To Well Before Sealing, pH 8.0, Vapor Diffusion, Hanging Drop, Temperature 277.15K 

>  <REMARK_610>  (68) 
nan

>  <pH>  (68) 
8.0

>  <Cryst_Technique>  (68) 
nan

>  <Sequence>  (68) 
MGSSHHHHHHSSGLVPRGSHMGNAAAAKKGSEQESVKEFLAKAKEDFLKKWETPSQNTAQLDQFDRIKTLGTGSFGRVMLVKHKESGNHYAMKILDKQKVVKLKQIEHTLNEKRILQAVNFPFLVKLEFSFKDNSNLYMVMEYVAGGEMFSHLRRIGRFSEPHARFYAAQIVLTFEYLHSLDLIYRDLKPENLLIDQQGYIQVTDFGFAKRVKGRTWTLCGTPEYLAPEIILSKGYNKAVDWWALGVLIYEMAAGYPPFFADQPIQIYEKIVSGKVRFPSHFSSDLKDLLRNLLQVDLTKRFGNLKNGVNDIKNHKWFATTDWIAIYQRKVEAPFIPKFKGPGDTSNFDDYEEEEIAVSINEKCGKEFTEF

>  <Sequence_Length>  (68) 
371.0

>  <Mutation_Count>  (68) 
1.0

>  <Gene_Name>  (68) 
PKACA

>  <MW>  (68) 
42.874

>  <Name>  (68) 
cAMP-Dependent Protein Kinase Catalytic Subunit Alpha

>  <Mutations>  (68) 
R336A

>  <EC_Number>  (68) 
2.7.11.11

>  <Peptidic_Inhibitor>  (68) 
True

>  <Lig_Missing_Atoms>  (68) 
['No']

>  <PDBbind_Resolution>  (68) 
nan

>  <PDBbind_Release_Year>  (68) 
nan

>  <PDBbind_Comment>  (68) 
nan

>  <PDBbind_Uniprot_Id>  (68) 
nan

>  <PDBbind_Protein_Name>  (68) 
nan

>  <PDBbind_-Logkd/Ki>  (68) 
nan

>  <PDBbind_Kd/Ki>  (68) 
nan

>  <PDBbind_Kd_Or_Ki_Or_Ic50>  (68) 
nan

>  <PDBbind_Relation>  (68) 
nan

>  <PDBbind_Value>  (68) 
nan

>  <PDBbind_Unit>  (68) 
nan

>  <PDBbind_Standard_Value>  (68) 
nan

>  <PDBbind_Standard_Unit>  (68) 
nan

>  <PDB_Chain>  (68) 
['A']

>  <Num_Ligs>  (68) 
[1.0]

>  <Orthosteric>  (68) 
[1.0]

>  <Allosteric>  (68) 
[0.0]

>  <Pockets_Assigned>  (68) 
['A']

>  <Multisite>  (68) 
[False]

>  <Same_Number>  (68) 
True

>  <Same_Binding_Site>  (68) 
True

>  <Same_Orientation>  (68) 
True

>  <Lig_Order_in_.pdb>  (68) 
Orthosteric

$$$$

     RDKit          2D

 31 33  0  0  0  0  0  0  0  0999 V2000
    1.5000    0.0000    0.0000 C   0  0  0  0  0  0  0  0  0  0  0  0
    0.7500   -1.2990    0.0000 N   0  0  0  0  0  0  0  0  0  0  0  0
   -0.7500   -1.2990    0.0000 C   0  0  0  0  0  0  0  0  0  0  0  0
   -1.5000    0.0000    0.0000 C   0  0  0  0  0  0  0  0  0  0  0  0
   -0.7500    1.2990    0.0000 C   0  0  0  0  0  0  0  0  0  0  0  0
    0.7500    1.2990    0.0000 N   0  0  0  0  0  0  0  0  0  0  0  0
   -1.7537    2.4138    0.0000 N   0  0  0  0  0  0  0  0  0  0  0  0
   -3.1240    1.8037    0.0000 C   0  0  0  0  0  0  0  0  0  0  0  0
   -2.9672    0.3119    0.0000 N   0  0  0  0  0  0  0  0  0  0  0  0
   -1.4418    3.8810    0.0000 C   0  0  0  0  0  0  0  0  0  0  0  0
   -2.4455    4.9957    0.0000 C   0  0  0  0  0  0  0  0  0  0  0  0
   -1.6955    6.2947    0.0000 C   0  0  0  0  0  0  0  0  0  0  0  0
   -0.2283    5.9829    0.0000 C   0  0  0  0  0  0  0  0  0  0  0  0
   -0.0715    4.4911    0.0000 O   0  0  0  0  0  0  0  0  0  0  0  0
    0.8864    6.9866    0.0000 C   0  0  0  0  0  0  0  0  0  0  0  0
    2.3130    6.5230    0.0000 O   0  0  0  0  0  0  0  0  0  0  0  0
    3.4277    7.5267    0.0000 P   0  0  0  0  0  5  0  0  0  0  0  0
    2.4240    8.6414    0.0000 O   0  0  0  0  0  0  0  0  0  0  0  0
    4.4314    6.4120    0.0000 O   0  0  0  0  0  0  0  0  0  0  0  0
    4.5424    8.5304    0.0000 O   0  0  0  0  0  0  0  0  0  0  0  0
    4.2306    9.9976    0.0000 P   0  0  0  0  0  5  0  0  0  0  0  0
    5.6978   10.3095    0.0000 O   0  0  0  0  0  0  0  0  0  0  0  0
    2.7633    9.6858    0.0000 O   0  0  0  0  0  0  0  0  0  0  0  0
    3.9187   11.4649    0.0000 O   0  0  0  0  0  0  0  0  0  0  0  0
    2.4921   11.9284    0.0000 P   0  0  0  0  0  0  0  0  0  0  0  0
    2.9556   13.3550    0.0000 O   0  0  0  0  0  0  0  0  0  0  0  0
    2.0286   10.5018    0.0000 O   0  0  0  0  0  0  0  0  0  0  0  0
    1.0655   12.3919    0.0000 O   0  0  0  0  0  0  0  0  0  0  0  0
   -2.3056    7.6651    0.0000 O   0  0  0  0  0  0  0  0  0  0  0  0
   -3.9373    4.8389    0.0000 O   0  0  0  0  0  0  0  0  0  0  0  0
   -1.5000   -2.5981    0.0000 N   0  0  0  0  0  0  0  0  0  0  0  0
  1  2  2  0
  2  3  1  0
  3  4  2  0
  4  5  1  0
  5  6  2  0
  5  7  1  0
  7  8  1  0
  8  9  2  0
 10  7  1  1
 10 11  1  0
 11 12  1  0
 12 13  1  0
 13 14  1  0
 13 15  1  1
 15 16  1  0
 16 17  1  0
 17 18  2  0
 17 19  1  1
 17 20  1  0
 20 21  1  0
 21 22  2  0
 21 23  1  1
 21 24  1  0
 24 25  1  0
 25 26  2  0
 25 27  1  0
 25 28  1  0
 12 29  1  6
 11 30  1  6
  3 31  1  0
  6  1  1  0
  9  4  1  0
 14 10  1  0
M  END
>  <Structure>  (69) 
4DH1

>  <Dataset>  (69) 
PDB

>  <Chain>  (69) 
A

>  <Spatial_Label>  (69) 
DFGin

>  <Dihedral_Label>  (69) 
BLAminus

>  <C_Helix_Label>  (69) 
Chelix-in

>  <Lig_ID>  (69) 
ATP

>  <Lig_Entity_ID>  (69) 
4DH1_4

>  <Lig_Name>  (69) 
ADENOSINE-5'-TRIPHOSPHATE

>  <Lig_Formula>  (69) 
C10H16N5O13P3

>  <Lig_SMILES>  (69) 
c1nc(c2c(n1)n(cn2)[C@H]3[C@@H]([C@@H]([C@H](O3)CO[P@@](=O)(O)O[P@](=O)(O)OP(=O)(O)O)O)O)N

>  <Lig_MW>  (69) 
507.181

>  <Lig_ChEMBL_ID>  (69) 
['CHEMBL14249']

>  <Lig_DrugBank_ID>  (69) 
['DB00171']

>  <Occurence>  (69) 
14.0

>  <Lig_SMILES_Uncharged>  (69) 
Nc1ncnc2c1ncn2[C@@H]1O[C@H](CO[P@@](=O)(O)O[P@](=O)(O)OP(=O)(O)O)[C@@H](O)[C@H]1O

>  <Lig_Conformer>  (69) 
['NaN']

>  <Lig_Of_Interest>  (69) 
['Y']

>  <Lig_Completeness>  (69) 
[1.0]

>  <Lig_Occupancy>  (69) 
[1.0]

>  <Lig_RSCC>  (69) 
[0.78]

>  <Lig_RSR>  (69) 
[0.26]

>  <Lig_RMSZ_Bonds>  (69) 
[2.3]

>  <Lig_RMSZ_Angles>  (69) 
[1.31]

>  <Lig_Alt_Conf>  (69) 
0.0

>  <Title>  (69) 
Low temperature X-ray structure of cAMP dependent Protein Kinase A catalytic subunit with low Mg2+, ATP and IP20

>  <Nonpolymer_Entity_Count>  (69) 
2.0

>  <Protein_Entity_Count>  (69) 
2.0

>  <Exp_Method>  (69) 
X-Ray Diffraction

>  <Cryst_Method>  (69) 
Vapor Diffusion, Sitting Drop; 50 Mm Mes (pH=6.5), 5 Mm Dtt And 12-15% Peg4000, Vapor Diffusion, Sitting Drop, Temperature 277K

>  <Deposit_Date>  (69) 
2012-01-27

>  <Resolution>  (69) 
2.0

>  <DOI>  (69) 
https://doi.org/10.1107/S0907444912014886

>  <Source_Organism>  (69) 
Mus musculus

>  <R_Free>  (69) 
0.234

>  <Keywords>  (69) 
Transferase/Transferase Inhibitor

>  <REMARK_280>  (69) 
 Crystal Solvent Content, Vs (%): 55.52 Matthews Coefficient, Vm (Angstroms**3/Da): 2.77 Crystallization Conditions: 50 Mm Mes (pH=6.5), 5 Mm Dtt And 12- 15% Peg4000, Vapor Diffusion, Sitting Drop, Temperature 277K 

>  <REMARK_610>  (69) 
nan

>  <pH>  (69) 
6.5

>  <Cryst_Technique>  (69) 
co-crystallized

>  <Sequence>  (69) 
GNAAAAKKGSEQESVKEFLAKAKEDFLKKWETPSQNTAQLDQFDRIKTLGTGSFGRVMLVKHKESGNHYAMKILDKQKVVKLKQIEHTLNEKRILQAVNFPFLVKLEFSFKDNSNLYMVMEYVAGGEMFSHLRRIGRFSEPHARFYAAQIVLTFEYLHSLDLIYRDLKPENLLIDQQGYIQVTDFGFAKRVKGRTWTLCGTPEYLAPEIILSKGYNKAVDWWALGVLIYEMAAGYPPFFADQPIQIYEKIVSGKVRFPSHFSSDLKDLLRNLLQVDLTKRFGNLKNGVNDIKNHKWFATTDWIAIYQRKVEAPFIPKFKGPGDTSNFDDYEEEEIRVSINEKCGKEFTEF

>  <Sequence_Length>  (69) 
350.0

>  <Mutation_Count>  (69) 
0.0

>  <Gene_Name>  (69) 
PKACA

>  <MW>  (69) 
40.737

>  <Name>  (69) 
cAMP-Dependent Protein Kinase Catalytic Subunit Alpha

>  <Mutations>  (69) 
nan

>  <EC_Number>  (69) 
2.7.11.11

>  <Peptidic_Inhibitor>  (69) 
True

>  <Lig_Missing_Atoms>  (69) 
['No']

>  <PDBbind_Resolution>  (69) 
nan

>  <PDBbind_Release_Year>  (69) 
nan

>  <PDBbind_Comment>  (69) 
nan

>  <PDBbind_Uniprot_Id>  (69) 
nan

>  <PDBbind_Protein_Name>  (69) 
nan

>  <PDBbind_-Logkd/Ki>  (69) 
nan

>  <PDBbind_Kd/Ki>  (69) 
nan

>  <PDBbind_Kd_Or_Ki_Or_Ic50>  (69) 
nan

>  <PDBbind_Relation>  (69) 
nan

>  <PDBbind_Value>  (69) 
nan

>  <PDBbind_Unit>  (69) 
nan

>  <PDBbind_Standard_Value>  (69) 
nan

>  <PDBbind_Standard_Unit>  (69) 
nan

>  <PDB_Chain>  (69) 
['A']

>  <Num_Ligs>  (69) 
[1.0]

>  <Orthosteric>  (69) 
[1.0]

>  <Allosteric>  (69) 
[0.0]

>  <Pockets_Assigned>  (69) 
['A']

>  <Multisite>  (69) 
[False]

>  <Same_Number>  (69) 
True

>  <Same_Binding_Site>  (69) 
True

>  <Same_Orientation>  (69) 
True

>  <Lig_Order_in_.pdb>  (69) 
Orthosteric

$$$$

     RDKit          2D

 31 33  0  0  0  0  0  0  0  0999 V2000
    1.5000    0.0000    0.0000 C   0  0  0  0  0  0  0  0  0  0  0  0
    0.7500   -1.2990    0.0000 N   0  0  0  0  0  0  0  0  0  0  0  0
   -0.7500   -1.2990    0.0000 C   0  0  0  0  0  0  0  0  0  0  0  0
   -1.5000    0.0000    0.0000 C   0  0  0  0  0  0  0  0  0  0  0  0
   -0.7500    1.2990    0.0000 C   0  0  0  0  0  0  0  0  0  0  0  0
    0.7500    1.2990    0.0000 N   0  0  0  0  0  0  0  0  0  0  0  0
   -1.7537    2.4138    0.0000 N   0  0  0  0  0  0  0  0  0  0  0  0
   -3.1240    1.8037    0.0000 C   0  0  0  0  0  0  0  0  0  0  0  0
   -2.9672    0.3119    0.0000 N   0  0  0  0  0  0  0  0  0  0  0  0
   -1.4418    3.8810    0.0000 C   0  0  0  0  0  0  0  0  0  0  0  0
   -2.4455    4.9957    0.0000 C   0  0  0  0  0  0  0  0  0  0  0  0
   -1.6955    6.2947    0.0000 C   0  0  0  0  0  0  0  0  0  0  0  0
   -0.2283    5.9829    0.0000 C   0  0  0  0  0  0  0  0  0  0  0  0
   -0.0715    4.4911    0.0000 O   0  0  0  0  0  0  0  0  0  0  0  0
    0.8864    6.9866    0.0000 C   0  0  0  0  0  0  0  0  0  0  0  0
    2.3130    6.5230    0.0000 O   0  0  0  0  0  0  0  0  0  0  0  0
    3.4277    7.5267    0.0000 P   0  0  0  0  0  5  0  0  0  0  0  0
    2.4240    8.6414    0.0000 O   0  0  0  0  0  0  0  0  0  0  0  0
    4.4314    6.4120    0.0000 O   0  0  0  0  0  0  0  0  0  0  0  0
    4.5424    8.5304    0.0000 O   0  0  0  0  0  0  0  0  0  0  0  0
    4.2306    9.9976    0.0000 P   0  0  0  0  0  5  0  0  0  0  0  0
    5.6978   10.3095    0.0000 O   0  0  0  0  0  0  0  0  0  0  0  0
    2.7633    9.6858    0.0000 O   0  0  0  0  0  0  0  0  0  0  0  0
    3.9187   11.4649    0.0000 O   0  0  0  0  0  0  0  0  0  0  0  0
    2.4921   11.9284    0.0000 P   0  0  0  0  0  0  0  0  0  0  0  0
    2.9556   13.3550    0.0000 O   0  0  0  0  0  0  0  0  0  0  0  0
    2.0286   10.5018    0.0000 O   0  0  0  0  0  0  0  0  0  0  0  0
    1.0655   12.3919    0.0000 O   0  0  0  0  0  0  0  0  0  0  0  0
   -2.3056    7.6651    0.0000 O   0  0  0  0  0  0  0  0  0  0  0  0
   -3.9373    4.8389    0.0000 O   0  0  0  0  0  0  0  0  0  0  0  0
   -1.5000   -2.5981    0.0000 N   0  0  0  0  0  0  0  0  0  0  0  0
  1  2  2  0
  2  3  1  0
  3  4  2  0
  4  5  1  0
  5  6  2  0
  5  7  1  0
  7  8  1  0
  8  9  2  0
 10  7  1  1
 10 11  1  0
 11 12  1  0
 12 13  1  0
 13 14  1  0
 13 15  1  1
 15 16  1  0
 16 17  1  0
 17 18  2  0
 17 19  1  1
 17 20  1  0
 20 21  1  0
 21 22  2  0
 21 23  1  1
 21 24  1  0
 24 25  1  0
 25 26  2  0
 25 27  1  0
 25 28  1  0
 12 29  1  6
 11 30  1  6
  3 31  1  0
  6  1  1  0
  9  4  1  0
 14 10  1  0
M  END
>  <Structure>  (70) 
4DH3

>  <Dataset>  (70) 
PDB

>  <Chain>  (70) 
A

>  <Spatial_Label>  (70) 
DFGin

>  <Dihedral_Label>  (70) 
BLAminus

>  <C_Helix_Label>  (70) 
Chelix-in

>  <Lig_ID>  (70) 
ATP

>  <Lig_Entity_ID>  (70) 
4DH3_4

>  <Lig_Name>  (70) 
ADENOSINE-5'-TRIPHOSPHATE

>  <Lig_Formula>  (70) 
C10H16N5O13P3

>  <Lig_SMILES>  (70) 
c1nc(c2c(n1)n(cn2)[C@H]3[C@@H]([C@@H]([C@H](O3)CO[P@@](=O)(O)O[P@](=O)(O)OP(=O)(O)O)O)O)N

>  <Lig_MW>  (70) 
507.181

>  <Lig_ChEMBL_ID>  (70) 
['CHEMBL14249']

>  <Lig_DrugBank_ID>  (70) 
['DB00171']

>  <Occurence>  (70) 
14.0

>  <Lig_SMILES_Uncharged>  (70) 
Nc1ncnc2c1ncn2[C@@H]1O[C@H](CO[P@@](=O)(O)O[P@](=O)(O)OP(=O)(O)O)[C@@H](O)[C@H]1O

>  <Lig_Conformer>  (70) 
['NaN']

>  <Lig_Of_Interest>  (70) 
['Y']

>  <Lig_Completeness>  (70) 
[1.0]

>  <Lig_Occupancy>  (70) 
[1.0]

>  <Lig_RSCC>  (70) 
[0.938]

>  <Lig_RSR>  (70) 
[0.111]

>  <Lig_RMSZ_Bonds>  (70) 
[2.18]

>  <Lig_RMSZ_Angles>  (70) 
[1.3]

>  <Lig_Alt_Conf>  (70) 
0.0

>  <Title>  (70) 
Low temperature X-ray structure of cAMP dependent Protein Kinase A catalytic subunit with high Mg2+, ATP and IP20

>  <Nonpolymer_Entity_Count>  (70) 
3.0

>  <Protein_Entity_Count>  (70) 
2.0

>  <Exp_Method>  (70) 
X-Ray Diffraction

>  <Cryst_Method>  (70) 
Vapor Diffusion, Sitting Drop; 50 Mm Mes (pH=6.5), 50 Mm Mg2Cl, 5 Mm Dtt And 12-15% Peg4000, Vapor Diffusion, Sitting Drop, Temperature 277K

>  <Deposit_Date>  (70) 
2012-01-27

>  <Resolution>  (70) 
2.2

>  <DOI>  (70) 
https://doi.org/10.1107/S0907444912014886

>  <Source_Organism>  (70) 
Mus musculus

>  <R_Free>  (70) 
0.233

>  <Keywords>  (70) 
Transferase/Transferase Inhibitor

>  <REMARK_280>  (70) 
 Crystal Solvent Content, Vs (%): 54.35 Matthews Coefficient, Vm (Angstroms**3/Da): 2.69 Crystallization Conditions: 50 Mm Mes (pH=6.5), 50 Mm Mg2Cl, 5 Mm Dtt And 12-15% Peg4000, Vapor Diffusion, Sitting Drop, Temperature 277K 

>  <REMARK_610>  (70) 
nan

>  <pH>  (70) 
6.5

>  <Cryst_Technique>  (70) 
co-crystallized

>  <Sequence>  (70) 
GNAAAAKKGSEQESVKEFLAKAKEDFLKKWETPSQNTAQLDQFDRIKTLGTGSFGRVMLVKHKESGNHYAMKILDKQKVVKLKQIEHTLNEKRILQAVNFPFLVKLEFSFKDNSNLYMVMEYVAGGEMFSHLRRIGRFSEPHARFYAAQIVLTFEYLHSLDLIYRDLKPENLLIDQQGYIQVTDFGFAKRVKGRTWTLCGTPEYLAPEIILSKGYNKAVDWWALGVLIYEMAAGYPPFFADQPIQIYEKIVSGKVRFPSHFSSDLKDLLRNLLQVDLTKRFGNLKNGVNDIKNHKWFATTDWIAIYQRKVEAPFIPKFKGPGDTSNFDDYEEEEIRVSINEKCGKEFTEF

>  <Sequence_Length>  (70) 
350.0

>  <Mutation_Count>  (70) 
0.0

>  <Gene_Name>  (70) 
PKACA

>  <MW>  (70) 
40.737

>  <Name>  (70) 
cAMP-Dependent Protein Kinase Catalytic Subunit Alpha

>  <Mutations>  (70) 
nan

>  <EC_Number>  (70) 
2.7.11.11

>  <Peptidic_Inhibitor>  (70) 
True

>  <Lig_Missing_Atoms>  (70) 
['No']

>  <PDBbind_Resolution>  (70) 
nan

>  <PDBbind_Release_Year>  (70) 
nan

>  <PDBbind_Comment>  (70) 
nan

>  <PDBbind_Uniprot_Id>  (70) 
nan

>  <PDBbind_Protein_Name>  (70) 
nan

>  <PDBbind_-Logkd/Ki>  (70) 
nan

>  <PDBbind_Kd/Ki>  (70) 
nan

>  <PDBbind_Kd_Or_Ki_Or_Ic50>  (70) 
nan

>  <PDBbind_Relation>  (70) 
nan

>  <PDBbind_Value>  (70) 
nan

>  <PDBbind_Unit>  (70) 
nan

>  <PDBbind_Standard_Value>  (70) 
nan

>  <PDBbind_Standard_Unit>  (70) 
nan

>  <PDB_Chain>  (70) 
['A']

>  <Num_Ligs>  (70) 
[1.0]

>  <Orthosteric>  (70) 
[1.0]

>  <Allosteric>  (70) 
[0.0]

>  <Pockets_Assigned>  (70) 
['A']

>  <Multisite>  (70) 
[False]

>  <Same_Number>  (70) 
True

>  <Same_Binding_Site>  (70) 
True

>  <Same_Orientation>  (70) 
True

>  <Lig_Order_in_.pdb>  (70) 
Orthosteric

$$$$

     RDKit          2D

 27 29  0  0  0  0  0  0  0  0999 V2000
    1.5000    0.0000    0.0000 C   0  0  0  0  0  0  0  0  0  0  0  0
    0.7500   -1.2990    0.0000 N   0  0  0  0  0  0  0  0  0  0  0  0
   -0.7500   -1.2990    0.0000 C   0  0  0  0  0  0  0  0  0  0  0  0
   -1.5000    0.0000    0.0000 C   0  0  0  0  0  0  0  0  0  0  0  0
   -0.7500    1.2990    0.0000 C   0  0  0  0  0  0  0  0  0  0  0  0
    0.7500    1.2990    0.0000 N   0  0  0  0  0  0  0  0  0  0  0  0
   -1.7537    2.4138    0.0000 N   0  0  0  0  0  0  0  0  0  0  0  0
   -3.1240    1.8037    0.0000 C   0  0  0  0  0  0  0  0  0  0  0  0
   -2.9672    0.3119    0.0000 N   0  0  0  0  0  0  0  0  0  0  0  0
   -1.4418    3.8810    0.0000 C   0  0  0  0  0  0  0  0  0  0  0  0
   -2.4455    4.9957    0.0000 C   0  0  0  0  0  0  0  0  0  0  0  0
   -1.6955    6.2947    0.0000 C   0  0  0  0  0  0  0  0  0  0  0  0
   -0.2283    5.9829    0.0000 C   0  0  0  0  0  0  0  0  0  0  0  0
   -0.0715    4.4911    0.0000 O   0  0  0  0  0  0  0  0  0  0  0  0
    0.8864    6.9866    0.0000 C   0  0  0  0  0  0  0  0  0  0  0  0
    2.3130    6.5230    0.0000 O   0  0  0  0  0  0  0  0  0  0  0  0
    3.4277    7.5267    0.0000 P   0  0  0  0  0  5  0  0  0  0  0  0
    2.4240    8.6414    0.0000 O   0  0  0  0  0  0  0  0  0  0  0  0
    4.4314    6.4120    0.0000 O   0  0  0  0  0  0  0  0  0  0  0  0
    4.5424    8.5304    0.0000 O   0  0  0  0  0  0  0  0  0  0  0  0
    4.2306    9.9976    0.0000 P   0  0  0  0  0  0  0  0  0  0  0  0
    5.6978   10.3095    0.0000 O   0  0  0  0  0  0  0  0  0  0  0  0
    2.7633    9.6858    0.0000 O   0  0  0  0  0  0  0  0  0  0  0  0
    3.9187   11.4649    0.0000 O   0  0  0  0  0  0  0  0  0  0  0  0
   -2.3056    7.6651    0.0000 O   0  0  0  0  0  0  0  0  0  0  0  0
   -3.9373    4.8389    0.0000 O   0  0  0  0  0  0  0  0  0  0  0  0
   -1.5000   -2.5981    0.0000 N   0  0  0  0  0  0  0  0  0  0  0  0
  1  2  2  0
  2  3  1  0
  3  4  2  0
  4  5  1  0
  5  6  2  0
  5  7  1  0
  7  8  1  0
  8  9  2  0
 10  7  1  1
 10 11  1  0
 11 12  1  0
 12 13  1  0
 13 14  1  0
 13 15  1  1
 15 16  1  0
 16 17  1  0
 17 18  2  0
 17 19  1  6
 17 20  1  0
 20 21  1  0
 21 22  2  0
 21 23  1  0
 21 24  1  0
 12 25  1  6
 11 26  1  6
  3 27  1  0
  6  1  1  0
  9  4  1  0
 14 10  1  0
M  END
>  <Structure>  (71) 
4DH5

>  <Dataset>  (71) 
PDB

>  <Chain>  (71) 
A

>  <Spatial_Label>  (71) 
DFGin

>  <Dihedral_Label>  (71) 
BLAminus

>  <C_Helix_Label>  (71) 
Chelix-in

>  <Lig_ID>  (71) 
ADP

>  <Lig_Entity_ID>  (71) 
4DH5_4

>  <Lig_Name>  (71) 
ADENOSINE-5'-DIPHOSPHATE

>  <Lig_Formula>  (71) 
C10H15N5O10P2

>  <Lig_SMILES>  (71) 
c1nc(c2c(n1)n(cn2)[C@H]3[C@@H]([C@@H]([C@H](O3)CO[P@](=O)(O)OP(=O)(O)O)O)O)N

>  <Lig_MW>  (71) 
427.201

>  <Lig_ChEMBL_ID>  (71) 
['CHEMBL14830']

>  <Lig_DrugBank_ID>  (71) 
['DB16833']

>  <Occurence>  (71) 
19.0

>  <Lig_SMILES_Uncharged>  (71) 
Nc1ncnc2c1ncn2[C@@H]1O[C@H](CO[P@](=O)(O)OP(=O)(O)O)[C@@H](O)[C@H]1O

>  <Lig_Conformer>  (71) 
['NaN']

>  <Lig_Of_Interest>  (71) 
['Y']

>  <Lig_Completeness>  (71) 
[1.0]

>  <Lig_Occupancy>  (71) 
[1.0]

>  <Lig_RSCC>  (71) 
[0.962]

>  <Lig_RSR>  (71) 
[0.095]

>  <Lig_RMSZ_Bonds>  (71) 
[1.37]

>  <Lig_RMSZ_Angles>  (71) 
[1.33]

>  <Lig_Alt_Conf>  (71) 
0.0

>  <Title>  (71) 
Room temperature X-ray structure of cAMP dependent Protein Kinase A catalytic subunit with high Mg2+, ADP, Phosphate, and IP20

>  <Nonpolymer_Entity_Count>  (71) 
4.0

>  <Protein_Entity_Count>  (71) 
2.0

>  <Exp_Method>  (71) 
X-Ray Diffraction

>  <Cryst_Method>  (71) 
Vapor Diffusion, Sitting Drop; 50 Mm Mes (pH=6.5), 50 Mm Mg2Cl, 5 Mm Dtt And 12-15% Peg4000, Vapor Diffusion, Sitting Drop, Temperature 277K

>  <Deposit_Date>  (71) 
2012-01-27

>  <Resolution>  (71) 
2.2

>  <DOI>  (71) 
https://doi.org/10.1107/S0907444912014886

>  <Source_Organism>  (71) 
Mus musculus

>  <R_Free>  (71) 
0.222

>  <Keywords>  (71) 
Transferase/Transferase Inhibitor

>  <REMARK_280>  (71) 
 Crystal Solvent Content, Vs (%): 54.70 Matthews Coefficient, Vm (Angstroms**3/Da): 2.72 Crystallization Conditions: 50 Mm Mes (pH=6.5), 50 Mm Mg2Cl, 5 Mm Dtt And 12-15% Peg4000, Vapor Diffusion, Sitting Drop, Temperature 277K 

>  <REMARK_610>  (71) 
nan

>  <pH>  (71) 
6.5

>  <Cryst_Technique>  (71) 
co-crystallized

>  <Sequence>  (71) 
GNAAAAKKGSEQESVKEFLAKAKEDFLKKWETPSQNTAQLDQFDRIKTLGTGSFGRVMLVKHKESGNHYAMKILDKQKVVKLKQIEHTLNEKRILQAVNFPFLVKLEFSFKDNSNLYMVMEYVAGGEMFSHLRRIGRFSEPHARFYAAQIVLTFEYLHSLDLIYRDLKPENLLIDQQGYIQVTDFGFAKRVKGRTWTLCGTPEYLAPEIILSKGYNKAVDWWALGVLIYEMAAGYPPFFADQPIQIYEKIVSGKVRFPSHFSSDLKDLLRNLLQVDLTKRFGNLKNGVNDIKNHKWFATTDWIAIYQRKVEAPFIPKFKGPGDTSNFDDYEEEEIRVSINEKCGKEFTEF

>  <Sequence_Length>  (71) 
350.0

>  <Mutation_Count>  (71) 
0.0

>  <Gene_Name>  (71) 
PKACA

>  <MW>  (71) 
40.737

>  <Name>  (71) 
cAMP-Dependent Protein Kinase Catalytic Subunit Alpha

>  <Mutations>  (71) 
nan

>  <EC_Number>  (71) 
2.7.11.11

>  <Peptidic_Inhibitor>  (71) 
True

>  <Lig_Missing_Atoms>  (71) 
['No']

>  <PDBbind_Resolution>  (71) 
nan

>  <PDBbind_Release_Year>  (71) 
nan

>  <PDBbind_Comment>  (71) 
nan

>  <PDBbind_Uniprot_Id>  (71) 
nan

>  <PDBbind_Protein_Name>  (71) 
nan

>  <PDBbind_-Logkd/Ki>  (71) 
nan

>  <PDBbind_Kd/Ki>  (71) 
nan

>  <PDBbind_Kd_Or_Ki_Or_Ic50>  (71) 
nan

>  <PDBbind_Relation>  (71) 
nan

>  <PDBbind_Value>  (71) 
nan

>  <PDBbind_Unit>  (71) 
nan

>  <PDBbind_Standard_Value>  (71) 
nan

>  <PDBbind_Standard_Unit>  (71) 
nan

>  <PDB_Chain>  (71) 
['A']

>  <Num_Ligs>  (71) 
[1.0]

>  <Orthosteric>  (71) 
[1.0]

>  <Allosteric>  (71) 
[0.0]

>  <Pockets_Assigned>  (71) 
['A']

>  <Multisite>  (71) 
[False]

>  <Same_Number>  (71) 
True

>  <Same_Binding_Site>  (71) 
True

>  <Same_Orientation>  (71) 
True

>  <Lig_Order_in_.pdb>  (71) 
Orthosteric

$$$$

     RDKit          2D

 31 33  0  0  0  0  0  0  0  0999 V2000
    1.5000    0.0000    0.0000 C   0  0  0  0  0  0  0  0  0  0  0  0
    0.7500   -1.2990    0.0000 N   0  0  0  0  0  0  0  0  0  0  0  0
   -0.7500   -1.2990    0.0000 C   0  0  0  0  0  0  0  0  0  0  0  0
   -1.5000    0.0000    0.0000 C   0  0  0  0  0  0  0  0  0  0  0  0
   -0.7500    1.2990    0.0000 C   0  0  0  0  0  0  0  0  0  0  0  0
    0.7500    1.2990    0.0000 N   0  0  0  0  0  0  0  0  0  0  0  0
   -1.7537    2.4138    0.0000 N   0  0  0  0  0  0  0  0  0  0  0  0
   -3.1240    1.8037    0.0000 C   0  0  0  0  0  0  0  0  0  0  0  0
   -2.9672    0.3119    0.0000 N   0  0  0  0  0  0  0  0  0  0  0  0
   -1.4418    3.8810    0.0000 C   0  0  0  0  0  0  0  0  0  0  0  0
   -2.4455    4.9957    0.0000 C   0  0  0  0  0  0  0  0  0  0  0  0
   -1.6955    6.2947    0.0000 C   0  0  0  0  0  0  0  0  0  0  0  0
   -0.2283    5.9829    0.0000 C   0  0  0  0  0  0  0  0  0  0  0  0
   -0.0715    4.4911    0.0000 O   0  0  0  0  0  0  0  0  0  0  0  0
    0.8864    6.9866    0.0000 C   0  0  0  0  0  0  0  0  0  0  0  0
    2.3130    6.5230    0.0000 O   0  0  0  0  0  0  0  0  0  0  0  0
    3.4277    7.5267    0.0000 P   0  0  0  0  0  5  0  0  0  0  0  0
    2.4240    8.6414    0.0000 O   0  0  0  0  0  0  0  0  0  0  0  0
    4.4314    6.4120    0.0000 O   0  0  0  0  0  0  0  0  0  0  0  0
    4.5424    8.5304    0.0000 O   0  0  0  0  0  0  0  0  0  0  0  0
    4.2306    9.9976    0.0000 P   0  0  0  0  0  5  0  0  0  0  0  0
    2.7633    9.6858    0.0000 O   0  0  0  0  0  0  0  0  0  0  0  0
    5.6978   10.3095    0.0000 N   0  0  0  0  0  0  0  0  0  0  0  0
    6.1613   11.7361    0.0000 P   0  0  0  0  0  0  0  0  0  0  0  0
    6.6248   13.1627    0.0000 O   0  0  0  0  0  0  0  0  0  0  0  0
    7.5879   11.2726    0.0000 O   0  0  0  0  0  0  0  0  0  0  0  0
    4.7347   12.1996    0.0000 O   0  0  0  0  0  0  0  0  0  0  0  0
    3.9187   11.4649    0.0000 O   0  0  0  0  0  0  0  0  0  0  0  0
   -2.3056    7.6651    0.0000 O   0  0  0  0  0  0  0  0  0  0  0  0
   -3.9373    4.8389    0.0000 O   0  0  0  0  0  0  0  0  0  0  0  0
   -1.5000   -2.5981    0.0000 N   0  0  0  0  0  0  0  0  0  0  0  0
  1  2  2  0
  2  3  1  0
  3  4  2  0
  4  5  1  0
  5  6  2  0
  5  7  1  0
  7  8  1  0
  8  9  2  0
 10  7  1  1
 10 11  1  0
 11 12  1  0
 12 13  1  0
 13 14  1  0
 13 15  1  1
 15 16  1  0
 16 17  1  0
 17 18  2  0
 17 19  1  6
 17 20  1  0
 20 21  1  0
 21 22  2  0
 21 23  1  0
 23 24  1  0
 24 25  2  0
 24 26  1  0
 24 27  1  0
 21 28  1  6
 12 29  1  6
 11 30  1  6
  3 31  1  0
  6  1  1  0
  9  4  1  0
 14 10  1  0
M  END
>  <Structure>  (72) 
4DH7

>  <Dataset>  (72) 
PDB

>  <Chain>  (72) 
A

>  <Spatial_Label>  (72) 
DFGin

>  <Dihedral_Label>  (72) 
BLAminus

>  <C_Helix_Label>  (72) 
Chelix-in

>  <Lig_ID>  (72) 
ANP

>  <Lig_Entity_ID>  (72) 
4DH7_4

>  <Lig_Name>  (72) 
PHOSPHOAMINOPHOSPHONIC ACID-ADENYLATE ESTER

>  <Lig_Formula>  (72) 
C10H17N6O12P3

>  <Lig_SMILES>  (72) 
c1nc(c2c(n1)n(cn2)[C@H]3[C@@H]([C@@H]([C@H](O3)CO[P@](=O)(O)O[P@@](=O)(NP(=O)(O)O)O)O)O)N

>  <Lig_MW>  (72) 
506.196

>  <Lig_ChEMBL_ID>  (72) 
['CHEMBL1230989']

>  <Lig_DrugBank_ID>  (72) 
nan

>  <Occurence>  (72) 
13.0

>  <Lig_SMILES_Uncharged>  (72) 
Nc1ncnc2c1ncn2[C@@H]1O[C@H](CO[P@](=O)(O)O[P@](=O)(O)NP(=O)(O)O)[C@@H](O)[C@H]1O

>  <Lig_Conformer>  (72) 
['NaN']

>  <Lig_Of_Interest>  (72) 
['Y']

>  <Lig_Completeness>  (72) 
[1.0]

>  <Lig_Occupancy>  (72) 
[1.0]

>  <Lig_RSCC>  (72) 
[0.968]

>  <Lig_RSR>  (72) 
[0.093]

>  <Lig_RMSZ_Bonds>  (72) 
[2.19]

>  <Lig_RMSZ_Angles>  (72) 
[1.45]

>  <Lig_Alt_Conf>  (72) 
0.0

>  <Title>  (72) 
Low temperature X-ray structure of cAMP dependent Protein Kinase A catalytic subunit with high Mg2+, AMP-PNP and IP20'

>  <Nonpolymer_Entity_Count>  (72) 
3.0

>  <Protein_Entity_Count>  (72) 
2.0

>  <Exp_Method>  (72) 
X-Ray Diffraction

>  <Cryst_Method>  (72) 
Vapor Diffusion, Sitting Drop; 50 Mm Mes (pH=6.5), 50 Mm Mg2Cl, 5 Mm Dtt And 12-15% Peg4000, Vapor Diffusion, Sitting Drop, Temperature 277K

>  <Deposit_Date>  (72) 
2012-01-27

>  <Resolution>  (72) 
1.8

>  <DOI>  (72) 
https://doi.org/10.1107/S0907444912014886

>  <Source_Organism>  (72) 
Mus musculus

>  <R_Free>  (72) 
0.194

>  <Keywords>  (72) 
Transferase/Transferase Inhibitor

>  <REMARK_280>  (72) 
 Crystal Solvent Content, Vs (%): 52.94 Matthews Coefficient, Vm (Angstroms**3/Da): 2.61 Crystallization Conditions: 50 Mm Mes (pH=6.5), 50 Mm Mg2Cl, 5 Mm Dtt And 12-15% Peg4000, Vapor Diffusion, Sitting Drop, Temperature 277K 

>  <REMARK_610>  (72) 
nan

>  <pH>  (72) 
6.5

>  <Cryst_Technique>  (72) 
co-crystallized

>  <Sequence>  (72) 
GNAAAAKKGSEQESVKEFLAKAKEDFLKKWETPSQNTAQLDQFDRIKTLGTGSFGRVMLVKHKESGNHYAMKILDKQKVVKLKQIEHTLNEKRILQAVNFPFLVKLEFSFKDNSNLYMVMEYVAGGEMFSHLRRIGRFSEPHARFYAAQIVLTFEYLHSLDLIYRDLKPENLLIDQQGYIQVTDFGFAKRVKGRTWTLCGTPEYLAPEIILSKGYNKAVDWWALGVLIYEMAAGYPPFFADQPIQIYEKIVSGKVRFPSHFSSDLKDLLRNLLQVDLTKRFGNLKNGVNDIKNHKWFATTDWIAIYQRKVEAPFIPKFKGPGDTSNFDDYEEEEIRVSINEKCGKEFTEF

>  <Sequence_Length>  (72) 
350.0

>  <Mutation_Count>  (72) 
0.0

>  <Gene_Name>  (72) 
PKACA

>  <MW>  (72) 
40.737

>  <Name>  (72) 
cAMP-Dependent Protein Kinase Catalytic Subunit Alpha

>  <Mutations>  (72) 
nan

>  <EC_Number>  (72) 
2.7.11.11

>  <Peptidic_Inhibitor>  (72) 
True

>  <Lig_Missing_Atoms>  (72) 
['No']

>  <PDBbind_Resolution>  (72) 
nan

>  <PDBbind_Release_Year>  (72) 
nan

>  <PDBbind_Comment>  (72) 
nan

>  <PDBbind_Uniprot_Id>  (72) 
nan

>  <PDBbind_Protein_Name>  (72) 
nan

>  <PDBbind_-Logkd/Ki>  (72) 
nan

>  <PDBbind_Kd/Ki>  (72) 
nan

>  <PDBbind_Kd_Or_Ki_Or_Ic50>  (72) 
nan

>  <PDBbind_Relation>  (72) 
nan

>  <PDBbind_Value>  (72) 
nan

>  <PDBbind_Unit>  (72) 
nan

>  <PDBbind_Standard_Value>  (72) 
nan

>  <PDBbind_Standard_Unit>  (72) 
nan

>  <PDB_Chain>  (72) 
['A']

>  <Num_Ligs>  (72) 
[1.0]

>  <Orthosteric>  (72) 
[1.0]

>  <Allosteric>  (72) 
[0.0]

>  <Pockets_Assigned>  (72) 
['A']

>  <Multisite>  (72) 
[False]

>  <Same_Number>  (72) 
True

>  <Same_Binding_Site>  (72) 
True

>  <Same_Orientation>  (72) 
True

>  <Lig_Order_in_.pdb>  (72) 
Orthosteric

$$$$

     RDKit          2D

 31 33  0  0  0  0  0  0  0  0999 V2000
    1.5000    0.0000    0.0000 C   0  0  0  0  0  0  0  0  0  0  0  0
    0.7500   -1.2990    0.0000 N   0  0  0  0  0  0  0  0  0  0  0  0
   -0.7500   -1.2990    0.0000 C   0  0  0  0  0  0  0  0  0  0  0  0
   -1.5000    0.0000    0.0000 C   0  0  0  0  0  0  0  0  0  0  0  0
   -0.7500    1.2990    0.0000 C   0  0  0  0  0  0  0  0  0  0  0  0
    0.7500    1.2990    0.0000 N   0  0  0  0  0  0  0  0  0  0  0  0
   -1.7537    2.4138    0.0000 N   0  0  0  0  0  0  0  0  0  0  0  0
   -3.1240    1.8037    0.0000 C   0  0  0  0  0  0  0  0  0  0  0  0
   -2.9672    0.3119    0.0000 N   0  0  0  0  0  0  0  0  0  0  0  0
   -1.4418    3.8810    0.0000 C   0  0  0  0  0  0  0  0  0  0  0  0
   -2.4455    4.9957    0.0000 C   0  0  0  0  0  0  0  0  0  0  0  0
   -1.6955    6.2947    0.0000 C   0  0  0  0  0  0  0  0  0  0  0  0
   -0.2283    5.9829    0.0000 C   0  0  0  0  0  0  0  0  0  0  0  0
   -0.0715    4.4911    0.0000 O   0  0  0  0  0  0  0  0  0  0  0  0
    0.8864    6.9866    0.0000 C   0  0  0  0  0  0  0  0  0  0  0  0
    2.3130    6.5230    0.0000 O   0  0  0  0  0  0  0  0  0  0  0  0
    3.4277    7.5267    0.0000 P   0  0  0  0  0  5  0  0  0  0  0  0
    2.4240    8.6414    0.0000 O   0  0  0  0  0  0  0  0  0  0  0  0
    4.4314    6.4120    0.0000 O   0  0  0  0  0  0  0  0  0  0  0  0
    4.5424    8.5304    0.0000 O   0  0  0  0  0  0  0  0  0  0  0  0
    4.2306    9.9976    0.0000 P   0  0  0  0  0  5  0  0  0  0  0  0
    2.7633    9.6858    0.0000 O   0  0  0  0  0  0  0  0  0  0  0  0
    5.6978   10.3095    0.0000 N   0  0  0  0  0  0  0  0  0  0  0  0
    6.1613   11.7361    0.0000 P   0  0  0  0  0  0  0  0  0  0  0  0
    6.6248   13.1627    0.0000 O   0  0  0  0  0  0  0  0  0  0  0  0
    7.5879   11.2726    0.0000 O   0  0  0  0  0  0  0  0  0  0  0  0
    4.7347   12.1996    0.0000 O   0  0  0  0  0  0  0  0  0  0  0  0
    3.9187   11.4649    0.0000 O   0  0  0  0  0  0  0  0  0  0  0  0
   -2.3056    7.6651    0.0000 O   0  0  0  0  0  0  0  0  0  0  0  0
   -3.9373    4.8389    0.0000 O   0  0  0  0  0  0  0  0  0  0  0  0
   -1.5000   -2.5981    0.0000 N   0  0  0  0  0  0  0  0  0  0  0  0
  1  2  2  0
  2  3  1  0
  3  4  2  0
  4  5  1  0
  5  6  2  0
  5  7  1  0
  7  8  1  0
  8  9  2  0
 10  7  1  1
 10 11  1  0
 11 12  1  0
 12 13  1  0
 13 14  1  0
 13 15  1  1
 15 16  1  0
 16 17  1  0
 17 18  2  0
 17 19  1  6
 17 20  1  0
 20 21  1  0
 21 22  2  0
 21 23  1  0
 23 24  1  0
 24 25  2  0
 24 26  1  0
 24 27  1  0
 21 28  1  6
 12 29  1  6
 11 30  1  6
  3 31  1  0
  6  1  1  0
  9  4  1  0
 14 10  1  0
M  END
>  <Structure>  (73) 
4DH8

>  <Dataset>  (73) 
PDB

>  <Chain>  (73) 
A

>  <Spatial_Label>  (73) 
DFGin

>  <Dihedral_Label>  (73) 
BLAminus

>  <C_Helix_Label>  (73) 
Chelix-in

>  <Lig_ID>  (73) 
ANP

>  <Lig_Entity_ID>  (73) 
4DH8_4

>  <Lig_Name>  (73) 
PHOSPHOAMINOPHOSPHONIC ACID-ADENYLATE ESTER

>  <Lig_Formula>  (73) 
C10H17N6O12P3

>  <Lig_SMILES>  (73) 
c1nc(c2c(n1)n(cn2)[C@H]3[C@@H]([C@@H]([C@H](O3)CO[P@](=O)(O)O[P@@](=O)(NP(=O)(O)O)O)O)O)N

>  <Lig_MW>  (73) 
506.196

>  <Lig_ChEMBL_ID>  (73) 
['CHEMBL1230989']

>  <Lig_DrugBank_ID>  (73) 
nan

>  <Occurence>  (73) 
13.0

>  <Lig_SMILES_Uncharged>  (73) 
Nc1ncnc2c1ncn2[C@@H]1O[C@H](CO[P@](=O)(O)O[P@](=O)(O)NP(=O)(O)O)[C@@H](O)[C@H]1O

>  <Lig_Conformer>  (73) 
['NaN']

>  <Lig_Of_Interest>  (73) 
['Y']

>  <Lig_Completeness>  (73) 
[1.0]

>  <Lig_Occupancy>  (73) 
[1.0]

>  <Lig_RSCC>  (73) 
[0.978]

>  <Lig_RSR>  (73) 
[0.088]

>  <Lig_RMSZ_Bonds>  (73) 
[2.19]

>  <Lig_RMSZ_Angles>  (73) 
[1.44]

>  <Lig_Alt_Conf>  (73) 
0.0

>  <Title>  (73) 
Room temperature X-ray structure of cAMP dependent Protein Kinase A catalytic subunit with high Mg2+, AMP-PNP and IP20

>  <Nonpolymer_Entity_Count>  (73) 
3.0

>  <Protein_Entity_Count>  (73) 
2.0

>  <Exp_Method>  (73) 
X-Ray Diffraction

>  <Cryst_Method>  (73) 
Vapor Diffusion, Sitting Drop; 50 Mm Mes (pH=6.5), 50 Mm Mg2Cl, 5 Mm Dtt And 12-15% Peg4000, Vapor Diffusion, Sitting Drop, Temperature 277K

>  <Deposit_Date>  (73) 
2012-01-27

>  <Resolution>  (73) 
2.3

>  <DOI>  (73) 
https://doi.org/10.1107/S0907444912014886

>  <Source_Organism>  (73) 
Mus musculus

>  <R_Free>  (73) 
0.188

>  <Keywords>  (73) 
Transferase/Transferase Inhibitor

>  <REMARK_280>  (73) 
 Crystal Solvent Content, Vs (%): 55.03 Matthews Coefficient, Vm (Angstroms**3/Da): 2.74 Crystallization Conditions: 50 Mm Mes (pH=6.5), 50 Mm Mg2Cl, 5 Mm Dtt And 12-15% Peg4000, Vapor Diffusion, Sitting Drop, Temperature 277K 

>  <REMARK_610>  (73) 
nan

>  <pH>  (73) 
6.5

>  <Cryst_Technique>  (73) 
co-crystallized

>  <Sequence>  (73) 
GNAAAAKKGSEQESVKEFLAKAKEDFLKKWETPSQNTAQLDQFDRIKTLGTGSFGRVMLVKHKESGNHYAMKILDKQKVVKLKQIEHTLNEKRILQAVNFPFLVKLEFSFKDNSNLYMVMEYVAGGEMFSHLRRIGRFSEPHARFYAAQIVLTFEYLHSLDLIYRDLKPENLLIDQQGYIQVTDFGFAKRVKGRTWTLCGTPEYLAPEIILSKGYNKAVDWWALGVLIYEMAAGYPPFFADQPIQIYEKIVSGKVRFPSHFSSDLKDLLRNLLQVDLTKRFGNLKNGVNDIKNHKWFATTDWIAIYQRKVEAPFIPKFKGPGDTSNFDDYEEEEIRVSINEKCGKEFTEF

>  <Sequence_Length>  (73) 
350.0

>  <Mutation_Count>  (73) 
0.0

>  <Gene_Name>  (73) 
PKACA

>  <MW>  (73) 
40.737

>  <Name>  (73) 
cAMP-Dependent Protein Kinase Catalytic Subunit Alpha

>  <Mutations>  (73) 
nan

>  <EC_Number>  (73) 
2.7.11.11

>  <Peptidic_Inhibitor>  (73) 
True

>  <Lig_Missing_Atoms>  (73) 
['No']

>  <PDBbind_Resolution>  (73) 
nan

>  <PDBbind_Release_Year>  (73) 
nan

>  <PDBbind_Comment>  (73) 
nan

>  <PDBbind_Uniprot_Id>  (73) 
nan

>  <PDBbind_Protein_Name>  (73) 
nan

>  <PDBbind_-Logkd/Ki>  (73) 
nan

>  <PDBbind_Kd/Ki>  (73) 
nan

>  <PDBbind_Kd_Or_Ki_Or_Ic50>  (73) 
nan

>  <PDBbind_Relation>  (73) 
nan

>  <PDBbind_Value>  (73) 
nan

>  <PDBbind_Unit>  (73) 
nan

>  <PDBbind_Standard_Value>  (73) 
nan

>  <PDBbind_Standard_Unit>  (73) 
nan

>  <PDB_Chain>  (73) 
['A']

>  <Num_Ligs>  (73) 
[1.0]

>  <Orthosteric>  (73) 
[1.0]

>  <Allosteric>  (73) 
[0.0]

>  <Pockets_Assigned>  (73) 
['A']

>  <Multisite>  (73) 
[False]

>  <Same_Number>  (73) 
True

>  <Same_Binding_Site>  (73) 
True

>  <Same_Orientation>  (73) 
True

>  <Lig_Order_in_.pdb>  (73) 
Orthosteric

$$$$

     RDKit          2D

 31 33  0  0  0  0  0  0  0  0999 V2000
    1.5000    0.0000    0.0000 C   0  0  0  0  0  0  0  0  0  0  0  0
    0.7500   -1.2990    0.0000 N   0  0  0  0  0  0  0  0  0  0  0  0
   -0.7500   -1.2990    0.0000 C   0  0  0  0  0  0  0  0  0  0  0  0
   -1.5000    0.0000    0.0000 C   0  0  0  0  0  0  0  0  0  0  0  0
   -0.7500    1.2990    0.0000 C   0  0  0  0  0  0  0  0  0  0  0  0
    0.7500    1.2990    0.0000 N   0  0  0  0  0  0  0  0  0  0  0  0
   -1.7537    2.4138    0.0000 N   0  0  0  0  0  0  0  0  0  0  0  0
   -3.1240    1.8037    0.0000 C   0  0  0  0  0  0  0  0  0  0  0  0
   -2.9672    0.3119    0.0000 N   0  0  0  0  0  0  0  0  0  0  0  0
   -1.4418    3.8810    0.0000 C   0  0  0  0  0  0  0  0  0  0  0  0
   -2.4455    4.9957    0.0000 C   0  0  0  0  0  0  0  0  0  0  0  0
   -1.6955    6.2947    0.0000 C   0  0  0  0  0  0  0  0  0  0  0  0
   -0.2283    5.9829    0.0000 C   0  0  0  0  0  0  0  0  0  0  0  0
   -0.0715    4.4911    0.0000 O   0  0  0  0  0  0  0  0  0  0  0  0
    0.8864    6.9866    0.0000 C   0  0  0  0  0  0  0  0  0  0  0  0
    2.3130    6.5230    0.0000 O   0  0  0  0  0  0  0  0  0  0  0  0
    3.4277    7.5267    0.0000 P   0  0  0  0  0  5  0  0  0  0  0  0
    2.4240    8.6414    0.0000 O   0  0  0  0  0  0  0  0  0  0  0  0
    4.4314    6.4120    0.0000 O   0  0  0  0  0  0  0  0  0  0  0  0
    4.5424    8.5304    0.0000 O   0  0  0  0  0  0  0  0  0  0  0  0
    4.2306    9.9976    0.0000 P   0  0  0  0  0  5  0  0  0  0  0  0
    2.7633    9.6858    0.0000 O   0  0  0  0  0  0  0  0  0  0  0  0
    5.6978   10.3095    0.0000 N   0  0  0  0  0  0  0  0  0  0  0  0
    6.1613   11.7361    0.0000 P   0  0  0  0  0  0  0  0  0  0  0  0
    6.6248   13.1627    0.0000 O   0  0  0  0  0  0  0  0  0  0  0  0
    7.5879   11.2726    0.0000 O   0  0  0  0  0  0  0  0  0  0  0  0
    4.7347   12.1996    0.0000 O   0  0  0  0  0  0  0  0  0  0  0  0
    3.9187   11.4649    0.0000 O   0  0  0  0  0  0  0  0  0  0  0  0
   -2.3056    7.6651    0.0000 O   0  0  0  0  0  0  0  0  0  0  0  0
   -3.9373    4.8389    0.0000 O   0  0  0  0  0  0  0  0  0  0  0  0
   -1.5000   -2.5981    0.0000 N   0  0  0  0  0  0  0  0  0  0  0  0
  1  2  2  0
  2  3  1  0
  3  4  2  0
  4  5  1  0
  5  6  2  0
  5  7  1  0
  7  8  1  0
  8  9  2  0
 10  7  1  1
 10 11  1  0
 11 12  1  0
 12 13  1  0
 13 14  1  0
 13 15  1  1
 15 16  1  0
 16 17  1  0
 17 18  2  0
 17 19  1  6
 17 20  1  0
 20 21  1  0
 21 22  2  0
 21 23  1  0
 23 24  1  0
 24 25  2  0
 24 26  1  0
 24 27  1  0
 21 28  1  6
 12 29  1  6
 11 30  1  6
  3 31  1  0
  6  1  1  0
  9  4  1  0
 14 10  1  0
M  END
>  <Structure>  (74) 
4HPT

>  <Dataset>  (74) 
PDB

>  <Chain>  (74) 
E

>  <Spatial_Label>  (74) 
DFGin

>  <Dihedral_Label>  (74) 
BLAminus

>  <C_Helix_Label>  (74) 
Chelix-in

>  <Lig_ID>  (74) 
ANP

>  <Lig_Entity_ID>  (74) 
4HPT_3

>  <Lig_Name>  (74) 
PHOSPHOAMINOPHOSPHONIC ACID-ADENYLATE ESTER

>  <Lig_Formula>  (74) 
C10H17N6O12P3

>  <Lig_SMILES>  (74) 
c1nc(c2c(n1)n(cn2)[C@H]3[C@@H]([C@@H]([C@H](O3)CO[P@](=O)(O)O[P@@](=O)(NP(=O)(O)O)O)O)O)N

>  <Lig_MW>  (74) 
506.196

>  <Lig_ChEMBL_ID>  (74) 
['CHEMBL1230989']

>  <Lig_DrugBank_ID>  (74) 
nan

>  <Occurence>  (74) 
13.0

>  <Lig_SMILES_Uncharged>  (74) 
Nc1ncnc2c1ncn2[C@@H]1O[C@H](CO[P@](=O)(O)O[P@](=O)(O)NP(=O)(O)O)[C@@H](O)[C@H]1O

>  <Lig_Conformer>  (74) 
['NaN']

>  <Lig_Of_Interest>  (74) 
['Y']

>  <Lig_Completeness>  (74) 
[0.871]

>  <Lig_Occupancy>  (74) 
[0.871]

>  <Lig_RSCC>  (74) 
[0.979]

>  <Lig_RSR>  (74) 
[0.088]

>  <Lig_RMSZ_Bonds>  (74) 
[1.39]

>  <Lig_RMSZ_Angles>  (74) 
[1.48]

>  <Lig_Alt_Conf>  (74) 
0.0

>  <Title>  (74) 
Crystal structure of the catalytic subunit of cAMP-dependent protein kinase displaying complete phosphoryl transfer of AMP-PNP onto a substrate peptide

>  <Nonpolymer_Entity_Count>  (74) 
3.0

>  <Protein_Entity_Count>  (74) 
2.0

>  <Exp_Method>  (74) 
X-Ray Diffraction

>  <Cryst_Method>  (74) 
Vapor Diffusion, Hanging Drop; Protein Buffer: 50 Mm Bicine, 150 Mm Ammonium Acetate, 10 Mm Dtt, ~7-10 Mg/Ml Protein   
   
Well Solution: 1 Ml Of 2% Mpd, 80 Ul Methanol Added To The Well Immediately Before Sealing   
   
8 Ul Drops Of 1:1 Protein:Well Were Used., Vapor Diffusion, Hanging Drop, Temperature 277.15K, pH 8.0

>  <Deposit_Date>  (74) 
2012-10-24

>  <Resolution>  (74) 
2.15

>  <DOI>  (74) 
https://doi.org/10.1021/ja312237q

>  <Source_Organism>  (74) 
Mus musculus

>  <R_Free>  (74) 
0.22797

>  <Keywords>  (74) 
Transferase/Transferase Inhibitor

>  <REMARK_280>  (74) 
 Crystal Solvent Content, Vs (%): 53.37 Matthews Coefficient, Vm (Angstroms**3/Da): 2.64 Crystallization Conditions: Protein Buffer: 50 Mm Bicine, 150 Mm Ammonium Acetate, 10 Mm Dtt, ~7-10 Mg/Ml Protein Well Solution: 1 Ml Of 2% Mpd, 80 Ul Methanol Added To The Well Immediately Before Sealing 8 Ul Drops Of 1:1 Protein:Well Were Used., Vapor Diffusion, Hanging Drop, Temperature 277.15K, pH 8.0 

>  <REMARK_610>  (74) 
nan

>  <pH>  (74) 
8.0

>  <Cryst_Technique>  (74) 
co-crystallized

>  <Sequence>  (74) 
GNAAAAKKGSEQESVKEFLAKAKEDFLKKWETPSQNTAQLDQFDRIKTLGTGSFGRVMLVKHKESGNHYAMKILDKQKVVKLKQIEHTLNEKRILQAVNFPFLVKLEFSFKDNSNLYMVMEYVAGGEMFSHLRRIGRFSEPHARFYAAQIVLTFEYLHSLDLIYRDLKPENLLIDQQGYIQVTDFGFAKRVKGRTWTLCGTPEYLAPEIILSKGYNKAVDWWALGVLIYEMAAGYPPFFADQPIQIYEKIVSGKVRFPSHFSSDLKDLLRNLLQVDLTKRFGNLKNGVNDIKNHKWFATTDWIAIYQRKVEAPFIPKFKGPGDTSNFDDYEEEEIRVSINEKCGKEFTEF

>  <Sequence_Length>  (74) 
350.0

>  <Mutation_Count>  (74) 
0.0

>  <Gene_Name>  (74) 
PKACA

>  <MW>  (74) 
40.657

>  <Name>  (74) 
cAMP-Dependent Protein Kinase Catalytic Subunit Alpha

>  <Mutations>  (74) 
nan

>  <EC_Number>  (74) 
2.7.11.11

>  <Peptidic_Inhibitor>  (74) 
True

>  <Lig_Missing_Atoms>  (74) 
['No']

>  <PDBbind_Resolution>  (74) 
nan

>  <PDBbind_Release_Year>  (74) 
nan

>  <PDBbind_Comment>  (74) 
nan

>  <PDBbind_Uniprot_Id>  (74) 
nan

>  <PDBbind_Protein_Name>  (74) 
nan

>  <PDBbind_-Logkd/Ki>  (74) 
nan

>  <PDBbind_Kd/Ki>  (74) 
nan

>  <PDBbind_Kd_Or_Ki_Or_Ic50>  (74) 
nan

>  <PDBbind_Relation>  (74) 
nan

>  <PDBbind_Value>  (74) 
nan

>  <PDBbind_Unit>  (74) 
nan

>  <PDBbind_Standard_Value>  (74) 
nan

>  <PDBbind_Standard_Unit>  (74) 
nan

>  <PDB_Chain>  (74) 
['E']

>  <Num_Ligs>  (74) 
[1.0]

>  <Orthosteric>  (74) 
[1.0]

>  <Allosteric>  (74) 
[0.0]

>  <Pockets_Assigned>  (74) 
['A']

>  <Multisite>  (74) 
[False]

>  <Same_Number>  (74) 
True

>  <Same_Binding_Site>  (74) 
True

>  <Same_Orientation>  (74) 
True

>  <Lig_Order_in_.pdb>  (74) 
Orthosteric

$$$$

     RDKit          2D

 31 33  0  0  0  0  0  0  0  0999 V2000
    1.5000    0.0000    0.0000 C   0  0  0  0  0  0  0  0  0  0  0  0
    0.7500   -1.2990    0.0000 N   0  0  0  0  0  0  0  0  0  0  0  0
   -0.7500   -1.2990    0.0000 C   0  0  0  0  0  0  0  0  0  0  0  0
   -1.5000    0.0000    0.0000 C   0  0  0  0  0  0  0  0  0  0  0  0
   -0.7500    1.2990    0.0000 C   0  0  0  0  0  0  0  0  0  0  0  0
    0.7500    1.2990    0.0000 N   0  0  0  0  0  0  0  0  0  0  0  0
   -1.7537    2.4138    0.0000 N   0  0  0  0  0  0  0  0  0  0  0  0
   -3.1240    1.8037    0.0000 C   0  0  0  0  0  0  0  0  0  0  0  0
   -2.9672    0.3119    0.0000 N   0  0  0  0  0  0  0  0  0  0  0  0
   -1.4418    3.8810    0.0000 C   0  0  0  0  0  0  0  0  0  0  0  0
   -2.4455    4.9957    0.0000 C   0  0  0  0  0  0  0  0  0  0  0  0
   -1.6955    6.2947    0.0000 C   0  0  0  0  0  0  0  0  0  0  0  0
   -0.2283    5.9829    0.0000 C   0  0  0  0  0  0  0  0  0  0  0  0
   -0.0715    4.4911    0.0000 O   0  0  0  0  0  0  0  0  0  0  0  0
    0.8864    6.9866    0.0000 C   0  0  0  0  0  0  0  0  0  0  0  0
    2.3130    6.5230    0.0000 O   0  0  0  0  0  0  0  0  0  0  0  0
    3.4277    7.5267    0.0000 P   0  0  0  0  0  5  0  0  0  0  0  0
    2.4240    8.6414    0.0000 O   0  0  0  0  0  0  0  0  0  0  0  0
    4.4314    6.4120    0.0000 O   0  0  0  0  0  0  0  0  0  0  0  0
    4.5424    8.5304    0.0000 O   0  0  0  0  0  0  0  0  0  0  0  0
    4.2306    9.9976    0.0000 P   0  0  0  0  0  5  0  0  0  0  0  0
    2.7633    9.6858    0.0000 O   0  0  0  0  0  0  0  0  0  0  0  0
    5.6978   10.3095    0.0000 N   0  0  0  0  0  0  0  0  0  0  0  0
    6.1613   11.7361    0.0000 P   0  0  0  0  0  0  0  0  0  0  0  0
    6.6248   13.1627    0.0000 O   0  0  0  0  0  0  0  0  0  0  0  0
    7.5879   11.2726    0.0000 O   0  0  0  0  0  0  0  0  0  0  0  0
    4.7347   12.1996    0.0000 O   0  0  0  0  0  0  0  0  0  0  0  0
    3.9187   11.4649    0.0000 O   0  0  0  0  0  0  0  0  0  0  0  0
   -2.3056    7.6651    0.0000 O   0  0  0  0  0  0  0  0  0  0  0  0
   -3.9373    4.8389    0.0000 O   0  0  0  0  0  0  0  0  0  0  0  0
   -1.5000   -2.5981    0.0000 N   0  0  0  0  0  0  0  0  0  0  0  0
  1  2  2  0
  2  3  1  0
  3  4  2  0
  4  5  1  0
  5  6  2  0
  5  7  1  0
  7  8  1  0
  8  9  2  0
 10  7  1  1
 10 11  1  0
 11 12  1  0
 12 13  1  0
 13 14  1  0
 13 15  1  1
 15 16  1  0
 16 17  1  0
 17 18  2  0
 17 19  1  6
 17 20  1  0
 20 21  1  0
 21 22  2  0
 21 23  1  0
 23 24  1  0
 24 25  2  0
 24 26  1  0
 24 27  1  0
 21 28  1  6
 12 29  1  6
 11 30  1  6
  3 31  1  0
  6  1  1  0
  9  4  1  0
 14 10  1  0
M  END
>  <Structure>  (75) 
4HPU

>  <Dataset>  (75) 
PDB

>  <Chain>  (75) 
E

>  <Spatial_Label>  (75) 
DFGin

>  <Dihedral_Label>  (75) 
BLAminus

>  <C_Helix_Label>  (75) 
Chelix-in

>  <Lig_ID>  (75) 
ANP

>  <Lig_Entity_ID>  (75) 
4HPU_4

>  <Lig_Name>  (75) 
PHOSPHOAMINOPHOSPHONIC ACID-ADENYLATE ESTER

>  <Lig_Formula>  (75) 
C10H17N6O12P3

>  <Lig_SMILES>  (75) 
c1nc(c2c(n1)n(cn2)[C@H]3[C@@H]([C@@H]([C@H](O3)CO[P@](=O)(O)O[P@@](=O)(NP(=O)(O)O)O)O)O)N

>  <Lig_MW>  (75) 
506.196

>  <Lig_ChEMBL_ID>  (75) 
['CHEMBL1230989']

>  <Lig_DrugBank_ID>  (75) 
nan

>  <Occurence>  (75) 
13.0

>  <Lig_SMILES_Uncharged>  (75) 
Nc1ncnc2c1ncn2[C@@H]1O[C@H](CO[P@](=O)(O)O[P@](=O)(O)NP(=O)(O)O)[C@@H](O)[C@H]1O

>  <Lig_Conformer>  (75) 
['A', 'B']

>  <Lig_Of_Interest>  (75) 
['Y', 'Y']

>  <Lig_Completeness>  (75) 
[0.871, 1.0]

>  <Lig_Occupancy>  (75) 
[0.3919, 0.55]

>  <Lig_RSCC>  (75) 
[0.982, 0.98]

>  <Lig_RSR>  (75) 
[0.069, 0.069]

>  <Lig_RMSZ_Bonds>  (75) 
[1.18, 1.38]

>  <Lig_RMSZ_Angles>  (75) 
[1.38, 1.48]

>  <Lig_Alt_Conf>  (75) 
2.0

>  <Title>  (75) 
Crystal structure of the catalytic subunit of cAMP-dependent protein kinase displaying partial phosphoryl transfer of AMP-PNP onto a substrate peptide

>  <Nonpolymer_Entity_Count>  (75) 
5.0

>  <Protein_Entity_Count>  (75) 
2.0

>  <Exp_Method>  (75) 
X-Ray Diffraction

>  <Cryst_Method>  (75) 
Vapor Diffusion, Hanging Drop; 50 Mm Bicine, 150 Mm Ammonium Acetate, 10 Mm Dtt, ~7-10 Mg/Ml Protein   
   
Well Solution: 2% Mpd In A 1 Ml Well. 80 Ul Of Methanol Was Added To The Well Immediately Before Sealing.   
   
Drop Was 8 Ul Of 1:1 Protein:Well, Vapor Diffusion, Hanging Drop, Temperature 277.15K, pH 8.0

>  <Deposit_Date>  (75) 
2012-10-24

>  <Resolution>  (75) 
1.55

>  <DOI>  (75) 
https://doi.org/10.1021/ja312237q

>  <Source_Organism>  (75) 
Mus musculus

>  <R_Free>  (75) 
0.19448

>  <Keywords>  (75) 
Transferase/Transferase Inhibitor

>  <REMARK_280>  (75) 
 Crystal Solvent Content, Vs (%): 53.16 Matthews Coefficient, Vm (Angstroms**3/Da): 2.63 Crystallization Conditions: 50 Mm Bicine, 150 Mm Ammonium Acetate, 10 Mm Dtt, ~7-10 Mg/Ml Protein Well Solution: 2% Mpd In A 1 Ml Well. 80 Ul Of Methanol Was Added To The Well Immediately Before Sealing. Drop Was 8 Ul Of 1:1 Protein:Well, Vapor Diffusion, Hanging Drop, Temperature 277.15K, pH 8.0 

>  <REMARK_610>  (75) 
  MYR E 401 

>  <pH>  (75) 
8.0

>  <Cryst_Technique>  (75) 
co-crystallized

>  <Sequence>  (75) 
GNAAAAKKGSEQESVKEFLAKAKEDFLKKWETPSQNTAQLDQFDRIKTLGTGSFGRVMLVKHKESGNHYAMKILDKQKVVKLKQIEHTLNEKRILQAVNFPFLVKLEFSFKDNSNLYMVMEYVAGGEMFSHLRRIGRFSEPHARFYAAQIVLTFEYLHSLDLIYRDLKPENLLIDQQGYIQVTDFGFAKRVKGRTWTLCGTPEYLAPEIILSKGYNKAVDWWALGVLIYEMAAGYPPFFADQPIQIYEKIVSGKVRFPSHFSSDLKDLLRNLLQVDLTKRFGNLKNGVNDIKNHKWFATTDWIAIYQRKVEAPFIPKFKGPGDTSNFDDYEEEEIRVSINEKCGKEFTEF

>  <Sequence_Length>  (75) 
350.0

>  <Mutation_Count>  (75) 
0.0

>  <Gene_Name>  (75) 
PKACA

>  <MW>  (75) 
40.737

>  <Name>  (75) 
cAMP-Dependent Protein Kinase Catalytic Subunit Alpha

>  <Mutations>  (75) 
nan

>  <EC_Number>  (75) 
2.7.11.11

>  <Peptidic_Inhibitor>  (75) 
True

>  <Lig_Missing_Atoms>  (75) 
['No', 'No']

>  <PDBbind_Resolution>  (75) 
nan

>  <PDBbind_Release_Year>  (75) 
nan

>  <PDBbind_Comment>  (75) 
nan

>  <PDBbind_Uniprot_Id>  (75) 
nan

>  <PDBbind_Protein_Name>  (75) 
nan

>  <PDBbind_-Logkd/Ki>  (75) 
nan

>  <PDBbind_Kd/Ki>  (75) 
nan

>  <PDBbind_Kd_Or_Ki_Or_Ic50>  (75) 
nan

>  <PDBbind_Relation>  (75) 
nan

>  <PDBbind_Value>  (75) 
nan

>  <PDBbind_Unit>  (75) 
nan

>  <PDBbind_Standard_Value>  (75) 
nan

>  <PDBbind_Standard_Unit>  (75) 
nan

>  <PDB_Chain>  (75) 
['E', 'I']

>  <Num_Ligs>  (75) 
[1.0, 1.0]

>  <Orthosteric>  (75) 
[1.0, 1.0]

>  <Allosteric>  (75) 
[0.0, 0.0]

>  <Pockets_Assigned>  (75) 
['A', 'A']

>  <Multisite>  (75) 
[False, False]

>  <Same_Number>  (75) 
True

>  <Same_Binding_Site>  (75) 
True

>  <Same_Orientation>  (75) 
True

>  <Lig_Order_in_.pdb>  (75) 
Orthosteric; Orthosteric

$$$$

     RDKit          2D

 31 33  0  0  0  0  0  0  0  0999 V2000
    1.5000    0.0000    0.0000 C   0  0  0  0  0  0  0  0  0  0  0  0
    0.7500   -1.2990    0.0000 N   0  0  0  0  0  0  0  0  0  0  0  0
   -0.7500   -1.2990    0.0000 C   0  0  0  0  0  0  0  0  0  0  0  0
   -1.5000    0.0000    0.0000 C   0  0  0  0  0  0  0  0  0  0  0  0
   -0.7500    1.2990    0.0000 C   0  0  0  0  0  0  0  0  0  0  0  0
    0.7500    1.2990    0.0000 N   0  0  0  0  0  0  0  0  0  0  0  0
   -1.7537    2.4138    0.0000 N   0  0  0  0  0  0  0  0  0  0  0  0
   -3.1240    1.8037    0.0000 C   0  0  0  0  0  0  0  0  0  0  0  0
   -2.9672    0.3119    0.0000 N   0  0  0  0  0  0  0  0  0  0  0  0
   -1.4418    3.8810    0.0000 C   0  0  0  0  0  0  0  0  0  0  0  0
   -2.4455    4.9957    0.0000 C   0  0  0  0  0  0  0  0  0  0  0  0
   -1.6955    6.2947    0.0000 C   0  0  0  0  0  0  0  0  0  0  0  0
   -0.2283    5.9829    0.0000 C   0  0  0  0  0  0  0  0  0  0  0  0
   -0.0715    4.4911    0.0000 O   0  0  0  0  0  0  0  0  0  0  0  0
    0.8864    6.9866    0.0000 C   0  0  0  0  0  0  0  0  0  0  0  0
    2.3130    6.5230    0.0000 O   0  0  0  0  0  0  0  0  0  0  0  0
    3.4277    7.5267    0.0000 P   0  0  0  0  0  5  0  0  0  0  0  0
    2.4240    8.6414    0.0000 O   0  0  0  0  0  0  0  0  0  0  0  0
    4.4314    6.4120    0.0000 O   0  0  0  0  0  0  0  0  0  0  0  0
    4.5424    8.5304    0.0000 O   0  0  0  0  0  0  0  0  0  0  0  0
    4.2306    9.9976    0.0000 P   0  0  0  0  0  5  0  0  0  0  0  0
    2.7633    9.6858    0.0000 O   0  0  0  0  0  0  0  0  0  0  0  0
    5.6978   10.3095    0.0000 C   0  0  0  0  0  0  0  0  0  0  0  0
    6.1613   11.7361    0.0000 P   0  0  0  0  0  0  0  0  0  0  0  0
    6.6248   13.1627    0.0000 O   0  0  0  0  0  0  0  0  0  0  0  0
    7.5879   11.2726    0.0000 O   0  0  0  0  0  0  0  0  0  0  0  0
    4.7347   12.1996    0.0000 O   0  0  0  0  0  0  0  0  0  0  0  0
    3.9187   11.4649    0.0000 O   0  0  0  0  0  0  0  0  0  0  0  0
   -2.3056    7.6651    0.0000 O   0  0  0  0  0  0  0  0  0  0  0  0
   -3.9373    4.8389    0.0000 O   0  0  0  0  0  0  0  0  0  0  0  0
   -1.5000   -2.5981    0.0000 N   0  0  0  0  0  0  0  0  0  0  0  0
  1  2  2  0
  2  3  1  0
  3  4  2  0
  4  5  1  0
  5  6  2  0
  5  7  1  0
  7  8  1  0
  8  9  2  0
 10  7  1  1
 10 11  1  0
 11 12  1  0
 12 13  1  0
 13 14  1  0
 13 15  1  1
 15 16  1  0
 16 17  1  0
 17 18  2  0
 17 19  1  1
 17 20  1  0
 20 21  1  0
 21 22  2  0
 21 23  1  0
 23 24  1  0
 24 25  2  0
 24 26  1  0
 24 27  1  0
 21 28  1  1
 12 29  1  6
 11 30  1  6
  3 31  1  0
  6  1  1  0
  9  4  1  0
 14 10  1  0
M  END
>  <Structure>  (76) 
4IAC

>  <Dataset>  (76) 
PDB

>  <Chain>  (76) 
A

>  <Spatial_Label>  (76) 
DFGin

>  <Dihedral_Label>  (76) 
BLAminus

>  <C_Helix_Label>  (76) 
Chelix-in

>  <Lig_ID>  (76) 
ACP

>  <Lig_Entity_ID>  (76) 
4IAC_4

>  <Lig_Name>  (76) 
PHOSPHOMETHYLPHOSPHONIC ACID ADENYLATE ESTER

>  <Lig_Formula>  (76) 
C11H18N5O12P3

>  <Lig_SMILES>  (76) 
c1nc(c2c(n1)n(cn2)[C@H]3[C@@H]([C@@H]([C@H](O3)CO[P@@](=O)(O)O[P@](=O)(CP(=O)(O)O)O)O)O)N

>  <Lig_MW>  (76) 
505.208

>  <Lig_ChEMBL_ID>  (76) 
['CHEMBL133463']

>  <Lig_DrugBank_ID>  (76) 
['DB03909']

>  <Occurence>  (76) 
1.0

>  <Lig_SMILES_Uncharged>  (76) 
Nc1ncnc2c1ncn2[C@@H]1O[C@H](CO[P@@](=O)(O)O[P@@](=O)(O)CP(=O)(O)O)[C@@H](O)[C@H]1O

>  <Lig_Conformer>  (76) 
['NaN']

>  <Lig_Of_Interest>  (76) 
['Y']

>  <Lig_Completeness>  (76) 
[1.0]

>  <Lig_Occupancy>  (76) 
[1.0]

>  <Lig_RSCC>  (76) 
[0.975]

>  <Lig_RSR>  (76) 
[0.093]

>  <Lig_RMSZ_Bonds>  (76) 
[1.64]

>  <Lig_RMSZ_Angles>  (76) 
[1.45]

>  <Lig_Alt_Conf>  (76) 
0.0

>  <Title>  (76) 
X-RAY structure of cAMP dependent protein kinase A in complex with HIGH MG2+ concentration, AMP-PCP AND pseudo-substrate peptide SP20

>  <Nonpolymer_Entity_Count>  (76) 
3.0

>  <Protein_Entity_Count>  (76) 
2.0

>  <Exp_Method>  (76) 
X-Ray Diffraction

>  <Cryst_Method>  (76) 
Vapor Diffusion, Sitting Drop; 100 Mm Mes pH 6.5, 5 Mm Dtt, 15-20% Peg 4000, Vapor Diffusion, Sitting Drop, Temperature 277K

>  <Deposit_Date>  (76) 
2012-12-06

>  <Resolution>  (76) 
2.15

>  <DOI>  (76) 
https://doi.org/10.1021/bi400066a

>  <Source_Organism>  (76) 
Mus musculus

>  <R_Free>  (76) 
0.2118

>  <Keywords>  (76) 
Transferase/Peptide

>  <REMARK_280>  (76) 
 Crystal Solvent Content, Vs (%): 51.43 Matthews Coefficient, Vm (Angstroms**3/Da): 2.53 Crystallization Conditions: 100 Mm Mes pH 6.5, 5 Mm Dtt, 15-20% Peg 4000, Vapor Diffusion, Sitting Drop, Temperature 277K 

>  <REMARK_610>  (76) 
nan

>  <pH>  (76) 
6.5

>  <Cryst_Technique>  (76) 
co-crystallized

>  <Sequence>  (76) 
HHHHHHGNAAAAKKGSEQESVKEFLAKAKEDFLKKWETPSQNTAQLDQFDRIKTLGTGSFGRVMLVKHKESGNHYAMKILDKQKVVKLKQIEHTLNEKRILQAVNFPFLVKLEFSFKDNSNLYMVMEYVAGGEMFSHLRRIGRFSEPHARFYAAQIVLTFEYLHSLDLIYRDLKPENLLIDQQGYIQVTDFGFAKRVKGRTWTLCGTPEYLAPEIILSKGYNKAVDWWALGVLIYEMAAGYPPFFADQPIQIYEKIVSGKVRFPSHFSSDLKDLLRNLLQVDLTKRFGNLKNGVNDIKNHKWFATTDWIAIYQRKVEAPFIPKFKGPGDTSNFDDYEEEEIRVSINEKCGKEFTEF

>  <Sequence_Length>  (76) 
356.0

>  <Mutation_Count>  (76) 
0.0

>  <Gene_Name>  (76) 
PKACA

>  <MW>  (76) 
41.566

>  <Name>  (76) 
cAMP-Dependent Protein Kinase Catalytic Subunit Alpha

>  <Mutations>  (76) 
nan

>  <EC_Number>  (76) 
2.7.11.11

>  <Peptidic_Inhibitor>  (76) 
True

>  <Lig_Missing_Atoms>  (76) 
['No']

>  <PDBbind_Resolution>  (76) 
nan

>  <PDBbind_Release_Year>  (76) 
nan

>  <PDBbind_Comment>  (76) 
nan

>  <PDBbind_Uniprot_Id>  (76) 
nan

>  <PDBbind_Protein_Name>  (76) 
nan

>  <PDBbind_-Logkd/Ki>  (76) 
nan

>  <PDBbind_Kd/Ki>  (76) 
nan

>  <PDBbind_Kd_Or_Ki_Or_Ic50>  (76) 
nan

>  <PDBbind_Relation>  (76) 
nan

>  <PDBbind_Value>  (76) 
nan

>  <PDBbind_Unit>  (76) 
nan

>  <PDBbind_Standard_Value>  (76) 
nan

>  <PDBbind_Standard_Unit>  (76) 
nan

>  <PDB_Chain>  (76) 
['A']

>  <Num_Ligs>  (76) 
[1.0]

>  <Orthosteric>  (76) 
[1.0]

>  <Allosteric>  (76) 
[0.0]

>  <Pockets_Assigned>  (76) 
['A']

>  <Multisite>  (76) 
[False]

>  <Same_Number>  (76) 
True

>  <Same_Binding_Site>  (76) 
True

>  <Same_Orientation>  (76) 
True

>  <Lig_Order_in_.pdb>  (76) 
Orthosteric

$$$$

     RDKit          2D

 27 29  0  0  0  0  0  0  0  0999 V2000
    1.5000    0.0000    0.0000 C   0  0  0  0  0  0  0  0  0  0  0  0
    0.7500   -1.2990    0.0000 N   0  0  0  0  0  0  0  0  0  0  0  0
   -0.7500   -1.2990    0.0000 C   0  0  0  0  0  0  0  0  0  0  0  0
   -1.5000    0.0000    0.0000 C   0  0  0  0  0  0  0  0  0  0  0  0
   -0.7500    1.2990    0.0000 C   0  0  0  0  0  0  0  0  0  0  0  0
    0.7500    1.2990    0.0000 N   0  0  0  0  0  0  0  0  0  0  0  0
   -1.7537    2.4138    0.0000 N   0  0  0  0  0  0  0  0  0  0  0  0
   -3.1240    1.8037    0.0000 C   0  0  0  0  0  0  0  0  0  0  0  0
   -2.9672    0.3119    0.0000 N   0  0  0  0  0  0  0  0  0  0  0  0
   -1.4418    3.8810    0.0000 C   0  0  0  0  0  0  0  0  0  0  0  0
   -2.4455    4.9957    0.0000 C   0  0  0  0  0  0  0  0  0  0  0  0
   -1.6955    6.2947    0.0000 C   0  0  0  0  0  0  0  0  0  0  0  0
   -0.2283    5.9829    0.0000 C   0  0  0  0  0  0  0  0  0  0  0  0
   -0.0715    4.4911    0.0000 O   0  0  0  0  0  0  0  0  0  0  0  0
    0.8864    6.9866    0.0000 C   0  0  0  0  0  0  0  0  0  0  0  0
    2.3130    6.5230    0.0000 O   0  0  0  0  0  0  0  0  0  0  0  0
    3.4277    7.5267    0.0000 P   0  0  0  0  0  5  0  0  0  0  0  0
    2.4240    8.6414    0.0000 O   0  0  0  0  0  0  0  0  0  0  0  0
    4.4314    6.4120    0.0000 O   0  0  0  0  0  0  0  0  0  0  0  0
    4.5424    8.5304    0.0000 O   0  0  0  0  0  0  0  0  0  0  0  0
    4.2306    9.9976    0.0000 P   0  0  0  0  0  0  0  0  0  0  0  0
    5.6978   10.3095    0.0000 O   0  0  0  0  0  0  0  0  0  0  0  0
    2.7633    9.6858    0.0000 O   0  0  0  0  0  0  0  0  0  0  0  0
    3.9187   11.4649    0.0000 O   0  0  0  0  0  0  0  0  0  0  0  0
   -2.3056    7.6651    0.0000 O   0  0  0  0  0  0  0  0  0  0  0  0
   -3.9373    4.8389    0.0000 O   0  0  0  0  0  0  0  0  0  0  0  0
   -1.5000   -2.5981    0.0000 N   0  0  0  0  0  0  0  0  0  0  0  0
  1  2  2  0
  2  3  1  0
  3  4  2  0
  4  5  1  0
  5  6  2  0
  5  7  1  0
  7  8  1  0
  8  9  2  0
 10  7  1  1
 10 11  1  0
 11 12  1  0
 12 13  1  0
 13 14  1  0
 13 15  1  1
 15 16  1  0
 16 17  1  0
 17 18  2  0
 17 19  1  6
 17 20  1  0
 20 21  1  0
 21 22  2  0
 21 23  1  0
 21 24  1  0
 12 25  1  6
 11 26  1  6
  3 27  1  0
  6  1  1  0
  9  4  1  0
 14 10  1  0
M  END
>  <Structure>  (77) 
4IAD

>  <Dataset>  (77) 
PDB

>  <Chain>  (77) 
A

>  <Spatial_Label>  (77) 
DFGin

>  <Dihedral_Label>  (77) 
BLAminus

>  <C_Helix_Label>  (77) 
Chelix-in

>  <Lig_ID>  (77) 
ADP

>  <Lig_Entity_ID>  (77) 
4IAD_4

>  <Lig_Name>  (77) 
ADENOSINE-5'-DIPHOSPHATE

>  <Lig_Formula>  (77) 
C10H15N5O10P2

>  <Lig_SMILES>  (77) 
c1nc(c2c(n1)n(cn2)[C@H]3[C@@H]([C@@H]([C@H](O3)CO[P@](=O)(O)OP(=O)(O)O)O)O)N

>  <Lig_MW>  (77) 
427.201

>  <Lig_ChEMBL_ID>  (77) 
['CHEMBL14830']

>  <Lig_DrugBank_ID>  (77) 
['DB16833']

>  <Occurence>  (77) 
19.0

>  <Lig_SMILES_Uncharged>  (77) 
Nc1ncnc2c1ncn2[C@@H]1O[C@H](CO[P@](=O)(O)OP(=O)(O)O)[C@@H](O)[C@H]1O

>  <Lig_Conformer>  (77) 
['NaN']

>  <Lig_Of_Interest>  (77) 
['Y']

>  <Lig_Completeness>  (77) 
[1.0]

>  <Lig_Occupancy>  (77) 
[1.0]

>  <Lig_RSCC>  (77) 
[0.959]

>  <Lig_RSR>  (77) 
[0.108]

>  <Lig_RMSZ_Bonds>  (77) 
[1.25]

>  <Lig_RMSZ_Angles>  (77) 
[1.56]

>  <Lig_Alt_Conf>  (77) 
0.0

>  <Title>  (77) 
Low temperature X-ray Structure OF cAMP dependent protein kinase A in complex with high Mg2+ concentration, ADP and phosphorylated peptide pSP20

>  <Nonpolymer_Entity_Count>  (77) 
3.0

>  <Protein_Entity_Count>  (77) 
2.0

>  <Exp_Method>  (77) 
X-Ray Diffraction

>  <Cryst_Method>  (77) 
Vapor Diffusion, Sitting Drop; 100 Mm Mes pH 6.5, 5 Mm Dtt, 15-20% Peg 4000, Vapor Diffusion, Sitting Drop, Temperature 277K

>  <Deposit_Date>  (77) 
2012-12-06

>  <Resolution>  (77) 
1.9

>  <DOI>  (77) 
https://doi.org/10.1021/bi400066a

>  <Source_Organism>  (77) 
Mus musculus

>  <R_Free>  (77) 
0.2435

>  <Keywords>  (77) 
Transferase/Peptide

>  <REMARK_280>  (77) 
 Crystal Solvent Content, Vs (%): 51.93 Matthews Coefficient, Vm (Angstroms**3/Da): 2.56 Crystallization Conditions: 100 Mm Mes pH 6.5, 5 Mm Dtt, 15-20% Peg 4000, Vapor Diffusion, Sitting Drop, Temperature 277K 

>  <REMARK_610>  (77) 
nan

>  <pH>  (77) 
6.5

>  <Cryst_Technique>  (77) 
co-crystallized

>  <Sequence>  (77) 
HHHHHHGNAAAAKKGSEQESVKEFLAKAKEDFLKKWETPSQNTAQLDQFDRIKTLGTGSFGRVMLVKHKESGNHYAMKILDKQKVVKLKQIEHTLNEKRILQAVNFPFLVKLEFSFKDNSNLYMVMEYVAGGEMFSHLRRIGRFSEPHARFYAAQIVLTFEYLHSLDLIYRDLKPENLLIDQQGYIQVTDFGFAKRVKGRTWTLCGTPEYLAPEIILSKGYNKAVDWWALGVLIYEMAAGYPPFFADQPIQIYEKIVSGKVRFPSHFSSDLKDLLRNLLQVDLTKRFGNLKNGVNDIKNHKWFATTDWIAIYQRKVEAPFIPKFKGPGDTSNFDDYEEEEIRVSINEKCGKEFTEF

>  <Sequence_Length>  (77) 
356.0

>  <Mutation_Count>  (77) 
0.0

>  <Gene_Name>  (77) 
PKACA

>  <MW>  (77) 
41.566

>  <Name>  (77) 
cAMP-Dependent Protein Kinase Catalytic Subunit Alpha

>  <Mutations>  (77) 
nan

>  <EC_Number>  (77) 
2.7.11.11

>  <Peptidic_Inhibitor>  (77) 
True

>  <Lig_Missing_Atoms>  (77) 
['No']

>  <PDBbind_Resolution>  (77) 
nan

>  <PDBbind_Release_Year>  (77) 
nan

>  <PDBbind_Comment>  (77) 
nan

>  <PDBbind_Uniprot_Id>  (77) 
nan

>  <PDBbind_Protein_Name>  (77) 
nan

>  <PDBbind_-Logkd/Ki>  (77) 
nan

>  <PDBbind_Kd/Ki>  (77) 
nan

>  <PDBbind_Kd_Or_Ki_Or_Ic50>  (77) 
nan

>  <PDBbind_Relation>  (77) 
nan

>  <PDBbind_Value>  (77) 
nan

>  <PDBbind_Unit>  (77) 
nan

>  <PDBbind_Standard_Value>  (77) 
nan

>  <PDBbind_Standard_Unit>  (77) 
nan

>  <PDB_Chain>  (77) 
['A']

>  <Num_Ligs>  (77) 
[1.0]

>  <Orthosteric>  (77) 
[1.0]

>  <Allosteric>  (77) 
[0.0]

>  <Pockets_Assigned>  (77) 
['A']

>  <Multisite>  (77) 
[False]

>  <Same_Number>  (77) 
True

>  <Same_Binding_Site>  (77) 
True

>  <Same_Orientation>  (77) 
True

>  <Lig_Order_in_.pdb>  (77) 
Orthosteric

$$$$

     RDKit          2D

 27 29  0  0  0  0  0  0  0  0999 V2000
    1.5000    0.0000    0.0000 C   0  0  0  0  0  0  0  0  0  0  0  0
    0.7500   -1.2990    0.0000 N   0  0  0  0  0  0  0  0  0  0  0  0
   -0.7500   -1.2990    0.0000 C   0  0  0  0  0  0  0  0  0  0  0  0
   -1.5000    0.0000    0.0000 C   0  0  0  0  0  0  0  0  0  0  0  0
   -0.7500    1.2990    0.0000 C   0  0  0  0  0  0  0  0  0  0  0  0
    0.7500    1.2990    0.0000 N   0  0  0  0  0  0  0  0  0  0  0  0
   -1.7537    2.4138    0.0000 N   0  0  0  0  0  0  0  0  0  0  0  0
   -3.1240    1.8037    0.0000 C   0  0  0  0  0  0  0  0  0  0  0  0
   -2.9672    0.3119    0.0000 N   0  0  0  0  0  0  0  0  0  0  0  0
   -1.4418    3.8810    0.0000 C   0  0  0  0  0  0  0  0  0  0  0  0
   -2.4455    4.9957    0.0000 C   0  0  0  0  0  0  0  0  0  0  0  0
   -1.6955    6.2947    0.0000 C   0  0  0  0  0  0  0  0  0  0  0  0
   -0.2283    5.9829    0.0000 C   0  0  0  0  0  0  0  0  0  0  0  0
   -0.0715    4.4911    0.0000 O   0  0  0  0  0  0  0  0  0  0  0  0
    0.8864    6.9866    0.0000 C   0  0  0  0  0  0  0  0  0  0  0  0
    2.3130    6.5230    0.0000 O   0  0  0  0  0  0  0  0  0  0  0  0
    3.4277    7.5267    0.0000 P   0  0  0  0  0  5  0  0  0  0  0  0
    2.4240    8.6414    0.0000 O   0  0  0  0  0  0  0  0  0  0  0  0
    4.4314    6.4120    0.0000 O   0  0  0  0  0  0  0  0  0  0  0  0
    4.5424    8.5304    0.0000 O   0  0  0  0  0  0  0  0  0  0  0  0
    4.2306    9.9976    0.0000 P   0  0  0  0  0  0  0  0  0  0  0  0
    5.6978   10.3095    0.0000 O   0  0  0  0  0  0  0  0  0  0  0  0
    2.7633    9.6858    0.0000 O   0  0  0  0  0  0  0  0  0  0  0  0
    3.9187   11.4649    0.0000 O   0  0  0  0  0  0  0  0  0  0  0  0
   -2.3056    7.6651    0.0000 O   0  0  0  0  0  0  0  0  0  0  0  0
   -3.9373    4.8389    0.0000 O   0  0  0  0  0  0  0  0  0  0  0  0
   -1.5000   -2.5981    0.0000 N   0  0  0  0  0  0  0  0  0  0  0  0
  1  2  2  0
  2  3  1  0
  3  4  2  0
  4  5  1  0
  5  6  2  0
  5  7  1  0
  7  8  1  0
  8  9  2  0
 10  7  1  1
 10 11  1  0
 11 12  1  0
 12 13  1  0
 13 14  1  0
 13 15  1  1
 15 16  1  0
 16 17  1  0
 17 18  2  0
 17 19  1  6
 17 20  1  0
 20 21  1  0
 21 22  2  0
 21 23  1  0
 21 24  1  0
 12 25  1  6
 11 26  1  6
  3 27  1  0
  6  1  1  0
  9  4  1  0
 14 10  1  0
M  END
>  <Structure>  (78) 
4IAF

>  <Dataset>  (78) 
PDB

>  <Chain>  (78) 
A

>  <Spatial_Label>  (78) 
DFGin

>  <Dihedral_Label>  (78) 
BLAminus

>  <C_Helix_Label>  (78) 
Chelix-in

>  <Lig_ID>  (78) 
ADP

>  <Lig_Entity_ID>  (78) 
4IAF_4

>  <Lig_Name>  (78) 
ADENOSINE-5'-DIPHOSPHATE

>  <Lig_Formula>  (78) 
C10H15N5O10P2

>  <Lig_SMILES>  (78) 
c1nc(c2c(n1)n(cn2)[C@H]3[C@@H]([C@@H]([C@H](O3)CO[P@](=O)(O)OP(=O)(O)O)O)O)N

>  <Lig_MW>  (78) 
427.201

>  <Lig_ChEMBL_ID>  (78) 
['CHEMBL14830']

>  <Lig_DrugBank_ID>  (78) 
['DB16833']

>  <Occurence>  (78) 
19.0

>  <Lig_SMILES_Uncharged>  (78) 
Nc1ncnc2c1ncn2[C@@H]1O[C@H](CO[P@](=O)(O)OP(=O)(O)O)[C@@H](O)[C@H]1O

>  <Lig_Conformer>  (78) 
['NaN']

>  <Lig_Of_Interest>  (78) 
['Y']

>  <Lig_Completeness>  (78) 
[1.0]

>  <Lig_Occupancy>  (78) 
[1.0]

>  <Lig_RSCC>  (78) 
[0.975]

>  <Lig_RSR>  (78) 
[0.106]

>  <Lig_RMSZ_Bonds>  (78) 
[1.22]

>  <Lig_RMSZ_Angles>  (78) 
[1.3]

>  <Lig_Alt_Conf>  (78) 
0.0

>  <Title>  (78) 
Room temperature X-ray Structure OF cAMP dependent protein kinase A in complex with high Mg2+ concentration, ADP and phosphorylated peptide pSP20

>  <Nonpolymer_Entity_Count>  (78) 
3.0

>  <Protein_Entity_Count>  (78) 
2.0

>  <Exp_Method>  (78) 
X-Ray Diffraction

>  <Cryst_Method>  (78) 
Vapor Diffusion, Sitting Drop; 100 Mm Mes pH 6.5, 5 Mm Dtt, 15-20% Peg 4000, Vapor Diffusion, Sitting Drop, Temperature 277K

>  <Deposit_Date>  (78) 
2012-12-06

>  <Resolution>  (78) 
2.2

>  <DOI>  (78) 
https://doi.org/10.1021/bi400066a

>  <Source_Organism>  (78) 
Mus musculus

>  <R_Free>  (78) 
0.192

>  <Keywords>  (78) 
Transferase/Peptide

>  <REMARK_280>  (78) 
 Crystal Solvent Content, Vs (%): 54.24 Matthews Coefficient, Vm (Angstroms**3/Da): 2.69 Crystallization Conditions: 100 Mm Mes pH 6.5, 5 Mm Dtt, 15-20% Peg 4000, Vapor Diffusion, Sitting Drop, Temperature 277K 

>  <REMARK_610>  (78) 
nan

>  <pH>  (78) 
6.5

>  <Cryst_Technique>  (78) 
co-crystallized

>  <Sequence>  (78) 
HHHHHHGNAAAAKKGSEQESVKEFLAKAKEDFLKKWETPSQNTAQLDQFDRIKTLGTGSFGRVMLVKHKESGNHYAMKILDKQKVVKLKQIEHTLNEKRILQAVNFPFLVKLEFSFKDNSNLYMVMEYVAGGEMFSHLRRIGRFSEPHARFYAAQIVLTFEYLHSLDLIYRDLKPENLLIDQQGYIQVTDFGFAKRVKGRTWTLCGTPEYLAPEIILSKGYNKAVDWWALGVLIYEMAAGYPPFFADQPIQIYEKIVSGKVRFPSHFSSDLKDLLRNLLQVDLTKRFGNLKNGVNDIKNHKWFATTDWIAIYQRKVEAPFIPKFKGPGDTSNFDDYEEEEIRVSINEKCGKEFTEF

>  <Sequence_Length>  (78) 
356.0

>  <Mutation_Count>  (78) 
0.0

>  <Gene_Name>  (78) 
PKACA

>  <MW>  (78) 
41.566

>  <Name>  (78) 
cAMP-Dependent Protein Kinase Catalytic Subunit Alpha

>  <Mutations>  (78) 
nan

>  <EC_Number>  (78) 
2.7.11.11

>  <Peptidic_Inhibitor>  (78) 
True

>  <Lig_Missing_Atoms>  (78) 
['No']

>  <PDBbind_Resolution>  (78) 
nan

>  <PDBbind_Release_Year>  (78) 
nan

>  <PDBbind_Comment>  (78) 
nan

>  <PDBbind_Uniprot_Id>  (78) 
nan

>  <PDBbind_Protein_Name>  (78) 
nan

>  <PDBbind_-Logkd/Ki>  (78) 
nan

>  <PDBbind_Kd/Ki>  (78) 
nan

>  <PDBbind_Kd_Or_Ki_Or_Ic50>  (78) 
nan

>  <PDBbind_Relation>  (78) 
nan

>  <PDBbind_Value>  (78) 
nan

>  <PDBbind_Unit>  (78) 
nan

>  <PDBbind_Standard_Value>  (78) 
nan

>  <PDBbind_Standard_Unit>  (78) 
nan

>  <PDB_Chain>  (78) 
['A']

>  <Num_Ligs>  (78) 
[1.0]

>  <Orthosteric>  (78) 
[1.0]

>  <Allosteric>  (78) 
[0.0]

>  <Pockets_Assigned>  (78) 
['A']

>  <Multisite>  (78) 
[False]

>  <Same_Number>  (78) 
True

>  <Same_Binding_Site>  (78) 
True

>  <Same_Orientation>  (78) 
True

>  <Lig_Order_in_.pdb>  (78) 
Orthosteric

$$$$

     RDKit          2D

 27 29  0  0  0  0  0  0  0  0999 V2000
    1.5000    0.0000    0.0000 C   0  0  0  0  0  0  0  0  0  0  0  0
    0.7500   -1.2990    0.0000 N   0  0  0  0  0  0  0  0  0  0  0  0
   -0.7500   -1.2990    0.0000 C   0  0  0  0  0  0  0  0  0  0  0  0
   -1.5000    0.0000    0.0000 C   0  0  0  0  0  0  0  0  0  0  0  0
   -0.7500    1.2990    0.0000 C   0  0  0  0  0  0  0  0  0  0  0  0
    0.7500    1.2990    0.0000 N   0  0  0  0  0  0  0  0  0  0  0  0
   -1.7537    2.4138    0.0000 N   0  0  0  0  0  0  0  0  0  0  0  0
   -3.1240    1.8037    0.0000 C   0  0  0  0  0  0  0  0  0  0  0  0
   -2.9672    0.3119    0.0000 N   0  0  0  0  0  0  0  0  0  0  0  0
   -1.4418    3.8810    0.0000 C   0  0  0  0  0  0  0  0  0  0  0  0
   -2.4455    4.9957    0.0000 C   0  0  0  0  0  0  0  0  0  0  0  0
   -1.6955    6.2947    0.0000 C   0  0  0  0  0  0  0  0  0  0  0  0
   -0.2283    5.9829    0.0000 C   0  0  0  0  0  0  0  0  0  0  0  0
   -0.0715    4.4911    0.0000 O   0  0  0  0  0  0  0  0  0  0  0  0
    0.8864    6.9866    0.0000 C   0  0  0  0  0  0  0  0  0  0  0  0
    2.3130    6.5230    0.0000 O   0  0  0  0  0  0  0  0  0  0  0  0
    3.4277    7.5267    0.0000 P   0  0  0  0  0  5  0  0  0  0  0  0
    2.4240    8.6414    0.0000 O   0  0  0  0  0  0  0  0  0  0  0  0
    4.4314    6.4120    0.0000 O   0  0  0  0  0  0  0  0  0  0  0  0
    4.5424    8.5304    0.0000 O   0  0  0  0  0  0  0  0  0  0  0  0
    4.2306    9.9976    0.0000 P   0  0  0  0  0  0  0  0  0  0  0  0
    5.6978   10.3095    0.0000 O   0  0  0  0  0  0  0  0  0  0  0  0
    2.7633    9.6858    0.0000 O   0  0  0  0  0  0  0  0  0  0  0  0
    3.9187   11.4649    0.0000 O   0  0  0  0  0  0  0  0  0  0  0  0
   -2.3056    7.6651    0.0000 O   0  0  0  0  0  0  0  0  0  0  0  0
   -3.9373    4.8389    0.0000 O   0  0  0  0  0  0  0  0  0  0  0  0
   -1.5000   -2.5981    0.0000 N   0  0  0  0  0  0  0  0  0  0  0  0
  1  2  2  0
  2  3  1  0
  3  4  2  0
  4  5  1  0
  5  6  2  0
  5  7  1  0
  7  8  1  0
  8  9  2  0
 10  7  1  1
 10 11  1  0
 11 12  1  0
 12 13  1  0
 13 14  1  0
 13 15  1  1
 15 16  1  0
 16 17  1  0
 17 18  2  0
 17 19  1  6
 17 20  1  0
 20 21  1  0
 21 22  2  0
 21 23  1  0
 21 24  1  0
 12 25  1  6
 11 26  1  6
  3 27  1  0
  6  1  1  0
  9  4  1  0
 14 10  1  0
M  END
>  <Structure>  (79) 
4IAI

>  <Dataset>  (79) 
PDB

>  <Chain>  (79) 
A

>  <Spatial_Label>  (79) 
DFGin

>  <Dihedral_Label>  (79) 
BLAminus

>  <C_Helix_Label>  (79) 
Chelix-in

>  <Lig_ID>  (79) 
ADP

>  <Lig_Entity_ID>  (79) 
4IAI_4

>  <Lig_Name>  (79) 
ADENOSINE-5'-DIPHOSPHATE

>  <Lig_Formula>  (79) 
C10H15N5O10P2

>  <Lig_SMILES>  (79) 
c1nc(c2c(n1)n(cn2)[C@H]3[C@@H]([C@@H]([C@H](O3)CO[P@](=O)(O)OP(=O)(O)O)O)O)N

>  <Lig_MW>  (79) 
427.201

>  <Lig_ChEMBL_ID>  (79) 
['CHEMBL14830']

>  <Lig_DrugBank_ID>  (79) 
['DB16833']

>  <Occurence>  (79) 
19.0

>  <Lig_SMILES_Uncharged>  (79) 
Nc1ncnc2c1ncn2[C@@H]1O[C@H](CO[P@](=O)(O)OP(=O)(O)O)[C@@H](O)[C@H]1O

>  <Lig_Conformer>  (79) 
['NaN']

>  <Lig_Of_Interest>  (79) 
['Y']

>  <Lig_Completeness>  (79) 
[1.0]

>  <Lig_Occupancy>  (79) 
[1.0]

>  <Lig_RSCC>  (79) 
[0.954]

>  <Lig_RSR>  (79) 
[0.105]

>  <Lig_RMSZ_Bonds>  (79) 
[0.97]

>  <Lig_RMSZ_Angles>  (79) 
[1.61]

>  <Lig_Alt_Conf>  (79) 
0.0

>  <Title>  (79) 
X-ray Structure of cAMP dependent protein kinase A in complex with high Ca2+ concentration, ADP and phosphorylated peptide pSP20

>  <Nonpolymer_Entity_Count>  (79) 
5.0

>  <Protein_Entity_Count>  (79) 
2.0

>  <Exp_Method>  (79) 
X-Ray Diffraction

>  <Cryst_Method>  (79) 
Vapor Diffusion, Sitting Drop; 100 Mm Mes pH 6.5, 5 Mm Dtt, 15-20% Peg 4000, Vapor Diffusion, Sitting Drop, Temperature 277K

>  <Deposit_Date>  (79) 
2012-12-06

>  <Resolution>  (79) 
1.55

>  <DOI>  (79) 
https://doi.org/10.1021/bi400066a

>  <Source_Organism>  (79) 
Mus musculus

>  <R_Free>  (79) 
0.2092

>  <Keywords>  (79) 
Transferase/Peptide

>  <REMARK_280>  (79) 
 Crystal Solvent Content, Vs (%): 52.37 Matthews Coefficient, Vm (Angstroms**3/Da): 2.58 Crystallization Conditions: 100 Mm Mes pH 6.5, 5 Mm Dtt, 15-20% Peg 4000, Vapor Diffusion, Sitting Drop, Temperature 277K 

>  <REMARK_610>  (79) 
nan

>  <pH>  (79) 
6.5

>  <Cryst_Technique>  (79) 
co-crystallized

>  <Sequence>  (79) 
HHHHHHGNAAAAKKGSEQESVKEFLAKAKEDFLKKWETPSQNTAQLDQFDRIKTLGTGSFGRVMLVKHKESGNHYAMKILDKQKVVKLKQIEHTLNEKRILQAVNFPFLVKLEFSFKDNSNLYMVMEYVAGGEMFSHLRRIGRFSEPHARFYAAQIVLTFEYLHSLDLIYRDLKPENLLIDQQGYIQVTDFGFAKRVKGRTWTLCGTPEYLAPEIILSKGYNKAVDWWALGVLIYEMAAGYPPFFADQPIQIYEKIVSGKVRFPSHFSSDLKDLLRNLLQVDLTKRFGNLKNGVNDIKNHKWFATTDWIAIYQRKVEAPFIPKFKGPGDTSNFDDYEEEEIRVSINEKCGKEFTEF

>  <Sequence_Length>  (79) 
356.0

>  <Mutation_Count>  (79) 
0.0

>  <Gene_Name>  (79) 
PKACA

>  <MW>  (79) 
41.566

>  <Name>  (79) 
cAMP-Dependent Protein Kinase Catalytic Subunit Alpha

>  <Mutations>  (79) 
nan

>  <EC_Number>  (79) 
2.7.11.11

>  <Peptidic_Inhibitor>  (79) 
True

>  <Lig_Missing_Atoms>  (79) 
['No']

>  <PDBbind_Resolution>  (79) 
nan

>  <PDBbind_Release_Year>  (79) 
nan

>  <PDBbind_Comment>  (79) 
nan

>  <PDBbind_Uniprot_Id>  (79) 
nan

>  <PDBbind_Protein_Name>  (79) 
nan

>  <PDBbind_-Logkd/Ki>  (79) 
nan

>  <PDBbind_Kd/Ki>  (79) 
nan

>  <PDBbind_Kd_Or_Ki_Or_Ic50>  (79) 
nan

>  <PDBbind_Relation>  (79) 
nan

>  <PDBbind_Value>  (79) 
nan

>  <PDBbind_Unit>  (79) 
nan

>  <PDBbind_Standard_Value>  (79) 
nan

>  <PDBbind_Standard_Unit>  (79) 
nan

>  <PDB_Chain>  (79) 
['A']

>  <Num_Ligs>  (79) 
[1.0]

>  <Orthosteric>  (79) 
[1.0]

>  <Allosteric>  (79) 
[0.0]

>  <Pockets_Assigned>  (79) 
['A']

>  <Multisite>  (79) 
[False]

>  <Same_Number>  (79) 
True

>  <Same_Binding_Site>  (79) 
True

>  <Same_Orientation>  (79) 
True

>  <Lig_Order_in_.pdb>  (79) 
Orthosteric

$$$$

     RDKit          2D

 27 29  0  0  0  0  0  0  0  0999 V2000
    1.5000    0.0000    0.0000 C   0  0  0  0  0  0  0  0  0  0  0  0
    0.7500   -1.2990    0.0000 N   0  0  0  0  0  0  0  0  0  0  0  0
   -0.7500   -1.2990    0.0000 C   0  0  0  0  0  0  0  0  0  0  0  0
   -1.5000    0.0000    0.0000 C   0  0  0  0  0  0  0  0  0  0  0  0
   -0.7500    1.2990    0.0000 C   0  0  0  0  0  0  0  0  0  0  0  0
    0.7500    1.2990    0.0000 N   0  0  0  0  0  0  0  0  0  0  0  0
   -1.7537    2.4138    0.0000 N   0  0  0  0  0  0  0  0  0  0  0  0
   -3.1240    1.8037    0.0000 C   0  0  0  0  0  0  0  0  0  0  0  0
   -2.9672    0.3119    0.0000 N   0  0  0  0  0  0  0  0  0  0  0  0
   -1.4418    3.8810    0.0000 C   0  0  0  0  0  0  0  0  0  0  0  0
   -2.4455    4.9957    0.0000 C   0  0  0  0  0  0  0  0  0  0  0  0
   -1.6955    6.2947    0.0000 C   0  0  0  0  0  0  0  0  0  0  0  0
   -0.2283    5.9829    0.0000 C   0  0  0  0  0  0  0  0  0  0  0  0
   -0.0715    4.4911    0.0000 O   0  0  0  0  0  0  0  0  0  0  0  0
    0.8864    6.9866    0.0000 C   0  0  0  0  0  0  0  0  0  0  0  0
    2.3130    6.5230    0.0000 O   0  0  0  0  0  0  0  0  0  0  0  0
    3.4277    7.5267    0.0000 P   0  0  0  0  0  5  0  0  0  0  0  0
    2.4240    8.6414    0.0000 O   0  0  0  0  0  0  0  0  0  0  0  0
    4.4314    6.4120    0.0000 O   0  0  0  0  0  0  0  0  0  0  0  0
    4.5424    8.5304    0.0000 O   0  0  0  0  0  0  0  0  0  0  0  0
    4.2306    9.9976    0.0000 P   0  0  0  0  0  0  0  0  0  0  0  0
    5.6978   10.3095    0.0000 O   0  0  0  0  0  0  0  0  0  0  0  0
    2.7633    9.6858    0.0000 O   0  0  0  0  0  0  0  0  0  0  0  0
    3.9187   11.4649    0.0000 O   0  0  0  0  0  0  0  0  0  0  0  0
   -2.3056    7.6651    0.0000 O   0  0  0  0  0  0  0  0  0  0  0  0
   -3.9373    4.8389    0.0000 O   0  0  0  0  0  0  0  0  0  0  0  0
   -1.5000   -2.5981    0.0000 N   0  0  0  0  0  0  0  0  0  0  0  0
  1  2  2  0
  2  3  1  0
  3  4  2  0
  4  5  1  0
  5  6  2  0
  5  7  1  0
  7  8  1  0
  8  9  2  0
 10  7  1  1
 10 11  1  0
 11 12  1  0
 12 13  1  0
 13 14  1  0
 13 15  1  1
 15 16  1  0
 16 17  1  0
 17 18  2  0
 17 19  1  6
 17 20  1  0
 20 21  1  0
 21 22  2  0
 21 23  1  0
 21 24  1  0
 12 25  1  6
 11 26  1  6
  3 27  1  0
  6  1  1  0
  9  4  1  0
 14 10  1  0
M  END
>  <Structure>  (80) 
4IAK

>  <Dataset>  (80) 
PDB

>  <Chain>  (80) 
A

>  <Spatial_Label>  (80) 
DFGin

>  <Dihedral_Label>  (80) 
BLAminus

>  <C_Helix_Label>  (80) 
Chelix-in

>  <Lig_ID>  (80) 
ADP

>  <Lig_Entity_ID>  (80) 
4IAK_4

>  <Lig_Name>  (80) 
ADENOSINE-5'-DIPHOSPHATE

>  <Lig_Formula>  (80) 
C10H15N5O10P2

>  <Lig_SMILES>  (80) 
c1nc(c2c(n1)n(cn2)[C@H]3[C@@H]([C@@H]([C@H](O3)CO[P@](=O)(O)OP(=O)(O)O)O)O)N

>  <Lig_MW>  (80) 
427.201

>  <Lig_ChEMBL_ID>  (80) 
['CHEMBL14830']

>  <Lig_DrugBank_ID>  (80) 
['DB16833']

>  <Occurence>  (80) 
19.0

>  <Lig_SMILES_Uncharged>  (80) 
Nc1ncnc2c1ncn2[C@@H]1O[C@H](CO[P@](=O)(O)OP(=O)(O)O)[C@@H](O)[C@H]1O

>  <Lig_Conformer>  (80) 
['NaN']

>  <Lig_Of_Interest>  (80) 
['Y']

>  <Lig_Completeness>  (80) 
[1.0]

>  <Lig_Occupancy>  (80) 
[1.0]

>  <Lig_RSCC>  (80) 
[0.963]

>  <Lig_RSR>  (80) 
[0.094]

>  <Lig_RMSZ_Bonds>  (80) 
[1.08]

>  <Lig_RMSZ_Angles>  (80) 
[1.4]

>  <Lig_Alt_Conf>  (80) 
0.0

>  <Title>  (80) 
Low temperature X-ray structure of cAMP dependent protein kinase A in complex with high Sr2+ concentration, ADP and phosphorylated peptide pSP20

>  <Nonpolymer_Entity_Count>  (80) 
4.0

>  <Protein_Entity_Count>  (80) 
2.0

>  <Exp_Method>  (80) 
X-Ray Diffraction

>  <Cryst_Method>  (80) 
Vapor Diffusion, Sitting Drop; 100 Mm Mes pH 6.5, 5 Mm Dtt, 15-20% Peg 4000, Vapor Diffusion, Sitting Drop, Temperature 277K

>  <Deposit_Date>  (80) 
2012-12-06

>  <Resolution>  (80) 
1.6

>  <DOI>  (80) 
https://doi.org/10.1021/bi400066a

>  <Source_Organism>  (80) 
Mus musculus

>  <R_Free>  (80) 
0.2224

>  <Keywords>  (80) 
Transferase/Peptide

>  <REMARK_280>  (80) 
 Crystal Solvent Content, Vs (%): 50.33 Matthews Coefficient, Vm (Angstroms**3/Da): 2.48 Crystallization Conditions: 100 Mm Mes pH 6.5, 5 Mm Dtt, 15-20% Peg 4000, Vapor Diffusion, Sitting Drop, Temperature 277K 

>  <REMARK_610>  (80) 
nan

>  <pH>  (80) 
6.5

>  <Cryst_Technique>  (80) 
co-crystallized

>  <Sequence>  (80) 
HHHHHHGNAAAAKKGSEQESVKEFLAKAKEDFLKKWETPSQNTAQLDQFDRIKTLGTGSFGRVMLVKHKESGNHYAMKILDKQKVVKLKQIEHTLNEKRILQAVNFPFLVKLEFSFKDNSNLYMVMEYVAGGEMFSHLRRIGRFSEPHARFYAAQIVLTFEYLHSLDLIYRDLKPENLLIDQQGYIQVTDFGFAKRVKGRTWTLCGTPEYLAPEIILSKGYNKAVDWWALGVLIYEMAAGYPPFFADQPIQIYEKIVSGKVRFPSHFSSDLKDLLRNLLQVDLTKRFGNLKNGVNDIKNHKWFATTDWIAIYQRKVEAPFIPKFKGPGDTSNFDDYEEEEIRVSINEKCGKEFTEF

>  <Sequence_Length>  (80) 
356.0

>  <Mutation_Count>  (80) 
0.0

>  <Gene_Name>  (80) 
PKACA

>  <MW>  (80) 
41.566

>  <Name>  (80) 
cAMP-Dependent Protein Kinase Catalytic Subunit Alpha

>  <Mutations>  (80) 
nan

>  <EC_Number>  (80) 
2.7.11.11

>  <Peptidic_Inhibitor>  (80) 
True

>  <Lig_Missing_Atoms>  (80) 
['No']

>  <PDBbind_Resolution>  (80) 
nan

>  <PDBbind_Release_Year>  (80) 
nan

>  <PDBbind_Comment>  (80) 
nan

>  <PDBbind_Uniprot_Id>  (80) 
nan

>  <PDBbind_Protein_Name>  (80) 
nan

>  <PDBbind_-Logkd/Ki>  (80) 
nan

>  <PDBbind_Kd/Ki>  (80) 
nan

>  <PDBbind_Kd_Or_Ki_Or_Ic50>  (80) 
nan

>  <PDBbind_Relation>  (80) 
nan

>  <PDBbind_Value>  (80) 
nan

>  <PDBbind_Unit>  (80) 
nan

>  <PDBbind_Standard_Value>  (80) 
nan

>  <PDBbind_Standard_Unit>  (80) 
nan

>  <PDB_Chain>  (80) 
['A']

>  <Num_Ligs>  (80) 
[1.0]

>  <Orthosteric>  (80) 
[1.0]

>  <Allosteric>  (80) 
[0.0]

>  <Pockets_Assigned>  (80) 
['A']

>  <Multisite>  (80) 
[False]

>  <Same_Number>  (80) 
True

>  <Same_Binding_Site>  (80) 
True

>  <Same_Orientation>  (80) 
True

>  <Lig_Order_in_.pdb>  (80) 
Orthosteric

$$$$

     RDKit          2D

 27 29  0  0  0  0  0  0  0  0999 V2000
    1.5000    0.0000    0.0000 C   0  0  0  0  0  0  0  0  0  0  0  0
    0.7500   -1.2990    0.0000 N   0  0  0  0  0  0  0  0  0  0  0  0
   -0.7500   -1.2990    0.0000 C   0  0  0  0  0  0  0  0  0  0  0  0
   -1.5000    0.0000    0.0000 C   0  0  0  0  0  0  0  0  0  0  0  0
   -0.7500    1.2990    0.0000 C   0  0  0  0  0  0  0  0  0  0  0  0
    0.7500    1.2990    0.0000 N   0  0  0  0  0  0  0  0  0  0  0  0
   -1.7537    2.4138    0.0000 N   0  0  0  0  0  0  0  0  0  0  0  0
   -3.1240    1.8037    0.0000 C   0  0  0  0  0  0  0  0  0  0  0  0
   -2.9672    0.3119    0.0000 N   0  0  0  0  0  0  0  0  0  0  0  0
   -1.4418    3.8810    0.0000 C   0  0  0  0  0  0  0  0  0  0  0  0
   -2.4455    4.9957    0.0000 C   0  0  0  0  0  0  0  0  0  0  0  0
   -1.6955    6.2947    0.0000 C   0  0  0  0  0  0  0  0  0  0  0  0
   -0.2283    5.9829    0.0000 C   0  0  0  0  0  0  0  0  0  0  0  0
   -0.0715    4.4911    0.0000 O   0  0  0  0  0  0  0  0  0  0  0  0
    0.8864    6.9866    0.0000 C   0  0  0  0  0  0  0  0  0  0  0  0
    2.3130    6.5230    0.0000 O   0  0  0  0  0  0  0  0  0  0  0  0
    3.4277    7.5267    0.0000 P   0  0  0  0  0  5  0  0  0  0  0  0
    2.4240    8.6414    0.0000 O   0  0  0  0  0  0  0  0  0  0  0  0
    4.4314    6.4120    0.0000 O   0  0  0  0  0  0  0  0  0  0  0  0
    4.5424    8.5304    0.0000 O   0  0  0  0  0  0  0  0  0  0  0  0
    4.2306    9.9976    0.0000 P   0  0  0  0  0  0  0  0  0  0  0  0
    5.6978   10.3095    0.0000 O   0  0  0  0  0  0  0  0  0  0  0  0
    2.7633    9.6858    0.0000 O   0  0  0  0  0  0  0  0  0  0  0  0
    3.9187   11.4649    0.0000 O   0  0  0  0  0  0  0  0  0  0  0  0
   -2.3056    7.6651    0.0000 O   0  0  0  0  0  0  0  0  0  0  0  0
   -3.9373    4.8389    0.0000 O   0  0  0  0  0  0  0  0  0  0  0  0
   -1.5000   -2.5981    0.0000 N   0  0  0  0  0  0  0  0  0  0  0  0
  1  2  2  0
  2  3  1  0
  3  4  2  0
  4  5  1  0
  5  6  2  0
  5  7  1  0
  7  8  1  0
  8  9  2  0
 10  7  1  1
 10 11  1  0
 11 12  1  0
 12 13  1  0
 13 14  1  0
 13 15  1  1
 15 16  1  0
 16 17  1  0
 17 18  2  0
 17 19  1  6
 17 20  1  0
 20 21  1  0
 21 22  2  0
 21 23  1  0
 21 24  1  0
 12 25  1  6
 11 26  1  6
  3 27  1  0
  6  1  1  0
  9  4  1  0
 14 10  1  0
M  END
>  <Structure>  (81) 
4IAY

>  <Dataset>  (81) 
PDB

>  <Chain>  (81) 
A

>  <Spatial_Label>  (81) 
DFGin

>  <Dihedral_Label>  (81) 
BLAminus

>  <C_Helix_Label>  (81) 
Chelix-in

>  <Lig_ID>  (81) 
ADP

>  <Lig_Entity_ID>  (81) 
4IAY_4

>  <Lig_Name>  (81) 
ADENOSINE-5'-DIPHOSPHATE

>  <Lig_Formula>  (81) 
C10H15N5O10P2

>  <Lig_SMILES>  (81) 
c1nc(c2c(n1)n(cn2)[C@H]3[C@@H]([C@@H]([C@H](O3)CO[P@](=O)(O)OP(=O)(O)O)O)O)N

>  <Lig_MW>  (81) 
427.201

>  <Lig_ChEMBL_ID>  (81) 
['CHEMBL14830']

>  <Lig_DrugBank_ID>  (81) 
['DB16833']

>  <Occurence>  (81) 
19.0

>  <Lig_SMILES_Uncharged>  (81) 
Nc1ncnc2c1ncn2[C@@H]1O[C@H](CO[P@](=O)(O)OP(=O)(O)O)[C@@H](O)[C@H]1O

>  <Lig_Conformer>  (81) 
['NaN']

>  <Lig_Of_Interest>  (81) 
['Y']

>  <Lig_Completeness>  (81) 
[1.0]

>  <Lig_Occupancy>  (81) 
[1.0]

>  <Lig_RSCC>  (81) 
[0.971]

>  <Lig_RSR>  (81) 
[0.119]

>  <Lig_RMSZ_Bonds>  (81) 
[1.09]

>  <Lig_RMSZ_Angles>  (81) 
[1.59]

>  <Lig_Alt_Conf>  (81) 
0.0

>  <Title>  (81) 
Room temperature X-ray Structure of cAMP dependent protein kinase A in complex with high Sr2+ concentration, ADP and phosphorylated peptide pSP20

>  <Nonpolymer_Entity_Count>  (81) 
3.0

>  <Protein_Entity_Count>  (81) 
2.0

>  <Exp_Method>  (81) 
X-Ray Diffraction

>  <Cryst_Method>  (81) 
Vapor Diffusion, Sitting Drop; 100 Mm Mes pH 6.5, 5 Mm Dtt, 15-20% Peg 4000, Vapor Diffusion, Sitting Drop, Temperature 277K

>  <Deposit_Date>  (81) 
2012-12-07

>  <Resolution>  (81) 
2.0

>  <DOI>  (81) 
https://doi.org/10.1021/bi400066a

>  <Source_Organism>  (81) 
Mus musculus

>  <R_Free>  (81) 
0.227

>  <Keywords>  (81) 
Transferase/Peptide

>  <REMARK_280>  (81) 
 Crystal Solvent Content, Vs (%): 54.76 Matthews Coefficient, Vm (Angstroms**3/Da): 2.72 Crystallization Conditions: 100 Mm Mes pH 6.5, 5 Mm Dtt, 15-20% Peg 4000, Vapor Diffusion, Sitting Drop, Temperature 277K 

>  <REMARK_610>  (81) 
nan

>  <pH>  (81) 
6.5

>  <Cryst_Technique>  (81) 
co-crystallized

>  <Sequence>  (81) 
HHHHHHGNAAAAKKGSEQESVKEFLAKAKEDFLKKWETPSQNTAQLDQFDRIKTLGTGSFGRVMLVKHKESGNHYAMKILDKQKVVKLKQIEHTLNEKRILQAVNFPFLVKLEFSFKDNSNLYMVMEYVAGGEMFSHLRRIGRFSEPHARFYAAQIVLTFEYLHSLDLIYRDLKPENLLIDQQGYIQVTDFGFAKRVKGRTWTLCGTPEYLAPEIILSKGYNKAVDWWALGVLIYEMAAGYPPFFADQPIQIYEKIVSGKVRFPSHFSSDLKDLLRNLLQVDLTKRFGNLKNGVNDIKNHKWFATTDWIAIYQRKVEAPFIPKFKGPGDTSNFDDYEEEEIRVSINEKCGKEFTEF

>  <Sequence_Length>  (81) 
356.0

>  <Mutation_Count>  (81) 
0.0

>  <Gene_Name>  (81) 
PKACA

>  <MW>  (81) 
41.566

>  <Name>  (81) 
cAMP-Dependent Protein Kinase Catalytic Subunit Alpha

>  <Mutations>  (81) 
nan

>  <EC_Number>  (81) 
2.7.11.11

>  <Peptidic_Inhibitor>  (81) 
True

>  <Lig_Missing_Atoms>  (81) 
['No']

>  <PDBbind_Resolution>  (81) 
nan

>  <PDBbind_Release_Year>  (81) 
nan

>  <PDBbind_Comment>  (81) 
nan

>  <PDBbind_Uniprot_Id>  (81) 
nan

>  <PDBbind_Protein_Name>  (81) 
nan

>  <PDBbind_-Logkd/Ki>  (81) 
nan

>  <PDBbind_Kd/Ki>  (81) 
nan

>  <PDBbind_Kd_Or_Ki_Or_Ic50>  (81) 
nan

>  <PDBbind_Relation>  (81) 
nan

>  <PDBbind_Value>  (81) 
nan

>  <PDBbind_Unit>  (81) 
nan

>  <PDBbind_Standard_Value>  (81) 
nan

>  <PDBbind_Standard_Unit>  (81) 
nan

>  <PDB_Chain>  (81) 
['A']

>  <Num_Ligs>  (81) 
[1.0]

>  <Orthosteric>  (81) 
[1.0]

>  <Allosteric>  (81) 
[0.0]

>  <Pockets_Assigned>  (81) 
['A']

>  <Multisite>  (81) 
[False]

>  <Same_Number>  (81) 
True

>  <Same_Binding_Site>  (81) 
True

>  <Same_Orientation>  (81) 
True

>  <Lig_Order_in_.pdb>  (81) 
Orthosteric

$$$$

     RDKit          2D

 27 29  0  0  0  0  0  0  0  0999 V2000
    1.5000    0.0000    0.0000 C   0  0  0  0  0  0  0  0  0  0  0  0
    0.7500   -1.2990    0.0000 N   0  0  0  0  0  0  0  0  0  0  0  0
   -0.7500   -1.2990    0.0000 C   0  0  0  0  0  0  0  0  0  0  0  0
   -1.5000    0.0000    0.0000 C   0  0  0  0  0  0  0  0  0  0  0  0
   -0.7500    1.2990    0.0000 C   0  0  0  0  0  0  0  0  0  0  0  0
    0.7500    1.2990    0.0000 N   0  0  0  0  0  0  0  0  0  0  0  0
   -1.7537    2.4138    0.0000 N   0  0  0  0  0  0  0  0  0  0  0  0
   -3.1240    1.8037    0.0000 C   0  0  0  0  0  0  0  0  0  0  0  0
   -2.9672    0.3119    0.0000 N   0  0  0  0  0  0  0  0  0  0  0  0
   -1.4418    3.8810    0.0000 C   0  0  0  0  0  0  0  0  0  0  0  0
   -2.4455    4.9957    0.0000 C   0  0  0  0  0  0  0  0  0  0  0  0
   -1.6955    6.2947    0.0000 C   0  0  0  0  0  0  0  0  0  0  0  0
   -0.2283    5.9829    0.0000 C   0  0  0  0  0  0  0  0  0  0  0  0
   -0.0715    4.4911    0.0000 O   0  0  0  0  0  0  0  0  0  0  0  0
    0.8864    6.9866    0.0000 C   0  0  0  0  0  0  0  0  0  0  0  0
    2.3130    6.5230    0.0000 O   0  0  0  0  0  0  0  0  0  0  0  0
    3.4277    7.5267    0.0000 P   0  0  0  0  0  5  0  0  0  0  0  0
    2.4240    8.6414    0.0000 O   0  0  0  0  0  0  0  0  0  0  0  0
    4.4314    6.4120    0.0000 O   0  0  0  0  0  0  0  0  0  0  0  0
    4.5424    8.5304    0.0000 O   0  0  0  0  0  0  0  0  0  0  0  0
    4.2306    9.9976    0.0000 P   0  0  0  0  0  0  0  0  0  0  0  0
    5.6978   10.3095    0.0000 O   0  0  0  0  0  0  0  0  0  0  0  0
    2.7633    9.6858    0.0000 O   0  0  0  0  0  0  0  0  0  0  0  0
    3.9187   11.4649    0.0000 O   0  0  0  0  0  0  0  0  0  0  0  0
   -2.3056    7.6651    0.0000 O   0  0  0  0  0  0  0  0  0  0  0  0
   -3.9373    4.8389    0.0000 O   0  0  0  0  0  0  0  0  0  0  0  0
   -1.5000   -2.5981    0.0000 N   0  0  0  0  0  0  0  0  0  0  0  0
  1  2  2  0
  2  3  1  0
  3  4  2  0
  4  5  1  0
  5  6  2  0
  5  7  1  0
  7  8  1  0
  8  9  2  0
 10  7  1  1
 10 11  1  0
 11 12  1  0
 12 13  1  0
 13 14  1  0
 13 15  1  1
 15 16  1  0
 16 17  1  0
 17 18  2  0
 17 19  1  6
 17 20  1  0
 20 21  1  0
 21 22  2  0
 21 23  1  0
 21 24  1  0
 12 25  1  6
 11 26  1  6
  3 27  1  0
  6  1  1  0
  9  4  1  0
 14 10  1  0
M  END
>  <Structure>  (82) 
4IAZ

>  <Dataset>  (82) 
PDB

>  <Chain>  (82) 
A

>  <Spatial_Label>  (82) 
DFGin

>  <Dihedral_Label>  (82) 
BLAminus

>  <C_Helix_Label>  (82) 
Chelix-in

>  <Lig_ID>  (82) 
ADP

>  <Lig_Entity_ID>  (82) 
4IAZ_4

>  <Lig_Name>  (82) 
ADENOSINE-5'-DIPHOSPHATE

>  <Lig_Formula>  (82) 
C10H15N5O10P2

>  <Lig_SMILES>  (82) 
c1nc(c2c(n1)n(cn2)[C@H]3[C@@H]([C@@H]([C@H](O3)CO[P@](=O)(O)OP(=O)(O)O)O)O)N

>  <Lig_MW>  (82) 
427.201

>  <Lig_ChEMBL_ID>  (82) 
['CHEMBL14830']

>  <Lig_DrugBank_ID>  (82) 
['DB16833']

>  <Occurence>  (82) 
19.0

>  <Lig_SMILES_Uncharged>  (82) 
Nc1ncnc2c1ncn2[C@@H]1O[C@H](CO[P@](=O)(O)OP(=O)(O)O)[C@@H](O)[C@H]1O

>  <Lig_Conformer>  (82) 
['NaN']

>  <Lig_Of_Interest>  (82) 
['Y']

>  <Lig_Completeness>  (82) 
[1.0]

>  <Lig_Occupancy>  (82) 
[1.0]

>  <Lig_RSCC>  (82) 
[0.934]

>  <Lig_RSR>  (82) 
[0.128]

>  <Lig_RMSZ_Bonds>  (82) 
[1.1]

>  <Lig_RMSZ_Angles>  (82) 
[1.56]

>  <Lig_Alt_Conf>  (82) 
0.0

>  <Title>  (82) 
Structure of cAMP dependent protein kinase A in complex with high Ba2+ concentration, ADP and phosphorylated peptide pSP20

>  <Nonpolymer_Entity_Count>  (82) 
3.0

>  <Protein_Entity_Count>  (82) 
2.0

>  <Exp_Method>  (82) 
X-Ray Diffraction

>  <Cryst_Method>  (82) 
Vapor Diffusion, Sitting Drop; 100 Mm Mes pH 6.5, 5 Mm Dtt, 15-20% Peg 4000, Vapor Diffusion, Sitting Drop, Temperature 277K

>  <Deposit_Date>  (82) 
2012-12-07

>  <Resolution>  (82) 
1.85

>  <DOI>  (82) 
https://doi.org/10.1021/bi400066a

>  <Source_Organism>  (82) 
Mus musculus

>  <R_Free>  (82) 
0.2485

>  <Keywords>  (82) 
Transferase/Peptide

>  <REMARK_280>  (82) 
 Crystal Solvent Content, Vs (%): 52.93 Matthews Coefficient, Vm (Angstroms**3/Da): 2.61 Crystallization Conditions: 100 Mm Mes pH 6.5, 5 Mm Dtt, 15-20% Peg 4000, Vapor Diffusion, Sitting Drop, Temperature 277K 

>  <REMARK_610>  (82) 
nan

>  <pH>  (82) 
6.5

>  <Cryst_Technique>  (82) 
co-crystallized

>  <Sequence>  (82) 
HHHHHHGNAAAAKKGSEQESVKEFLAKAKEDFLKKWETPSQNTAQLDQFDRIKTLGTGSFGRVMLVKHKESGNHYAMKILDKQKVVKLKQIEHTLNEKRILQAVNFPFLVKLEFSFKDNSNLYMVMEYVAGGEMFSHLRRIGRFSEPHARFYAAQIVLTFEYLHSLDLIYRDLKPENLLIDQQGYIQVTDFGFAKRVKGRTWTLCGTPEYLAPEIILSKGYNKAVDWWALGVLIYEMAAGYPPFFADQPIQIYEKIVSGKVRFPSHFSSDLKDLLRNLLQVDLTKRFGNLKNGVNDIKNHKWFATTDWIAIYQRKVEAPFIPKFKGPGDTSNFDDYEEEEIRVSINEKCGKEFTEF

>  <Sequence_Length>  (82) 
356.0

>  <Mutation_Count>  (82) 
0.0

>  <Gene_Name>  (82) 
PKACA

>  <MW>  (82) 
41.566

>  <Name>  (82) 
cAMP-Dependent Protein Kinase Catalytic Subunit Alpha

>  <Mutations>  (82) 
nan

>  <EC_Number>  (82) 
2.7.11.11

>  <Peptidic_Inhibitor>  (82) 
True

>  <Lig_Missing_Atoms>  (82) 
['No']

>  <PDBbind_Resolution>  (82) 
nan

>  <PDBbind_Release_Year>  (82) 
nan

>  <PDBbind_Comment>  (82) 
nan

>  <PDBbind_Uniprot_Id>  (82) 
nan

>  <PDBbind_Protein_Name>  (82) 
nan

>  <PDBbind_-Logkd/Ki>  (82) 
nan

>  <PDBbind_Kd/Ki>  (82) 
nan

>  <PDBbind_Kd_Or_Ki_Or_Ic50>  (82) 
nan

>  <PDBbind_Relation>  (82) 
nan

>  <PDBbind_Value>  (82) 
nan

>  <PDBbind_Unit>  (82) 
nan

>  <PDBbind_Standard_Value>  (82) 
nan

>  <PDBbind_Standard_Unit>  (82) 
nan

>  <PDB_Chain>  (82) 
['A']

>  <Num_Ligs>  (82) 
[1.0]

>  <Orthosteric>  (82) 
[1.0]

>  <Allosteric>  (82) 
[0.0]

>  <Pockets_Assigned>  (82) 
['A']

>  <Multisite>  (82) 
[False]

>  <Same_Number>  (82) 
True

>  <Same_Binding_Site>  (82) 
True

>  <Same_Orientation>  (82) 
True

>  <Lig_Order_in_.pdb>  (82) 
Orthosteric

$$$$

     RDKit          2D

 27 29  0  0  0  0  0  0  0  0999 V2000
    1.5000    0.0000    0.0000 C   0  0  0  0  0  0  0  0  0  0  0  0
    0.7500   -1.2990    0.0000 N   0  0  0  0  0  0  0  0  0  0  0  0
   -0.7500   -1.2990    0.0000 C   0  0  0  0  0  0  0  0  0  0  0  0
   -1.5000    0.0000    0.0000 C   0  0  0  0  0  0  0  0  0  0  0  0
   -0.7500    1.2990    0.0000 C   0  0  0  0  0  0  0  0  0  0  0  0
    0.7500    1.2990    0.0000 N   0  0  0  0  0  0  0  0  0  0  0  0
   -1.7537    2.4138    0.0000 N   0  0  0  0  0  0  0  0  0  0  0  0
   -3.1240    1.8037    0.0000 C   0  0  0  0  0  0  0  0  0  0  0  0
   -2.9672    0.3119    0.0000 N   0  0  0  0  0  0  0  0  0  0  0  0
   -1.4418    3.8810    0.0000 C   0  0  0  0  0  0  0  0  0  0  0  0
   -2.4455    4.9957    0.0000 C   0  0  0  0  0  0  0  0  0  0  0  0
   -1.6955    6.2947    0.0000 C   0  0  0  0  0  0  0  0  0  0  0  0
   -0.2283    5.9829    0.0000 C   0  0  0  0  0  0  0  0  0  0  0  0
   -0.0715    4.4911    0.0000 O   0  0  0  0  0  0  0  0  0  0  0  0
    0.8864    6.9866    0.0000 C   0  0  0  0  0  0  0  0  0  0  0  0
    2.3130    6.5230    0.0000 O   0  0  0  0  0  0  0  0  0  0  0  0
    3.4277    7.5267    0.0000 P   0  0  0  0  0  5  0  0  0  0  0  0
    2.4240    8.6414    0.0000 O   0  0  0  0  0  0  0  0  0  0  0  0
    4.4314    6.4120    0.0000 O   0  0  0  0  0  0  0  0  0  0  0  0
    4.5424    8.5304    0.0000 O   0  0  0  0  0  0  0  0  0  0  0  0
    4.2306    9.9976    0.0000 P   0  0  0  0  0  0  0  0  0  0  0  0
    5.6978   10.3095    0.0000 O   0  0  0  0  0  0  0  0  0  0  0  0
    2.7633    9.6858    0.0000 O   0  0  0  0  0  0  0  0  0  0  0  0
    3.9187   11.4649    0.0000 O   0  0  0  0  0  0  0  0  0  0  0  0
   -2.3056    7.6651    0.0000 O   0  0  0  0  0  0  0  0  0  0  0  0
   -3.9373    4.8389    0.0000 O   0  0  0  0  0  0  0  0  0  0  0  0
   -1.5000   -2.5981    0.0000 N   0  0  0  0  0  0  0  0  0  0  0  0
  1  2  2  0
  2  3  1  0
  3  4  2  0
  4  5  1  0
  5  6  2  0
  5  7  1  0
  7  8  1  0
  8  9  2  0
 10  7  1  1
 10 11  1  0
 11 12  1  0
 12 13  1  0
 13 14  1  0
 13 15  1  1
 15 16  1  0
 16 17  1  0
 17 18  2  0
 17 19  1  6
 17 20  1  0
 20 21  1  0
 21 22  2  0
 21 23  1  0
 21 24  1  0
 12 25  1  6
 11 26  1  6
  3 27  1  0
  6  1  1  0
  9  4  1  0
 14 10  1  0
M  END
>  <Structure>  (83) 
4IB0

>  <Dataset>  (83) 
PDB

>  <Chain>  (83) 
A

>  <Spatial_Label>  (83) 
DFGin

>  <Dihedral_Label>  (83) 
BLAminus

>  <C_Helix_Label>  (83) 
Chelix-in

>  <Lig_ID>  (83) 
ADP

>  <Lig_Entity_ID>  (83) 
4IB0_4

>  <Lig_Name>  (83) 
ADENOSINE-5'-DIPHOSPHATE

>  <Lig_Formula>  (83) 
C10H15N5O10P2

>  <Lig_SMILES>  (83) 
c1nc(c2c(n1)n(cn2)[C@H]3[C@@H]([C@@H]([C@H](O3)CO[P@](=O)(O)OP(=O)(O)O)O)O)N

>  <Lig_MW>  (83) 
427.201

>  <Lig_ChEMBL_ID>  (83) 
['CHEMBL14830']

>  <Lig_DrugBank_ID>  (83) 
['DB16833']

>  <Occurence>  (83) 
19.0

>  <Lig_SMILES_Uncharged>  (83) 
Nc1ncnc2c1ncn2[C@@H]1O[C@H](CO[P@](=O)(O)OP(=O)(O)O)[C@@H](O)[C@H]1O

>  <Lig_Conformer>  (83) 
['NaN']

>  <Lig_Of_Interest>  (83) 
['Y']

>  <Lig_Completeness>  (83) 
[1.0]

>  <Lig_Occupancy>  (83) 
[1.0]

>  <Lig_RSCC>  (83) 
[0.946]

>  <Lig_RSR>  (83) 
[0.097]

>  <Lig_RMSZ_Bonds>  (83) 
[1.2]

>  <Lig_RMSZ_Angles>  (83) 
[1.49]

>  <Lig_Alt_Conf>  (83) 
0.0

>  <Title>  (83) 
X-ray Structure of cAMP dependent protein kinase A in complex with high Na+ concentration, ADP and phosphorylated peptide pSP20

>  <Nonpolymer_Entity_Count>  (83) 
3.0

>  <Protein_Entity_Count>  (83) 
2.0

>  <Exp_Method>  (83) 
X-Ray Diffraction

>  <Cryst_Method>  (83) 
Vapor Diffusion, Sitting Drop; 100 Mm Mes pH 6.5, 5 Mm Dtt, 15-20% Peg 4000, Vapor Diffusion, Sitting Drop, Temperature 277K

>  <Deposit_Date>  (83) 
2012-12-07

>  <Resolution>  (83) 
1.87

>  <DOI>  (83) 
https://doi.org/10.1021/bi5000965

>  <Source_Organism>  (83) 
Mus musculus

>  <R_Free>  (83) 
0.2867

>  <Keywords>  (83) 
Transferase/Peptide

>  <REMARK_280>  (83) 
 Crystal Solvent Content, Vs (%): 51.49 Matthews Coefficient, Vm (Angstroms**3/Da): 2.54 Crystallization Conditions: 100 Mm Mes pH 6.5, 5 Mm Dtt, 15-20% Peg 4000, Vapor Diffusion, Sitting Drop, Temperature 277K 

>  <REMARK_610>  (83) 
nan

>  <pH>  (83) 
6.5

>  <Cryst_Technique>  (83) 
co-crystallized

>  <Sequence>  (83) 
HHHHHHGNAAAAKKGSEQESVKEFLAKAKEDFLKKWETPSQNTAQLDQFDRIKTLGTGSFGRVMLVKHKESGNHYAMKILDKQKVVKLKQIEHTLNEKRILQAVNFPFLVKLEFSFKDNSNLYMVMEYVAGGEMFSHLRRIGRFSEPHARFYAAQIVLTFEYLHSLDLIYRDLKPENLLIDQQGYIQVTDFGFAKRVKGRTWTLCGTPEYLAPEIILSKGYNKAVDWWALGVLIYEMAAGYPPFFADQPIQIYEKIVSGKVRFPSHFSSDLKDLLRNLLQVDLTKRFGNLKNGVNDIKNHKWFATTDWIAIYQRKVEAPFIPKFKGPGDTSNFDDYEEEEIRVSINEKCGKEFTEF

>  <Sequence_Length>  (83) 
356.0

>  <Mutation_Count>  (83) 
0.0

>  <Gene_Name>  (83) 
PKACA

>  <MW>  (83) 
41.566

>  <Name>  (83) 
cAMP-Dependent Protein Kinase Catalytic Subunit Alpha

>  <Mutations>  (83) 
nan

>  <EC_Number>  (83) 
2.7.11.11

>  <Peptidic_Inhibitor>  (83) 
True

>  <Lig_Missing_Atoms>  (83) 
['No']

>  <PDBbind_Resolution>  (83) 
nan

>  <PDBbind_Release_Year>  (83) 
nan

>  <PDBbind_Comment>  (83) 
nan

>  <PDBbind_Uniprot_Id>  (83) 
nan

>  <PDBbind_Protein_Name>  (83) 
nan

>  <PDBbind_-Logkd/Ki>  (83) 
nan

>  <PDBbind_Kd/Ki>  (83) 
nan

>  <PDBbind_Kd_Or_Ki_Or_Ic50>  (83) 
nan

>  <PDBbind_Relation>  (83) 
nan

>  <PDBbind_Value>  (83) 
nan

>  <PDBbind_Unit>  (83) 
nan

>  <PDBbind_Standard_Value>  (83) 
nan

>  <PDBbind_Standard_Unit>  (83) 
nan

>  <PDB_Chain>  (83) 
['A']

>  <Num_Ligs>  (83) 
[1.0]

>  <Orthosteric>  (83) 
[1.0]

>  <Allosteric>  (83) 
[0.0]

>  <Pockets_Assigned>  (83) 
['A']

>  <Multisite>  (83) 
[False]

>  <Same_Number>  (83) 
True

>  <Same_Binding_Site>  (83) 
True

>  <Same_Orientation>  (83) 
True

>  <Lig_Order_in_.pdb>  (83) 
Orthosteric

$$$$

     RDKit          2D

 27 29  0  0  0  0  0  0  0  0999 V2000
    1.5000    0.0000    0.0000 C   0  0  0  0  0  0  0  0  0  0  0  0
    0.7500   -1.2990    0.0000 N   0  0  0  0  0  0  0  0  0  0  0  0
   -0.7500   -1.2990    0.0000 C   0  0  0  0  0  0  0  0  0  0  0  0
   -1.5000    0.0000    0.0000 C   0  0  0  0  0  0  0  0  0  0  0  0
   -0.7500    1.2990    0.0000 C   0  0  0  0  0  0  0  0  0  0  0  0
    0.7500    1.2990    0.0000 N   0  0  0  0  0  0  0  0  0  0  0  0
   -1.7537    2.4138    0.0000 N   0  0  0  0  0  0  0  0  0  0  0  0
   -3.1240    1.8037    0.0000 C   0  0  0  0  0  0  0  0  0  0  0  0
   -2.9672    0.3119    0.0000 N   0  0  0  0  0  0  0  0  0  0  0  0
   -1.4418    3.8810    0.0000 C   0  0  0  0  0  0  0  0  0  0  0  0
   -2.4455    4.9957    0.0000 C   0  0  0  0  0  0  0  0  0  0  0  0
   -1.6955    6.2947    0.0000 C   0  0  0  0  0  0  0  0  0  0  0  0
   -0.2283    5.9829    0.0000 C   0  0  0  0  0  0  0  0  0  0  0  0
   -0.0715    4.4911    0.0000 O   0  0  0  0  0  0  0  0  0  0  0  0
    0.8864    6.9866    0.0000 C   0  0  0  0  0  0  0  0  0  0  0  0
    2.3130    6.5230    0.0000 O   0  0  0  0  0  0  0  0  0  0  0  0
    3.4277    7.5267    0.0000 P   0  0  0  0  0  5  0  0  0  0  0  0
    2.4240    8.6414    0.0000 O   0  0  0  0  0  0  0  0  0  0  0  0
    4.4314    6.4120    0.0000 O   0  0  0  0  0  0  0  0  0  0  0  0
    4.5424    8.5304    0.0000 O   0  0  0  0  0  0  0  0  0  0  0  0
    4.2306    9.9976    0.0000 P   0  0  0  0  0  0  0  0  0  0  0  0
    5.6978   10.3095    0.0000 O   0  0  0  0  0  0  0  0  0  0  0  0
    2.7633    9.6858    0.0000 O   0  0  0  0  0  0  0  0  0  0  0  0
    3.9187   11.4649    0.0000 O   0  0  0  0  0  0  0  0  0  0  0  0
   -2.3056    7.6651    0.0000 O   0  0  0  0  0  0  0  0  0  0  0  0
   -3.9373    4.8389    0.0000 O   0  0  0  0  0  0  0  0  0  0  0  0
   -1.5000   -2.5981    0.0000 N   0  0  0  0  0  0  0  0  0  0  0  0
  1  2  2  0
  2  3  1  0
  3  4  2  0
  4  5  1  0
  5  6  2  0
  5  7  1  0
  7  8  1  0
  8  9  2  0
 10  7  1  1
 10 11  1  0
 11 12  1  0
 12 13  1  0
 13 14  1  0
 13 15  1  1
 15 16  1  0
 16 17  1  0
 17 18  2  0
 17 19  1  6
 17 20  1  0
 20 21  1  0
 21 22  2  0
 21 23  1  0
 21 24  1  0
 12 25  1  6
 11 26  1  6
  3 27  1  0
  6  1  1  0
  9  4  1  0
 14 10  1  0
M  END
>  <Structure>  (84) 
4IB1

>  <Dataset>  (84) 
PDB

>  <Chain>  (84) 
A

>  <Spatial_Label>  (84) 
DFGin

>  <Dihedral_Label>  (84) 
BLAminus

>  <C_Helix_Label>  (84) 
Chelix-in

>  <Lig_ID>  (84) 
ADP

>  <Lig_Entity_ID>  (84) 
4IB1_4

>  <Lig_Name>  (84) 
ADENOSINE-5'-DIPHOSPHATE

>  <Lig_Formula>  (84) 
C10H15N5O10P2

>  <Lig_SMILES>  (84) 
c1nc(c2c(n1)n(cn2)[C@H]3[C@@H]([C@@H]([C@H](O3)CO[P@](=O)(O)OP(=O)(O)O)O)O)N

>  <Lig_MW>  (84) 
427.201

>  <Lig_ChEMBL_ID>  (84) 
['CHEMBL14830']

>  <Lig_DrugBank_ID>  (84) 
['DB16833']

>  <Occurence>  (84) 
19.0

>  <Lig_SMILES_Uncharged>  (84) 
Nc1ncnc2c1ncn2[C@@H]1O[C@H](CO[P@](=O)(O)OP(=O)(O)O)[C@@H](O)[C@H]1O

>  <Lig_Conformer>  (84) 
['NaN']

>  <Lig_Of_Interest>  (84) 
['Y']

>  <Lig_Completeness>  (84) 
[1.0]

>  <Lig_Occupancy>  (84) 
[1.0]

>  <Lig_RSCC>  (84) 
[0.932]

>  <Lig_RSR>  (84) 
[0.118]

>  <Lig_RMSZ_Bonds>  (84) 
[1.19]

>  <Lig_RMSZ_Angles>  (84) 
[1.42]

>  <Lig_Alt_Conf>  (84) 
0.0

>  <Title>  (84) 
Structure of cAMP dependent protein kinase A in complex with high K+ concentration, ADP and phosphorylated peptide pSP20

>  <Nonpolymer_Entity_Count>  (84) 
3.0

>  <Protein_Entity_Count>  (84) 
2.0

>  <Exp_Method>  (84) 
X-Ray Diffraction

>  <Cryst_Method>  (84) 
Vapor Diffusion, Sitting Drop; 100 Mm Mes pH 6.5, 5 Mm Dtt, 15-20% Peg 4000, Vapor Diffusion, Sitting Drop, Temperature 277K

>  <Deposit_Date>  (84) 
2012-12-07

>  <Resolution>  (84) 
1.63

>  <DOI>  (84) 
https://doi.org/10.1021/bi5000965

>  <Source_Organism>  (84) 
Mus musculus

>  <R_Free>  (84) 
0.2231

>  <Keywords>  (84) 
Transferase/Peptide

>  <REMARK_280>  (84) 
 Crystal Solvent Content, Vs (%): 52.60 Matthews Coefficient, Vm (Angstroms**3/Da): 2.59 Crystallization Conditions: 100 Mm Mes pH 6.5, 5 Mm Dtt, 15-20% Peg 4000, Vapor Diffusion, Sitting Drop, Temperature 277K 

>  <REMARK_610>  (84) 
nan

>  <pH>  (84) 
6.5

>  <Cryst_Technique>  (84) 
co-crystallized

>  <Sequence>  (84) 
HHHHHHGNAAAAKKGSEQESVKEFLAKAKEDFLKKWETPSQNTAQLDQFDRIKTLGTGSFGRVMLVKHKESGNHYAMKILDKQKVVKLKQIEHTLNEKRILQAVNFPFLVKLEFSFKDNSNLYMVMEYVAGGEMFSHLRRIGRFSEPHARFYAAQIVLTFEYLHSLDLIYRDLKPENLLIDQQGYIQVTDFGFAKRVKGRTWTLCGTPEYLAPEIILSKGYNKAVDWWALGVLIYEMAAGYPPFFADQPIQIYEKIVSGKVRFPSHFSSDLKDLLRNLLQVDLTKRFGNLKNGVNDIKNHKWFATTDWIAIYQRKVEAPFIPKFKGPGDTSNFDDYEEEEIRVSINEKCGKEFTEF

>  <Sequence_Length>  (84) 
356.0

>  <Mutation_Count>  (84) 
0.0

>  <Gene_Name>  (84) 
PKACA

>  <MW>  (84) 
41.566

>  <Name>  (84) 
cAMP-Dependent Protein Kinase Catalytic Subunit Alpha

>  <Mutations>  (84) 
nan

>  <EC_Number>  (84) 
2.7.11.11

>  <Peptidic_Inhibitor>  (84) 
True

>  <Lig_Missing_Atoms>  (84) 
['No']

>  <PDBbind_Resolution>  (84) 
nan

>  <PDBbind_Release_Year>  (84) 
nan

>  <PDBbind_Comment>  (84) 
nan

>  <PDBbind_Uniprot_Id>  (84) 
nan

>  <PDBbind_Protein_Name>  (84) 
nan

>  <PDBbind_-Logkd/Ki>  (84) 
nan

>  <PDBbind_Kd/Ki>  (84) 
nan

>  <PDBbind_Kd_Or_Ki_Or_Ic50>  (84) 
nan

>  <PDBbind_Relation>  (84) 
nan

>  <PDBbind_Value>  (84) 
nan

>  <PDBbind_Unit>  (84) 
nan

>  <PDBbind_Standard_Value>  (84) 
nan

>  <PDBbind_Standard_Unit>  (84) 
nan

>  <PDB_Chain>  (84) 
['A']

>  <Num_Ligs>  (84) 
[1.0]

>  <Orthosteric>  (84) 
[1.0]

>  <Allosteric>  (84) 
[0.0]

>  <Pockets_Assigned>  (84) 
['A']

>  <Multisite>  (84) 
[False]

>  <Same_Number>  (84) 
True

>  <Same_Binding_Site>  (84) 
True

>  <Same_Orientation>  (84) 
True

>  <Lig_Order_in_.pdb>  (84) 
Orthosteric

$$$$

     RDKit          2D

 27 29  0  0  0  0  0  0  0  0999 V2000
    1.5000    0.0000    0.0000 C   0  0  0  0  0  0  0  0  0  0  0  0
    0.7500   -1.2990    0.0000 N   0  0  0  0  0  0  0  0  0  0  0  0
   -0.7500   -1.2990    0.0000 C   0  0  0  0  0  0  0  0  0  0  0  0
   -1.5000    0.0000    0.0000 C   0  0  0  0  0  0  0  0  0  0  0  0
   -0.7500    1.2990    0.0000 C   0  0  0  0  0  0  0  0  0  0  0  0
    0.7500    1.2990    0.0000 N   0  0  0  0  0  0  0  0  0  0  0  0
   -1.7537    2.4138    0.0000 N   0  0  0  0  0  0  0  0  0  0  0  0
   -3.1240    1.8037    0.0000 C   0  0  0  0  0  0  0  0  0  0  0  0
   -2.9672    0.3119    0.0000 N   0  0  0  0  0  0  0  0  0  0  0  0
   -1.4418    3.8810    0.0000 C   0  0  0  0  0  0  0  0  0  0  0  0
   -2.4455    4.9957    0.0000 C   0  0  0  0  0  0  0  0  0  0  0  0
   -1.6955    6.2947    0.0000 C   0  0  0  0  0  0  0  0  0  0  0  0
   -0.2283    5.9829    0.0000 C   0  0  0  0  0  0  0  0  0  0  0  0
   -0.0715    4.4911    0.0000 O   0  0  0  0  0  0  0  0  0  0  0  0
    0.8864    6.9866    0.0000 C   0  0  0  0  0  0  0  0  0  0  0  0
    2.3130    6.5230    0.0000 O   0  0  0  0  0  0  0  0  0  0  0  0
    3.4277    7.5267    0.0000 P   0  0  0  0  0  5  0  0  0  0  0  0
    2.4240    8.6414    0.0000 O   0  0  0  0  0  0  0  0  0  0  0  0
    4.4314    6.4120    0.0000 O   0  0  0  0  0  0  0  0  0  0  0  0
    4.5424    8.5304    0.0000 O   0  0  0  0  0  0  0  0  0  0  0  0
    4.2306    9.9976    0.0000 P   0  0  0  0  0  0  0  0  0  0  0  0
    5.6978   10.3095    0.0000 O   0  0  0  0  0  0  0  0  0  0  0  0
    2.7633    9.6858    0.0000 O   0  0  0  0  0  0  0  0  0  0  0  0
    3.9187   11.4649    0.0000 O   0  0  0  0  0  0  0  0  0  0  0  0
   -2.3056    7.6651    0.0000 O   0  0  0  0  0  0  0  0  0  0  0  0
   -3.9373    4.8389    0.0000 O   0  0  0  0  0  0  0  0  0  0  0  0
   -1.5000   -2.5981    0.0000 N   0  0  0  0  0  0  0  0  0  0  0  0
  1  2  2  0
  2  3  1  0
  3  4  2  0
  4  5  1  0
  5  6  2  0
  5  7  1  0
  7  8  1  0
  8  9  2  0
 10  7  1  1
 10 11  1  0
 11 12  1  0
 12 13  1  0
 13 14  1  0
 13 15  1  1
 15 16  1  0
 16 17  1  0
 17 18  2  0
 17 19  1  6
 17 20  1  0
 20 21  1  0
 21 22  2  0
 21 23  1  0
 21 24  1  0
 12 25  1  6
 11 26  1  6
  3 27  1  0
  6  1  1  0
  9  4  1  0
 14 10  1  0
M  END
>  <Structure>  (85) 
4IB3

>  <Dataset>  (85) 
PDB

>  <Chain>  (85) 
A

>  <Spatial_Label>  (85) 
DFGin

>  <Dihedral_Label>  (85) 
BLAminus

>  <C_Helix_Label>  (85) 
Chelix-in

>  <Lig_ID>  (85) 
ADP

>  <Lig_Entity_ID>  (85) 
4IB3_3

>  <Lig_Name>  (85) 
ADENOSINE-5'-DIPHOSPHATE

>  <Lig_Formula>  (85) 
C10H15N5O10P2

>  <Lig_SMILES>  (85) 
c1nc(c2c(n1)n(cn2)[C@H]3[C@@H]([C@@H]([C@H](O3)CO[P@](=O)(O)OP(=O)(O)O)O)O)N

>  <Lig_MW>  (85) 
427.201

>  <Lig_ChEMBL_ID>  (85) 
['CHEMBL14830']

>  <Lig_DrugBank_ID>  (85) 
['DB16833']

>  <Occurence>  (85) 
19.0

>  <Lig_SMILES_Uncharged>  (85) 
Nc1ncnc2c1ncn2[C@@H]1O[C@H](CO[P@](=O)(O)OP(=O)(O)O)[C@@H](O)[C@H]1O

>  <Lig_Conformer>  (85) 
['NaN']

>  <Lig_Of_Interest>  (85) 
['Y']

>  <Lig_Completeness>  (85) 
[1.0]

>  <Lig_Occupancy>  (85) 
[1.0]

>  <Lig_RSCC>  (85) 
[0.822]

>  <Lig_RSR>  (85) 
[0.18]

>  <Lig_RMSZ_Bonds>  (85) 
[1.14]

>  <Lig_RMSZ_Angles>  (85) 
[1.37]

>  <Lig_Alt_Conf>  (85) 
0.0

>  <Title>  (85) 
Structure of cAMP dependent protein kinase A in complex with ADP, phosphorylated peptide pSP20, and no metal

>  <Nonpolymer_Entity_Count>  (85) 
1.0

>  <Protein_Entity_Count>  (85) 
2.0

>  <Exp_Method>  (85) 
X-Ray Diffraction

>  <Cryst_Method>  (85) 
Vapor Diffusion, Sitting Drop; 100 Mm Mes pH 6.5, 5 Mm Dtt, 0.3M Edta, 15-20% Peg 4000, Vapor Diffusion, Sitting Drop, Temperature 277K

>  <Deposit_Date>  (85) 
2012-12-07

>  <Resolution>  (85) 
2.2

>  <DOI>  (85) 
https://doi.org/10.1021/bi5000965

>  <Source_Organism>  (85) 
Mus musculus

>  <R_Free>  (85) 
0.2279

>  <Keywords>  (85) 
Transferase/Peptide

>  <REMARK_280>  (85) 
 Crystal Solvent Content, Vs (%): 51.97 Matthews Coefficient, Vm (Angstroms**3/Da): 2.56 Crystallization Conditions: 100 Mm Mes pH 6.5, 5 Mm Dtt, 0.3M Edta, 15-20% Peg 4000, Vapor Diffusion, Sitting Drop, Temperature 277K 

>  <REMARK_610>  (85) 
nan

>  <pH>  (85) 
6.5

>  <Cryst_Technique>  (85) 
co-crystallized

>  <Sequence>  (85) 
HHHHHHGNAAAAKKGSEQESVKEFLAKAKEDFLKKWETPSQNTAQLDQFDRIKTLGTGSFGRVMLVKHKESGNHYAMKILDKQKVVKLKQIEHTLNEKRILQAVNFPFLVKLEFSFKDNSNLYMVMEYVAGGEMFSHLRRIGRFSEPHARFYAAQIVLTFEYLHSLDLIYRDLKPENLLIDQQGYIQVTDFGFAKRVKGRTWTLCGTPEYLAPEIILSKGYNKAVDWWALGVLIYEMAAGYPPFFADQPIQIYEKIVSGKVRFPSHFSSDLKDLLRNLLQVDLTKRFGNLKNGVNDIKNHKWFATTDWIAIYQRKVEAPFIPKFKGPGDTSNFDDYEEEEIRVSINEKCGKEFTEF

>  <Sequence_Length>  (85) 
356.0

>  <Mutation_Count>  (85) 
0.0

>  <Gene_Name>  (85) 
PKACA

>  <MW>  (85) 
41.566

>  <Name>  (85) 
cAMP-Dependent Protein Kinase Catalytic Subunit Alpha

>  <Mutations>  (85) 
nan

>  <EC_Number>  (85) 
2.7.11.11

>  <Peptidic_Inhibitor>  (85) 
True

>  <Lig_Missing_Atoms>  (85) 
['No']

>  <PDBbind_Resolution>  (85) 
nan

>  <PDBbind_Release_Year>  (85) 
nan

>  <PDBbind_Comment>  (85) 
nan

>  <PDBbind_Uniprot_Id>  (85) 
nan

>  <PDBbind_Protein_Name>  (85) 
nan

>  <PDBbind_-Logkd/Ki>  (85) 
nan

>  <PDBbind_Kd/Ki>  (85) 
nan

>  <PDBbind_Kd_Or_Ki_Or_Ic50>  (85) 
nan

>  <PDBbind_Relation>  (85) 
nan

>  <PDBbind_Value>  (85) 
nan

>  <PDBbind_Unit>  (85) 
nan

>  <PDBbind_Standard_Value>  (85) 
nan

>  <PDBbind_Standard_Unit>  (85) 
nan

>  <PDB_Chain>  (85) 
['A']

>  <Num_Ligs>  (85) 
[1.0]

>  <Orthosteric>  (85) 
[1.0]

>  <Allosteric>  (85) 
[0.0]

>  <Pockets_Assigned>  (85) 
['A']

>  <Multisite>  (85) 
[False]

>  <Same_Number>  (85) 
True

>  <Same_Binding_Site>  (85) 
True

>  <Same_Orientation>  (85) 
True

>  <Lig_Order_in_.pdb>  (85) 
Orthosteric

$$$$

     RDKit          2D

 16 17  0  0  0  0  0  0  0  0999 V2000
    0.4022  -10.3610    0.0000 C   0  0  0  0  0  0  0  0  0  0  0  0
    0.2454   -8.8692    0.0000 C   0  0  0  0  0  0  0  0  0  0  0  0
    1.3601   -7.8655    0.0000 C   0  0  0  0  0  0  0  0  0  0  0  0
    0.7500   -6.4952    0.0000 C   0  0  0  0  0  0  0  0  0  0  0  0
   -0.7418   -6.6520    0.0000 N   0  0  0  0  0  0  0  0  0  0  0  0
   -1.0537   -8.1192    0.0000 N   0  0  0  0  0  0  0  0  0  0  0  0
    1.5000   -5.1962    0.0000 C   0  0  0  0  0  0  0  0  0  0  0  0
    3.0000   -5.1962    0.0000 O   0  0  0  0  0  0  0  0  0  0  0  0
    0.7500   -3.8971    0.0000 O   0  0  0  0  0  0  0  0  0  0  0  0
    1.5000   -2.5981    0.0000 C   0  0  0  0  0  0  0  0  0  0  0  0
    0.7500   -1.2990    0.0000 C   0  0  0  0  0  0  0  0  0  0  0  0
    1.5000    0.0000    0.0000 C   0  0  0  0  0  0  0  0  0  0  0  0
    0.7500    1.2990    0.0000 C   0  0  0  0  0  0  0  0  0  0  0  0
   -0.7500    1.2990    0.0000 C   0  0  0  0  0  0  0  0  0  0  0  0
   -1.5000    0.0000    0.0000 N   0  0  0  0  0  0  0  0  0  0  0  0
   -0.7500   -1.2990    0.0000 C   0  0  0  0  0  0  0  0  0  0  0  0
  1  2  1  0
  2  3  2  0
  3  4  1  0
  4  5  2  0
  5  6  1  0
  4  7  1  0
  7  8  2  0
  7  9  1  0
  9 10  1  0
 10 11  1  0
 11 12  2  0
 12 13  1  0
 13 14  2  0
 14 15  1  0
 15 16  2  0
  6  2  1  0
 16 11  1  0
M  END
>  <Structure>  (86) 
4IE9

>  <Dataset>  (86) 
PDB

>  <Chain>  (86) 
A

>  <Spatial_Label>  (86) 
DFGin

>  <Dihedral_Label>  (86) 
BLAminus

>  <C_Helix_Label>  (86) 
Chelix-in

>  <Lig_ID>  (86) 
PZX

>  <Lig_Entity_ID>  (86) 
4IE9_3

>  <Lig_Name>  (86) 
pyridin-3-ylmethyl 5-methyl-1H-pyrazole-3-carboxylate

>  <Lig_Formula>  (86) 
C11H11N3O2

>  <Lig_SMILES>  (86) 
Cc1cc(n[nH]1)C(=O)OCc2cccnc2

>  <Lig_MW>  (86) 
217.224

>  <Lig_ChEMBL_ID>  (86) 
nan

>  <Lig_DrugBank_ID>  (86) 
nan

>  <Occurence>  (86) 
1.0

>  <Lig_SMILES_Uncharged>  (86) 
Cc1cc(C(=O)OCc2cccnc2)n[nH]1

>  <Lig_Conformer>  (86) 
['NaN']

>  <Lig_Of_Interest>  (86) 
['Y']

>  <Lig_Completeness>  (86) 
[1.0]

>  <Lig_Occupancy>  (86) 
[1.0]

>  <Lig_RSCC>  (86) 
[0.921]

>  <Lig_RSR>  (86) 
[0.106]

>  <Lig_RMSZ_Bonds>  (86) 
[2.52]

>  <Lig_RMSZ_Angles>  (86) 
[2.16]

>  <Lig_Alt_Conf>  (86) 
0.0

>  <Title>  (86) 
Bovine PKA C-alpha in complex with 3-pyridylmethyl-5-methyl-1H-pyrazole-3-carboxylate

>  <Nonpolymer_Entity_Count>  (86) 
2.0

>  <Protein_Entity_Count>  (86) 
2.0

>  <Exp_Method>  (86) 
X-Ray Diffraction

>  <Cryst_Method>  (86) 
Vapor Diffusion; pH 6.4, Vapor Diffusion, Temperature 278K

>  <Deposit_Date>  (86) 
2012-12-13

>  <Resolution>  (86) 
1.92

>  <DOI>  (86) 
https://doi.org/10.1021/ja4007468

>  <Source_Organism>  (86) 
Bos taurus

>  <R_Free>  (86) 
0.2319

>  <Keywords>  (86) 
Transferase/Transferase Inhibitor

>  <REMARK_280>  (86) 
 Crystal Solvent Content, Vs (%): 51.80 Matthews Coefficient, Vm (Angstroms**3/Da): 2.55 Crystallization Conditions: pH 6.4, Vapor Diffusion, Temperature 278K 

>  <REMARK_610>  (86) 
nan

>  <pH>  (86) 
6.4

>  <Cryst_Technique>  (86) 
soaked

>  <Sequence>  (86) 
MGNAAAAKKGSEQESVKEFLAKAKEDFLKKWENPAQNTAHLDQFERIKTLGTGSFGRVMLVKHMETGNHYAMKILDKQKVVKLKQIEHTLNEKRILQAVNFPFLVKLEFSFKDNSNLYMVMEYVPGGEMFSHLRRIGRFSEPHARFYAAQIVLTFEYLHSLDLIYRDLKPENLLIDQQGYIQVTDFGFAKRVKGRTWTLCGTPEYLAPEIILSKGYNKAVDWWALGVLIYEMAAGYPPFFADQPIQIYEKIVSGKVRFPSHFSSDLKDLLRNLLQVDLTKRFGNLKNGVNDIKNHKWFATTDWIAIYQRKVEAPFIPKFKGPGDTSNFDDYEEEEIRVSINEKCGKEFSEF

>  <Sequence_Length>  (86) 
351.0

>  <Mutation_Count>  (86) 
0.0

>  <Gene_Name>  (86) 
PKACA

>  <MW>  (86) 
40.838

>  <Name>  (86) 
cAMP-Dependent Protein Kinase Catalytic Subunit Alpha

>  <Mutations>  (86) 
nan

>  <EC_Number>  (86) 
2.7.11.11

>  <Peptidic_Inhibitor>  (86) 
True

>  <Lig_Missing_Atoms>  (86) 
['No']

>  <PDBbind_Resolution>  (86) 
nan

>  <PDBbind_Release_Year>  (86) 
nan

>  <PDBbind_Comment>  (86) 
nan

>  <PDBbind_Uniprot_Id>  (86) 
nan

>  <PDBbind_Protein_Name>  (86) 
nan

>  <PDBbind_-Logkd/Ki>  (86) 
nan

>  <PDBbind_Kd/Ki>  (86) 
nan

>  <PDBbind_Kd_Or_Ki_Or_Ic50>  (86) 
nan

>  <PDBbind_Relation>  (86) 
nan

>  <PDBbind_Value>  (86) 
nan

>  <PDBbind_Unit>  (86) 
nan

>  <PDBbind_Standard_Value>  (86) 
nan

>  <PDBbind_Standard_Unit>  (86) 
nan

>  <PDB_Chain>  (86) 
['A']

>  <Num_Ligs>  (86) 
[1.0]

>  <Orthosteric>  (86) 
[1.0]

>  <Allosteric>  (86) 
[0.0]

>  <Pockets_Assigned>  (86) 
['A']

>  <Multisite>  (86) 
[False]

>  <Same_Number>  (86) 
True

>  <Same_Binding_Site>  (86) 
True

>  <Same_Orientation>  (86) 
True

>  <Lig_Order_in_.pdb>  (86) 
Orthosteric

$$$$

     RDKit          2D

 20 22  0  0  0  0  0  0  0  0999 V2000
   -2.8533  -10.7999    0.0000 C   0  0  0  0  0  0  0  0  0  0  0  0
   -1.3615  -10.6431    0.0000 C   0  0  0  0  0  0  0  0  0  0  0  0
   -1.0496   -9.1759    0.0000 C   0  0  0  0  0  0  0  0  0  0  0  0
   -2.3486   -8.4259    0.0000 S   0  0  0  0  0  0  0  0  0  0  0  0
   -3.4634   -9.4296    0.0000 C   0  0  0  0  0  0  0  0  0  0  0  0
    0.3207   -8.5658    0.0000 C   0  0  0  0  0  0  0  0  0  0  0  0
    1.5342   -9.4474    0.0000 O   0  0  0  0  0  0  0  0  0  0  0  0
    0.4775   -7.0740    0.0000 C   0  0  0  0  0  0  0  0  0  0  0  0
    1.8478   -6.4639    0.0000 S   0  0  0  0  0  0  0  0  0  0  0  0
    2.0046   -4.9721    0.0000 C   0  0  0  0  0  0  0  0  0  0  0  0
    0.8899   -3.9684    0.0000 N   0  0  0  0  0  0  0  0  0  0  0  0
    1.5000   -2.5981    0.0000 C   0  0  0  0  0  0  0  0  0  0  0  0
    2.9918   -2.7549    0.0000 N   0  0  0  0  0  0  0  0  0  0  0  0
    3.3037   -4.2221    0.0000 N   0  0  0  0  0  0  0  0  0  0  0  0
    0.7500   -1.2990    0.0000 C   0  0  0  0  0  0  0  0  0  0  0  0
    1.5000    0.0000    0.0000 C   0  0  0  0  0  0  0  0  0  0  0  0
    0.7500    1.2990    0.0000 C   0  0  0  0  0  0  0  0  0  0  0  0
   -0.7500    1.2990    0.0000 N   0  0  0  0  0  0  0  0  0  0  0  0
   -1.5000    0.0000    0.0000 C   0  0  0  0  0  0  0  0  0  0  0  0
   -0.7500   -1.2990    0.0000 C   0  0  0  0  0  0  0  0  0  0  0  0
  1  2  1  0
  2  3  2  0
  3  4  1  0
  4  5  1  0
  3  6  1  0
  6  7  2  0
  6  8  1  0
  8  9  1  0
  9 10  1  0
 10 11  1  0
 11 12  2  0
 12 13  1  0
 13 14  1  0
 12 15  1  0
 15 16  2  0
 16 17  1  0
 17 18  2  0
 18 19  1  0
 19 20  2  0
  5  1  2  0
 14 10  2  0
 20 15  1  0
M  END
>  <Structure>  (87) 
4IJ9

>  <Dataset>  (87) 
PDB

>  <Chain>  (87) 
A

>  <Spatial_Label>  (87) 
DFGin

>  <Dihedral_Label>  (87) 
BLAminus

>  <C_Helix_Label>  (87) 
Chelix-in

>  <Lig_ID>  (87) 
PTV

>  <Lig_Entity_ID>  (87) 
4IJ9_3

>  <Lig_Name>  (87) 
2-[[5-(4-pyridyl)-1H-1,2,4-triazol-3-yl]sulfanyl]-1-(2-thiophenyl)ethanone

>  <Lig_Formula>  (87) 
C13H10N4OS2

>  <Lig_SMILES>  (87) 
c1cc(sc1)C(=O)CSc2nc([nH]n2)c3ccncc3

>  <Lig_MW>  (87) 
302.375

>  <Lig_ChEMBL_ID>  (87) 
nan

>  <Lig_DrugBank_ID>  (87) 
nan

>  <Occurence>  (87) 
1.0

>  <Lig_SMILES_Uncharged>  (87) 
O=C(CSc1n[nH]c(-c2ccncc2)n1)c1cccs1

>  <Lig_Conformer>  (87) 
['NaN']

>  <Lig_Of_Interest>  (87) 
['Y']

>  <Lig_Completeness>  (87) 
[1.0]

>  <Lig_Occupancy>  (87) 
[1.0]

>  <Lig_RSCC>  (87) 
[0.98]

>  <Lig_RSR>  (87) 
[0.12]

>  <Lig_RMSZ_Bonds>  (87) 
[2.21]

>  <Lig_RMSZ_Angles>  (87) 
[2.56]

>  <Lig_Alt_Conf>  (87) 
0.0

>  <Title>  (87) 
Bovine PKA C-alpha in complex with 2-[[5-(4-pyridyl)-1H-1,2,4-triazol-3-yl]sulfanyl]-1-(2-thiophenyl)ethanone

>  <Nonpolymer_Entity_Count>  (87) 
1.0

>  <Protein_Entity_Count>  (87) 
2.0

>  <Exp_Method>  (87) 
X-Ray Diffraction

>  <Cryst_Method>  (87) 
Vapor Diffusion, Hanging Drop; Licl, Mesbistris, Methanol, pH 6.4, Vapor Diffusion, Hanging Drop, Temperature 278K

>  <Deposit_Date>  (87) 
2012-12-21

>  <Resolution>  (87) 
2.55

>  <DOI>  (87) 
https://doi.org/10.1021/ja4007468

>  <Source_Organism>  (87) 
Bos taurus

>  <R_Free>  (87) 
0.2475

>  <Keywords>  (87) 
Transferase/Transferase Inhibitor

>  <REMARK_280>  (87) 
 Crystal Solvent Content, Vs (%): 51.37 Matthews Coefficient, Vm (Angstroms**3/Da): 2.53 Crystallization Conditions: Licl, Mesbistris, Methanol, pH 6.4, Vapor Diffusion, Hanging Drop, Temperature 278K 

>  <REMARK_610>  (87) 
nan

>  <pH>  (87) 
6.4

>  <Cryst_Technique>  (87) 
soaked

>  <Sequence>  (87) 
GNAAAAKKGSEQESVKEFLAKAKEDFLKKWENPAQNTAHLDQFERIKTLGTGSFGRVMLVKHMETGNHYAMKILDKQKVVKLKQIEHTLNEKRILQAVNFPFLVKLEFSFKDNSNLYMVMEYVPGGEMFSHLRRIGRFSEPHARFYAAQIVLTFEYLHSLDLIYRDLKPENLLIDQQGYIQVTDFGFAKRVKGRTWTLCGTPEYLAPEIILSKGYNKAVDWWALGVLIYEMAAGYPPFFADQPIQIYEKIVSGKVRFPSHFSSDLKDLLRNLLQVDLTKRFGNLKNGVNDIKNHKWFATTDWIAIYQRKVEAPFIPKFKGPGDTSNFDDYEEEEIRVSINEKCGKEFSEF

>  <Sequence_Length>  (87) 
350.0

>  <Mutation_Count>  (87) 
0.0

>  <Gene_Name>  (87) 
PKACA

>  <MW>  (87) 
40.706

>  <Name>  (87) 
cAMP-Dependent Protein Kinase Catalytic Subunit Alpha

>  <Mutations>  (87) 
nan

>  <EC_Number>  (87) 
2.7.11.11

>  <Peptidic_Inhibitor>  (87) 
True

>  <Lig_Missing_Atoms>  (87) 
['No']

>  <PDBbind_Resolution>  (87) 
nan

>  <PDBbind_Release_Year>  (87) 
nan

>  <PDBbind_Comment>  (87) 
nan

>  <PDBbind_Uniprot_Id>  (87) 
nan

>  <PDBbind_Protein_Name>  (87) 
nan

>  <PDBbind_-Logkd/Ki>  (87) 
nan

>  <PDBbind_Kd/Ki>  (87) 
nan

>  <PDBbind_Kd_Or_Ki_Or_Ic50>  (87) 
nan

>  <PDBbind_Relation>  (87) 
nan

>  <PDBbind_Value>  (87) 
nan

>  <PDBbind_Unit>  (87) 
nan

>  <PDBbind_Standard_Value>  (87) 
nan

>  <PDBbind_Standard_Unit>  (87) 
nan

>  <PDB_Chain>  (87) 
['A']

>  <Num_Ligs>  (87) 
[1.0]

>  <Orthosteric>  (87) 
[1.0]

>  <Allosteric>  (87) 
[0.0]

>  <Pockets_Assigned>  (87) 
['A']

>  <Multisite>  (87) 
[False]

>  <Same_Number>  (87) 
True

>  <Same_Binding_Site>  (87) 
True

>  <Same_Orientation>  (87) 
True

>  <Lig_Order_in_.pdb>  (87) 
Orthosteric

$$$$

     RDKit          2D

 27 29  0  0  0  0  0  0  0  0999 V2000
    1.5000    0.0000    0.0000 C   0  0  0  0  0  0  0  0  0  0  0  0
    0.7500   -1.2990    0.0000 N   0  0  0  0  0  0  0  0  0  0  0  0
   -0.7500   -1.2990    0.0000 C   0  0  0  0  0  0  0  0  0  0  0  0
   -1.5000    0.0000    0.0000 C   0  0  0  0  0  0  0  0  0  0  0  0
   -0.7500    1.2990    0.0000 C   0  0  0  0  0  0  0  0  0  0  0  0
    0.7500    1.2990    0.0000 N   0  0  0  0  0  0  0  0  0  0  0  0
   -1.7537    2.4138    0.0000 N   0  0  0  0  0  0  0  0  0  0  0  0
   -3.1240    1.8037    0.0000 C   0  0  0  0  0  0  0  0  0  0  0  0
   -2.9672    0.3119    0.0000 N   0  0  0  0  0  0  0  0  0  0  0  0
   -1.4418    3.8810    0.0000 C   0  0  0  0  0  0  0  0  0  0  0  0
   -2.4455    4.9957    0.0000 C   0  0  0  0  0  0  0  0  0  0  0  0
   -1.6955    6.2947    0.0000 C   0  0  0  0  0  0  0  0  0  0  0  0
   -0.2283    5.9829    0.0000 C   0  0  0  0  0  0  0  0  0  0  0  0
   -0.0715    4.4911    0.0000 O   0  0  0  0  0  0  0  0  0  0  0  0
    0.8864    6.9866    0.0000 C   0  0  0  0  0  0  0  0  0  0  0  0
    2.3130    6.5230    0.0000 O   0  0  0  0  0  0  0  0  0  0  0  0
    3.4277    7.5267    0.0000 P   0  0  0  0  0  5  0  0  0  0  0  0
    2.4240    8.6414    0.0000 O   0  0  0  0  0  0  0  0  0  0  0  0
    4.4314    6.4120    0.0000 O   0  0  0  0  0  0  0  0  0  0  0  0
    4.5424    8.5304    0.0000 O   0  0  0  0  0  0  0  0  0  0  0  0
    4.2306    9.9976    0.0000 P   0  0  0  0  0  0  0  0  0  0  0  0
    5.6978   10.3095    0.0000 O   0  0  0  0  0  0  0  0  0  0  0  0
    2.7633    9.6858    0.0000 O   0  0  0  0  0  0  0  0  0  0  0  0
    3.9187   11.4649    0.0000 O   0  0  0  0  0  0  0  0  0  0  0  0
   -2.3056    7.6651    0.0000 O   0  0  0  0  0  0  0  0  0  0  0  0
   -3.9373    4.8389    0.0000 O   0  0  0  0  0  0  0  0  0  0  0  0
   -1.5000   -2.5981    0.0000 N   0  0  0  0  0  0  0  0  0  0  0  0
  1  2  2  0
  2  3  1  0
  3  4  2  0
  4  5  1  0
  5  6  2  0
  5  7  1  0
  7  8  1  0
  8  9  2  0
 10  7  1  1
 10 11  1  0
 11 12  1  0
 12 13  1  0
 13 14  1  0
 13 15  1  1
 15 16  1  0
 16 17  1  0
 17 18  2  0
 17 19  1  6
 17 20  1  0
 20 21  1  0
 21 22  2  0
 21 23  1  0
 21 24  1  0
 12 25  1  6
 11 26  1  6
  3 27  1  0
  6  1  1  0
  9  4  1  0
 14 10  1  0
M  END
>  <Structure>  (88) 
4NTT

>  <Dataset>  (88) 
PDB

>  <Chain>  (88) 
['A', 'B']

>  <Spatial_Label>  (88) 
DFGin

>  <Dihedral_Label>  (88) 
['Unassigned', 'ABAminus']

>  <C_Helix_Label>  (88) 
Chelix-in

>  <Lig_ID>  (88) 
ADP

>  <Lig_Entity_ID>  (88) 
4NTT_2

>  <Lig_Name>  (88) 
ADENOSINE-5'-DIPHOSPHATE

>  <Lig_Formula>  (88) 
C10H15N5O10P2

>  <Lig_SMILES>  (88) 
c1nc(c2c(n1)n(cn2)[C@H]3[C@@H]([C@@H]([C@H](O3)CO[P@](=O)(O)OP(=O)(O)O)O)O)N

>  <Lig_MW>  (88) 
427.201

>  <Lig_ChEMBL_ID>  (88) 
['CHEMBL14830']

>  <Lig_DrugBank_ID>  (88) 
['DB16833']

>  <Occurence>  (88) 
19.0

>  <Lig_SMILES_Uncharged>  (88) 
Nc1ncnc2c1ncn2[C@@H]1O[C@H](CO[P@](=O)(O)OP(=O)(O)O)[C@@H](O)[C@H]1O

>  <Lig_Conformer>  (88) 
['NaN', 'NaN']

>  <Lig_Of_Interest>  (88) 
['Y', 'Y']

>  <Lig_Completeness>  (88) 
[1.0, 1.0]

>  <Lig_Occupancy>  (88) 
[1.0, 1.0]

>  <Lig_RSCC>  (88) 
[0.908, 0.882]

>  <Lig_RSR>  (88) 
[0.332, 0.263]

>  <Lig_RMSZ_Bonds>  (88) 
[1.01, 1.01]

>  <Lig_RMSZ_Angles>  (88) 
[1.43, 1.27]

>  <Lig_Alt_Conf>  (88) 
0.0

>  <Title>  (88) 
Structure of the catalytic subunit of cAMP-dependent protein kinase bound to ADP and one magnesium ion

>  <Nonpolymer_Entity_Count>  (88) 
4.0

>  <Protein_Entity_Count>  (88) 
2.0

>  <Exp_Method>  (88) 
X-Ray Diffraction

>  <Cryst_Method>  (88) 
Vapor Diffusion, Hanging Drop; 8% Mpd, 0.1 M Bicine, 150 Mm Ammonium Acetate, 10 Mm Dtt, 9% Methanol Added To The Well, pH 8.0, Vapor Diffusion, Hanging Drop, Temperature 277.15K

>  <Deposit_Date>  (88) 
2013-12-02

>  <Resolution>  (88) 
3.5

>  <DOI>  (88) 
https://doi.org/10.1021/bi500684c

>  <Source_Organism>  (88) 
Mus musculus

>  <R_Free>  (88) 
0.28371

>  <Keywords>  (88) 
Transferase

>  <REMARK_280>  (88) 
 Crystal Solvent Content, Vs (%): 54.51 Matthews Coefficient, Vm (Angstroms**3/Da): 2.70 Crystallization Conditions: 8% Mpd, 0.1 M Bicine, 150 Mm Ammonium Acetate, 10 Mm Dtt, 9% Methanol Added To The Well, pH 8.0, Vapor Diffusion, Hanging Drop, Temperature 277.15K 

>  <REMARK_610>  (88) 
nan

>  <pH>  (88) 
8.0

>  <Cryst_Technique>  (88) 
soaked

>  <Sequence>  (88) 
GNAAAACKGSEQESVKEFLAKAKEDFLKKWETPSQNTAQLDQFDRIKTLGTGSFGRVMLVKHKESGNHYAMKILDKQKVVKLKQIEHTLNEKRILQAVNFPFLVKLEFSFKDNSNLYMVMEYVAGGEMFSHLRRIGRFSEPHARFYAAQIVLTFEYLHSLDLIYRDLKPENLLIDQQGYIQVTDFGFAKRVKGRTWTLCGTPEYLAPEIILSKGYNKAVDWWALGVLIYEMAAGYPPFFADQPIQIYEKIVSGKVRFPSHFSSDLKDLLRNLLQVDLTKRFGNLKNGVNDIKNHKWFATTDWIAIYQRKVEAPFIPKFKGPGDTSNFDDYEEEEIRVSINEKCGKEFTEF

>  <Sequence_Length>  (88) 
350.0

>  <Mutation_Count>  (88) 
1.0

>  <Gene_Name>  (88) 
PKACA

>  <MW>  (88) 
40.631

>  <Name>  (88) 
cAMP-Dependent Protein Kinase Catalytic Subunit Alpha

>  <Mutations>  (88) 
K7C

>  <EC_Number>  (88) 
2.7.11.11

>  <Peptidic_Inhibitor>  (88) 
False

>  <Lig_Missing_Atoms>  (88) 
['No', 'No']

>  <PDBbind_Resolution>  (88) 
nan

>  <PDBbind_Release_Year>  (88) 
nan

>  <PDBbind_Comment>  (88) 
nan

>  <PDBbind_Uniprot_Id>  (88) 
nan

>  <PDBbind_Protein_Name>  (88) 
nan

>  <PDBbind_-Logkd/Ki>  (88) 
nan

>  <PDBbind_Kd/Ki>  (88) 
nan

>  <PDBbind_Kd_Or_Ki_Or_Ic50>  (88) 
nan

>  <PDBbind_Relation>  (88) 
nan

>  <PDBbind_Value>  (88) 
nan

>  <PDBbind_Unit>  (88) 
nan

>  <PDBbind_Standard_Value>  (88) 
nan

>  <PDBbind_Standard_Unit>  (88) 
nan

>  <PDB_Chain>  (88) 
['A', 'B']

>  <Num_Ligs>  (88) 
[1.0, 1.0]

>  <Orthosteric>  (88) 
[1.0, 1.0]

>  <Allosteric>  (88) 
[0.0, 0.0]

>  <Pockets_Assigned>  (88) 
['A', 'A']

>  <Multisite>  (88) 
[False, False]

>  <Same_Number>  (88) 
True

>  <Same_Binding_Site>  (88) 
True

>  <Same_Orientation>  (88) 
True

>  <Lig_Order_in_.pdb>  (88) 
Orthosteric; Orthosteric

$$$$

     RDKit          2D

 27 29  0  0  0  0  0  0  0  0999 V2000
    1.5000    0.0000    0.0000 C   0  0  0  0  0  0  0  0  0  0  0  0
    0.7500   -1.2990    0.0000 N   0  0  0  0  0  0  0  0  0  0  0  0
   -0.7500   -1.2990    0.0000 C   0  0  0  0  0  0  0  0  0  0  0  0
   -1.5000    0.0000    0.0000 C   0  0  0  0  0  0  0  0  0  0  0  0
   -0.7500    1.2990    0.0000 C   0  0  0  0  0  0  0  0  0  0  0  0
    0.7500    1.2990    0.0000 N   0  0  0  0  0  0  0  0  0  0  0  0
   -1.7537    2.4138    0.0000 N   0  0  0  0  0  0  0  0  0  0  0  0
   -3.1240    1.8037    0.0000 C   0  0  0  0  0  0  0  0  0  0  0  0
   -2.9672    0.3119    0.0000 N   0  0  0  0  0  0  0  0  0  0  0  0
   -1.4418    3.8810    0.0000 C   0  0  0  0  0  0  0  0  0  0  0  0
   -2.4455    4.9957    0.0000 C   0  0  0  0  0  0  0  0  0  0  0  0
   -1.6955    6.2947    0.0000 C   0  0  0  0  0  0  0  0  0  0  0  0
   -0.2283    5.9829    0.0000 C   0  0  0  0  0  0  0  0  0  0  0  0
   -0.0715    4.4911    0.0000 O   0  0  0  0  0  0  0  0  0  0  0  0
    0.8864    6.9866    0.0000 C   0  0  0  0  0  0  0  0  0  0  0  0
    2.3130    6.5230    0.0000 O   0  0  0  0  0  0  0  0  0  0  0  0
    3.4277    7.5267    0.0000 P   0  0  0  0  0  5  0  0  0  0  0  0
    2.4240    8.6414    0.0000 O   0  0  0  0  0  0  0  0  0  0  0  0
    4.4314    6.4120    0.0000 O   0  0  0  0  0  0  0  0  0  0  0  0
    4.5424    8.5304    0.0000 O   0  0  0  0  0  0  0  0  0  0  0  0
    4.2306    9.9976    0.0000 P   0  0  0  0  0  0  0  0  0  0  0  0
    5.6978   10.3095    0.0000 O   0  0  0  0  0  0  0  0  0  0  0  0
    2.7633    9.6858    0.0000 O   0  0  0  0  0  0  0  0  0  0  0  0
    3.9187   11.4649    0.0000 O   0  0  0  0  0  0  0  0  0  0  0  0
   -2.3056    7.6651    0.0000 O   0  0  0  0  0  0  0  0  0  0  0  0
   -3.9373    4.8389    0.0000 O   0  0  0  0  0  0  0  0  0  0  0  0
   -1.5000   -2.5981    0.0000 N   0  0  0  0  0  0  0  0  0  0  0  0
  1  2  2  0
  2  3  1  0
  3  4  2  0
  4  5  1  0
  5  6  2  0
  5  7  1  0
  7  8  1  0
  8  9  2  0
 10  7  1  1
 10 11  1  0
 11 12  1  0
 12 13  1  0
 13 14  1  0
 13 15  1  1
 15 16  1  0
 16 17  1  0
 17 18  2  0
 17 19  1  6
 17 20  1  0
 20 21  1  0
 21 22  2  0
 21 23  1  0
 21 24  1  0
 12 25  1  6
 11 26  1  6
  3 27  1  0
  6  1  1  0
  9  4  1  0
 14 10  1  0
M  END
>  <Structure>  (89) 
4O21

>  <Dataset>  (89) 
PDB

>  <Chain>  (89) 
A

>  <Spatial_Label>  (89) 
DFGin

>  <Dihedral_Label>  (89) 
BLAminus

>  <C_Helix_Label>  (89) 
Chelix-in

>  <Lig_ID>  (89) 
ADP

>  <Lig_Entity_ID>  (89) 
4O21_3

>  <Lig_Name>  (89) 
ADENOSINE-5'-DIPHOSPHATE

>  <Lig_Formula>  (89) 
C10H15N5O10P2

>  <Lig_SMILES>  (89) 
c1nc(c2c(n1)n(cn2)[C@H]3[C@@H]([C@@H]([C@H](O3)CO[P@](=O)(O)OP(=O)(O)O)O)O)N

>  <Lig_MW>  (89) 
427.201

>  <Lig_ChEMBL_ID>  (89) 
['CHEMBL14830']

>  <Lig_DrugBank_ID>  (89) 
['DB16833']

>  <Occurence>  (89) 
19.0

>  <Lig_SMILES_Uncharged>  (89) 
Nc1ncnc2c1ncn2[C@@H]1O[C@H](CO[P@](=O)(O)OP(=O)(O)O)[C@@H](O)[C@H]1O

>  <Lig_Conformer>  (89) 
['NaN']

>  <Lig_Of_Interest>  (89) 
['Y']

>  <Lig_Completeness>  (89) 
[1.0]

>  <Lig_Occupancy>  (89) 
[1.0]

>  <Lig_RSCC>  (89) 
[0.792]

>  <Lig_RSR>  (89) 
[0.245]

>  <Lig_RMSZ_Bonds>  (89) 
[1.04]

>  <Lig_RMSZ_Angles>  (89) 
[1.21]

>  <Lig_Alt_Conf>  (89) 
0.0

>  <Title>  (89) 
Product complex of metal-free PKAc, ATP-gamma-S and SP20.

>  <Nonpolymer_Entity_Count>  (89) 
1.0

>  <Protein_Entity_Count>  (89) 
2.0

>  <Exp_Method>  (89) 
X-Ray Diffraction

>  <Cryst_Method>  (89) 
Vapor Diffusion, Sitting Drop; 100 Mm Mes pH 6.5, 5 Mm Dtt, 15-20% Peg 4000., Vapor Diffusion, Sitting Drop, Temperature 277K

>  <Deposit_Date>  (89) 
2013-12-16

>  <Resolution>  (89) 
1.95

>  <DOI>  (89) 
https://doi.org/10.1021/bi5000965

>  <Source_Organism>  (89) 
Mus musculus

>  <R_Free>  (89) 
0.215

>  <Keywords>  (89) 
Hydrolase/Hydrolase Inhibitor

>  <REMARK_280>  (89) 
 Crystal Solvent Content, Vs (%): 52.61 Matthews Coefficient, Vm (Angstroms**3/Da): 2.60 Crystallization Conditions: 100 Mm Mes pH 6.5, 5 Mm Dtt, 15-20% Peg 4000., Vapor Diffusion, Sitting Drop, Temperature 277K 

>  <REMARK_610>  (89) 
nan

>  <pH>  (89) 
6.5

>  <Cryst_Technique>  (89) 
co-crystallized

>  <Sequence>  (89) 
HHHHHHVKEFLAKAKEDFLKKWETPSQNTAQLDQFDRIKTLGTGSFGRVMLVKHKESGNHYAMKILDKQKVVKLKQIEHTLNEKRILQAVNFPFLVKLEFSFKDNSNLYMVMEYVAGGEMFSHLRRIGRFSEPHARFYAAQIVLTFEYLHSLDLIYRDLKPENLLIDQQGYIQVTDFGFAKRVKGRTWTLCGTPEYLAPEIILSKGYNKAVDWWALGVLIYEMAAGYPPFFADQPIQIYEKIVSGKVRFPSHFSSDLKDLLRNLLQVDLTKRFGNLKNGVNDIKNHKWFATTDWIAIYQRKVEAPFIPKFKGPGDTSNFDDYEEEEIRVSINEKCGKEFTEF

>  <Sequence_Length>  (89) 
342.0

>  <Mutation_Count>  (89) 
0.0

>  <Gene_Name>  (89) 
PKACA

>  <MW>  (89) 
40.235

>  <Name>  (89) 
cAMP-Dependent Protein Kinase Catalytic Subunit Alpha

>  <Mutations>  (89) 
nan

>  <EC_Number>  (89) 
2.7.11.11

>  <Peptidic_Inhibitor>  (89) 
True

>  <Lig_Missing_Atoms>  (89) 
['No']

>  <PDBbind_Resolution>  (89) 
nan

>  <PDBbind_Release_Year>  (89) 
nan

>  <PDBbind_Comment>  (89) 
nan

>  <PDBbind_Uniprot_Id>  (89) 
nan

>  <PDBbind_Protein_Name>  (89) 
nan

>  <PDBbind_-Logkd/Ki>  (89) 
nan

>  <PDBbind_Kd/Ki>  (89) 
nan

>  <PDBbind_Kd_Or_Ki_Or_Ic50>  (89) 
nan

>  <PDBbind_Relation>  (89) 
nan

>  <PDBbind_Value>  (89) 
nan

>  <PDBbind_Unit>  (89) 
nan

>  <PDBbind_Standard_Value>  (89) 
nan

>  <PDBbind_Standard_Unit>  (89) 
nan

>  <PDB_Chain>  (89) 
['A']

>  <Num_Ligs>  (89) 
[1.0]

>  <Orthosteric>  (89) 
[1.0]

>  <Allosteric>  (89) 
[0.0]

>  <Pockets_Assigned>  (89) 
['A']

>  <Multisite>  (89) 
[False]

>  <Same_Number>  (89) 
True

>  <Same_Binding_Site>  (89) 
True

>  <Same_Orientation>  (89) 
True

>  <Lig_Order_in_.pdb>  (89) 
Orthosteric

$$$$

     RDKit          2D

 25 28  0  0  0  0  0  0  0  0999 V2000
    7.3934   -3.6905    0.0000 C   0  0  0  0  0  0  0  0  0  0  0  0
    5.9262   -3.3786    0.0000 C   0  0  0  0  0  0  0  0  0  0  0  0
    5.4627   -1.9520    0.0000 C   0  0  0  0  0  0  0  0  0  0  0  0
    6.4664   -0.8373    0.0000 C   0  0  0  0  0  0  0  0  0  0  0  0
    7.9336   -1.1492    0.0000 C   0  0  0  0  0  0  0  0  0  0  0  0
    8.3971   -2.5758    0.0000 C   0  0  0  0  0  0  0  0  0  0  0  0
    8.9373   -0.0345    0.0000 Cl  0  0  0  0  0  0  0  0  0  0  0  0
    3.9955   -1.6402    0.0000 C   0  0  0  0  0  0  0  0  0  0  0  0
    3.5320   -0.2136    0.0000 O   0  0  0  0  0  0  0  0  0  0  0  0
    2.9918   -2.7549    0.0000 C   0  0  0  0  0  0  0  0  0  0  0  0
    3.3037   -4.2221    0.0000 C   0  0  0  0  0  0  0  0  0  0  0  0
    2.0046   -4.9721    0.0000 N   0  0  0  0  0  0  0  0  0  0  0  0
    0.8899   -3.9684    0.0000 C   0  0  0  0  0  0  0  0  0  0  0  0
    1.5000   -2.5981    0.0000 C   0  0  0  0  0  0  0  0  0  0  0  0
    0.7500   -1.2990    0.0000 C   0  0  0  0  0  0  0  0  0  0  0  0
    1.5000    0.0000    0.0000 C   0  0  0  0  0  0  0  0  0  0  0  0
    0.7500    1.2990    0.0000 C   0  0  0  0  0  0  0  0  0  0  0  0
   -0.7500    1.2990    0.0000 C   0  0  0  0  0  0  0  0  0  0  0  0
   -1.5000    0.0000    0.0000 C   0  0  0  0  0  0  0  0  0  0  0  0
   -0.7500   -1.2990    0.0000 C   0  0  0  0  0  0  0  0  0  0  0  0
   -3.0000    0.0000    0.0000 N   0  0  0  0  0  0  0  0  0  0  0  0
   -3.7500    1.2990    0.0000 C   0  0  0  0  0  0  0  0  0  0  0  0
   -3.0000    2.5981    0.0000 N   0  0  0  0  0  0  0  0  0  0  0  0
   -1.5000    2.5981    0.0000 C   0  0  0  0  0  0  0  0  0  0  0  0
   -0.7500    3.8971    0.0000 O   0  0  0  0  0  0  0  0  0  0  0  0
  1  2  2  0
  2  3  1  0
  3  4  2  0
  4  5  1  0
  5  6  2  0
  5  7  1  0
  3  8  1  0
  8  9  2  0
 10  8  1  1
 10 11  1  0
 11 12  1  0
 12 13  1  0
 13 14  1  0
 14 15  1  6
 15 16  2  0
 16 17  1  0
 17 18  2  0
 18 19  1  0
 19 20  2  0
 19 21  1  0
 21 22  2  0
 22 23  1  0
 23 24  1  0
 24 25  2  0
  6  1  1  0
 14 10  1  0
 20 15  1  0
 24 18  1  0
M  END
>  <Structure>  (90) 
4UJ1

>  <Dataset>  (90) 
PDB

>  <Chain>  (90) 
A

>  <Spatial_Label>  (90) 
DFGin

>  <Dihedral_Label>  (90) 
BLAminus

>  <C_Helix_Label>  (90) 
Chelix-in

>  <Lig_ID>  (90) 
NVX

>  <Lig_Entity_ID>  (90) 
4UJ1_3

>  <Lig_Name>  (90) 
7-[(3S,4R)-4-(3-chlorophenyl)carbonylpyrrolidin-3-yl]-3H-quinazolin-4-one

>  <Lig_Formula>  (90) 
C19H16ClN3O2

>  <Lig_SMILES>  (90) 
c1cc(cc(c1)Cl)C(=O)[C@H]2CNC[C@@H]2c3ccc4c(c3)N=CNC4=O

>  <Lig_MW>  (90) 
353.802

>  <Lig_ChEMBL_ID>  (90) 
nan

>  <Lig_DrugBank_ID>  (90) 
nan

>  <Occurence>  (90) 
2.0

>  <Lig_SMILES_Uncharged>  (90) 
O=C(c1cccc(Cl)c1)[C@H]1CNC[C@@H]1c1ccc2c(=O)[nH]cnc2c1

>  <Lig_Conformer>  (90) 
['NaN']

>  <Lig_Of_Interest>  (90) 
['Y']

>  <Lig_Completeness>  (90) 
[1.0]

>  <Lig_Occupancy>  (90) 
[0.9772]

>  <Lig_RSCC>  (90) 
[0.923]

>  <Lig_RSR>  (90) 
[0.108]

>  <Lig_RMSZ_Bonds>  (90) 
[2.8]

>  <Lig_RMSZ_Angles>  (90) 
[2.85]

>  <Lig_Alt_Conf>  (90) 
0.0

>  <Title>  (90) 
Protein Kinase A in complex with an Inhibitor

>  <Nonpolymer_Entity_Count>  (90) 
2.0

>  <Protein_Entity_Count>  (90) 
2.0

>  <Exp_Method>  (90) 
X-Ray Diffraction

>  <Cryst_Method>  (90) 
Vapor Diffusion, Hanging Drop; 10Mg/Ml Protein, 25Mm Bistris/Mes pH6.9, 50Mm Kcl, 1.5Mm Octanoyl-N-Methylglucamide, 1Mm Protein Kinase Inhibitor Peptide, Vapor Diffusion, Hanging Drop, Temperature 277K

>  <Deposit_Date>  (90) 
2015-04-07

>  <Resolution>  (90) 
1.768

>  <DOI>  (90) 
https://doi.org/10.1002/CHEM.201503552

>  <Source_Organism>  (90) 
Homo sapiens

>  <R_Free>  (90) 
0.2014

>  <Keywords>  (90) 
Transferase/Inhibitor

>  <REMARK_280>  (90) 
 Crystal Solvent Content, Vs (%): 51.81 Matthews Coefficient, Vm (Angstroms**3/Da): 2.55 Crystallization Conditions: 10Mg/Ml Protein, 25Mm Bistris/Mes pH6.9, 50Mm Kcl, 1.5Mm Octanoyl-N-Methylglucamide, 1Mm Protein Kinase Inhibitor Peptide, Vapor Diffusion, Hanging Drop, Temperature 277K 

>  <REMARK_610>  (90) 
nan

>  <pH>  (90) 
6.9

>  <Cryst_Technique>  (90) 
co-crystallized

>  <Sequence>  (90) 
MGNAAAAKKGSEQESVKEFLAKAKEDFLKKWESPAQNTAHLDQFERIKTLGTGSFGRVMLVKHKETGNHYAMKILDKQKVVKLKQIEHTLNEKRILQAVNFPFLVKLEFSFKDNSNLYMVMEYVPGGEMFSHLRRIGRFSEPHARFYAAQIVLTFEYLHSLDLIYRDLKPENLLIDQQGYIQVTDFGFAKRVKGRTWTLCGTPEYLAPEIILSKGYNKAVDWWALGVLIYEMAAGYPPFFADQPIQIYEKIVSGKVRFPSHFSSDLKDLLRNLLQVDLTKRFGNLKNGVNDIKNHKWFATTDWIAIYQRKVEAPFIPKFKGPGDTSNFDDYEEEEIRVSINEKCGKEFSEF

>  <Sequence_Length>  (90) 
351.0

>  <Mutation_Count>  (90) 
0.0

>  <Gene_Name>  (90) 
nan

>  <MW>  (90) 
40.809

>  <Name>  (90) 
cAMP-Dependent Protein Kinase Catalytic Subunit Alpha

>  <Mutations>  (90) 
nan

>  <EC_Number>  (90) 
2.7.11.11

>  <Peptidic_Inhibitor>  (90) 
True

>  <Lig_Missing_Atoms>  (90) 
['No']

>  <PDBbind_Resolution>  (90) 
1.77

>  <PDBbind_Release_Year>  (90) 
2016.0

>  <PDBbind_Comment>  (90) 
compound 1c

>  <PDBbind_Uniprot_Id>  (90) 
P17612

>  <PDBbind_Protein_Name>  (90) 
CAMP-DEPENDENT PROTEIN KINASE

>  <PDBbind_-Logkd/Ki>  (90) 
6.52

>  <PDBbind_Kd/Ki>  (90) 
Ki=300nM

>  <PDBbind_Kd_Or_Ki_Or_Ic50>  (90) 
Ki

>  <PDBbind_Relation>  (90) 
=

>  <PDBbind_Value>  (90) 
300.0

>  <PDBbind_Unit>  (90) 
nM

>  <PDBbind_Standard_Value>  (90) 
300.0

>  <PDBbind_Standard_Unit>  (90) 
nM

>  <PDB_Chain>  (90) 
['A']

>  <Num_Ligs>  (90) 
[1.0]

>  <Orthosteric>  (90) 
[1.0]

>  <Allosteric>  (90) 
[0.0]

>  <Pockets_Assigned>  (90) 
['A']

>  <Multisite>  (90) 
[False]

>  <Same_Number>  (90) 
True

>  <Same_Binding_Site>  (90) 
True

>  <Same_Orientation>  (90) 
True

>  <Lig_Order_in_.pdb>  (90) 
Orthosteric

$$$$

     RDKit          2D

 25 28  0  0  0  0  0  0  0  0999 V2000
    7.3934   -3.6905    0.0000 C   0  0  0  0  0  0  0  0  0  0  0  0
    5.9262   -3.3786    0.0000 C   0  0  0  0  0  0  0  0  0  0  0  0
    5.4627   -1.9520    0.0000 C   0  0  0  0  0  0  0  0  0  0  0  0
    6.4664   -0.8373    0.0000 C   0  0  0  0  0  0  0  0  0  0  0  0
    7.9336   -1.1492    0.0000 C   0  0  0  0  0  0  0  0  0  0  0  0
    8.3971   -2.5758    0.0000 C   0  0  0  0  0  0  0  0  0  0  0  0
    8.9373   -0.0345    0.0000 I   0  0  0  0  0  0  0  0  0  0  0  0
    3.9955   -1.6402    0.0000 C   0  0  0  0  0  0  0  0  0  0  0  0
    3.5320   -0.2136    0.0000 O   0  0  0  0  0  0  0  0  0  0  0  0
    2.9918   -2.7549    0.0000 C   0  0  0  0  0  0  0  0  0  0  0  0
    3.3037   -4.2221    0.0000 C   0  0  0  0  0  0  0  0  0  0  0  0
    2.0046   -4.9721    0.0000 N   0  0  0  0  0  0  0  0  0  0  0  0
    0.8899   -3.9684    0.0000 C   0  0  0  0  0  0  0  0  0  0  0  0
    1.5000   -2.5981    0.0000 C   0  0  0  0  0  0  0  0  0  0  0  0
    0.7500   -1.2990    0.0000 C   0  0  0  0  0  0  0  0  0  0  0  0
    1.5000    0.0000    0.0000 C   0  0  0  0  0  0  0  0  0  0  0  0
    0.7500    1.2990    0.0000 C   0  0  0  0  0  0  0  0  0  0  0  0
   -0.7500    1.2990    0.0000 C   0  0  0  0  0  0  0  0  0  0  0  0
   -1.5000    0.0000    0.0000 C   0  0  0  0  0  0  0  0  0  0  0  0
   -0.7500   -1.2990    0.0000 C   0  0  0  0  0  0  0  0  0  0  0  0
   -3.0000    0.0000    0.0000 N   0  0  0  0  0  0  0  0  0  0  0  0
   -3.7500    1.2990    0.0000 C   0  0  0  0  0  0  0  0  0  0  0  0
   -3.0000    2.5981    0.0000 N   0  0  0  0  0  0  0  0  0  0  0  0
   -1.5000    2.5981    0.0000 C   0  0  0  0  0  0  0  0  0  0  0  0
   -0.7500    3.8971    0.0000 O   0  0  0  0  0  0  0  0  0  0  0  0
  1  2  2  0
  2  3  1  0
  3  4  2  0
  4  5  1  0
  5  6  2  0
  5  7  1  0
  3  8  1  0
  8  9  2  0
 10  8  1  1
 10 11  1  0
 11 12  1  0
 12 13  1  0
 13 14  1  0
 14 15  1  6
 15 16  2  0
 16 17  1  0
 17 18  2  0
 18 19  1  0
 19 20  2  0
 19 21  1  0
 21 22  2  0
 22 23  1  0
 23 24  1  0
 24 25  2  0
  6  1  1  0
 14 10  1  0
 20 15  1  0
 24 18  1  0
M  END
>  <Structure>  (91) 
4UJ2

>  <Dataset>  (91) 
PDB

>  <Chain>  (91) 
A

>  <Spatial_Label>  (91) 
DFGin

>  <Dihedral_Label>  (91) 
BLAminus

>  <C_Helix_Label>  (91) 
Chelix-in

>  <Lig_ID>  (91) 
NVV

>  <Lig_Entity_ID>  (91) 
4UJ2_3

>  <Lig_Name>  (91) 
7-[(3S,4R)-4-(3-iodanylphenyl)carbonylpyrrolidin-3-yl]-3H-quinazolin-4-one

>  <Lig_Formula>  (91) 
C19H16IN3O2

>  <Lig_SMILES>  (91) 
c1cc(cc(c1)I)C(=O)[C@H]2CNC[C@@H]2c3ccc4c(c3)N=CNC4=O

>  <Lig_MW>  (91) 
445.254

>  <Lig_ChEMBL_ID>  (91) 
nan

>  <Lig_DrugBank_ID>  (91) 
nan

>  <Occurence>  (91) 
1.0

>  <Lig_SMILES_Uncharged>  (91) 
O=C(c1cccc(I)c1)[C@H]1CNC[C@@H]1c1ccc2c(=O)[nH]cnc2c1

>  <Lig_Conformer>  (91) 
['NaN']

>  <Lig_Of_Interest>  (91) 
['Y']

>  <Lig_Completeness>  (91) 
[1.0]

>  <Lig_Occupancy>  (91) 
[0.96]

>  <Lig_RSCC>  (91) 
[0.96]

>  <Lig_RSR>  (91) 
[0.097]

>  <Lig_RMSZ_Bonds>  (91) 
[2.3]

>  <Lig_RMSZ_Angles>  (91) 
[1.84]

>  <Lig_Alt_Conf>  (91) 
0.0

>  <Title>  (91) 
Protein Kinase A in complex with an Inhibitor

>  <Nonpolymer_Entity_Count>  (91) 
2.0

>  <Protein_Entity_Count>  (91) 
2.0

>  <Exp_Method>  (91) 
X-Ray Diffraction

>  <Cryst_Method>  (91) 
Vapor Diffusion, Hanging Drop; 10Mg/Ml Protein, 25Mm Bistris/Mes pH6.9, 50Mm Kcl, 1.5Mm Octanoyl-N-Methylglucamide, 1Mm Protein Kinase Inhibitor Peptide, Vapor Diffusion, Hanging Drop, Temperature 277K

>  <Deposit_Date>  (91) 
2015-04-07

>  <Resolution>  (91) 
2.019

>  <DOI>  (91) 
https://doi.org/10.1002/CHEM.201503552

>  <Source_Organism>  (91) 
Homo sapiens

>  <R_Free>  (91) 
0.2092

>  <Keywords>  (91) 
Transferase/Inhibitor

>  <REMARK_280>  (91) 
 Crystal Solvent Content, Vs (%): 50.15 Matthews Coefficient, Vm (Angstroms**3/Da): 2.47 Crystallization Conditions: 10Mg/Ml Protein, 25Mm Bistris/Mes pH6.9, 50Mm Kcl, 1.5Mm Octanoyl-N-Methylglucamide, 1Mm Protein Kinase Inhibitor Peptide, Vapor Diffusion, Hanging Drop, Temperature 277K 

>  <REMARK_610>  (91) 
nan

>  <pH>  (91) 
6.9

>  <Cryst_Technique>  (91) 
co-crystallized

>  <Sequence>  (91) 
MGNAAAAKKGSEQESVKEFLAKAKEDFLKKWESPAQNTAHLDQFERIKTLGTGSFGRVMLVKHKETGNHYAMKILDKQKVVKLKQIEHTLNEKRILQAVNFPFLVKLEFSFKDNSNLYMVMEYVPGGEMFSHLRRIGRFSEPHARFYAAQIVLTFEYLHSLDLIYRDLKPENLLIDQQGYIQVTDFGFAKRVKGRTWTLCGTPEYLAPEIILSKGYNKAVDWWALGVLIYEMAAGYPPFFADQPIQIYEKIVSGKVRFPSHFSSDLKDLLRNLLQVDLTKRFGNLKNGVNDIKNHKWFATTDWIAIYQRKVEAPFIPKFKGPGDTSNFDDYEEEEIRVSINEKCGKEFSEF

>  <Sequence_Length>  (91) 
351.0

>  <Mutation_Count>  (91) 
0.0

>  <Gene_Name>  (91) 
nan

>  <MW>  (91) 
40.809

>  <Name>  (91) 
cAMP-Dependent Protein Kinase Catalytic Subunit Alpha

>  <Mutations>  (91) 
nan

>  <EC_Number>  (91) 
2.7.11.11

>  <Peptidic_Inhibitor>  (91) 
True

>  <Lig_Missing_Atoms>  (91) 
['No']

>  <PDBbind_Resolution>  (91) 
2.02

>  <PDBbind_Release_Year>  (91) 
2016.0

>  <PDBbind_Comment>  (91) 
compound 1e

>  <PDBbind_Uniprot_Id>  (91) 
P17612

>  <PDBbind_Protein_Name>  (91) 
CAMP-DEPENDENT PROTEIN KINASE

>  <PDBbind_-Logkd/Ki>  (91) 
7.1

>  <PDBbind_Kd/Ki>  (91) 
Ki=80nM

>  <PDBbind_Kd_Or_Ki_Or_Ic50>  (91) 
Ki

>  <PDBbind_Relation>  (91) 
=

>  <PDBbind_Value>  (91) 
80.0

>  <PDBbind_Unit>  (91) 
nM

>  <PDBbind_Standard_Value>  (91) 
80.0

>  <PDBbind_Standard_Unit>  (91) 
nM

>  <PDB_Chain>  (91) 
['A']

>  <Num_Ligs>  (91) 
[1.0]

>  <Orthosteric>  (91) 
[1.0]

>  <Allosteric>  (91) 
[0.0]

>  <Pockets_Assigned>  (91) 
['A']

>  <Multisite>  (91) 
[False]

>  <Same_Number>  (91) 
True

>  <Same_Binding_Site>  (91) 
True

>  <Same_Orientation>  (91) 
True

>  <Lig_Order_in_.pdb>  (91) 
Orthosteric

$$$$

     RDKit          2D

 28 31  0  0  0  0  0  0  0  0999 V2000
    6.4664   -0.8373    0.0000 C   0  0  0  0  0  0  0  0  0  0  0  0
    7.9336   -1.1492    0.0000 C   0  0  0  0  0  0  0  0  0  0  0  0
    8.3971   -2.5758    0.0000 C   0  0  0  0  0  0  0  0  0  0  0  0
    7.3934   -3.6905    0.0000 C   0  0  0  0  0  0  0  0  0  0  0  0
    5.9262   -3.3786    0.0000 C   0  0  0  0  0  0  0  0  0  0  0  0
    5.4627   -1.9520    0.0000 C   0  0  0  0  0  0  0  0  0  0  0  0
    3.9955   -1.6402    0.0000 C   0  0  0  0  0  0  0  0  0  0  0  0
    3.5320   -0.2136    0.0000 O   0  0  0  0  0  0  0  0  0  0  0  0
    2.9918   -2.7549    0.0000 C   0  0  0  0  0  0  0  0  0  0  0  0
    3.3037   -4.2221    0.0000 C   0  0  0  0  0  0  0  0  0  0  0  0
    2.0046   -4.9721    0.0000 N   0  0  0  0  0  0  0  0  0  0  0  0
    0.8899   -3.9684    0.0000 C   0  0  0  0  0  0  0  0  0  0  0  0
    1.5000   -2.5981    0.0000 C   0  0  0  0  0  0  0  0  0  0  0  0
    0.7500   -1.2990    0.0000 C   0  0  0  0  0  0  0  0  0  0  0  0
    1.5000    0.0000    0.0000 C   0  0  0  0  0  0  0  0  0  0  0  0
    0.7500    1.2990    0.0000 C   0  0  0  0  0  0  0  0  0  0  0  0
   -0.7500    1.2990    0.0000 C   0  0  0  0  0  0  0  0  0  0  0  0
   -1.5000    0.0000    0.0000 C   0  0  0  0  0  0  0  0  0  0  0  0
   -0.7500   -1.2990    0.0000 C   0  0  0  0  0  0  0  0  0  0  0  0
   -3.0000    0.0000    0.0000 N   0  0  0  0  0  0  0  0  0  0  0  0
   -3.7500    1.2990    0.0000 C   0  0  0  0  0  0  0  0  0  0  0  0
   -3.0000    2.5981    0.0000 N   0  0  0  0  0  0  0  0  0  0  0  0
   -1.5000    2.5981    0.0000 C   0  0  0  0  0  0  0  0  0  0  0  0
   -0.7500    3.8971    0.0000 O   0  0  0  0  0  0  0  0  0  0  0  0
    9.8644   -2.8876    0.0000 C   0  0  0  0  0  0  0  0  0  0  0  0
   11.3316   -3.1995    0.0000 F   0  0  0  0  0  0  0  0  0  0  0  0
    9.5525   -4.3548    0.0000 F   0  0  0  0  0  0  0  0  0  0  0  0
   10.1762   -1.4204    0.0000 F   0  0  0  0  0  0  0  0  0  0  0  0
  1  2  2  0
  2  3  1  0
  3  4  2  0
  4  5  1  0
  5  6  2  0
  6  7  1  0
  7  8  2  0
  9  7  1  1
  9 10  1  0
 10 11  1  0
 11 12  1  0
 12 13  1  0
 13 14  1  6
 14 15  2  0
 15 16  1  0
 16 17  2  0
 17 18  1  0
 18 19  2  0
 18 20  1  0
 20 21  2  0
 21 22  1  0
 22 23  1  0
 23 24  2  0
  3 25  1  0
 25 26  1  0
 25 27  1  0
 25 28  1  0
  6  1  1  0
 13  9  1  0
 19 14  1  0
 23 17  1  0
M  END
>  <Structure>  (92) 
4UJ9

>  <Dataset>  (92) 
PDB

>  <Chain>  (92) 
A

>  <Spatial_Label>  (92) 
DFGin

>  <Dihedral_Label>  (92) 
BLAminus

>  <C_Helix_Label>  (92) 
Chelix-in

>  <Lig_ID>  (92) 
S3N

>  <Lig_Entity_ID>  (92) 
4UJ9_3

>  <Lig_Name>  (92) 
7-[(3S,4R)-4-[4-(trifluoromethyl)phenyl]carbonylpyrrolidin-3-yl]-3H-quinazolin-4-one

>  <Lig_Formula>  (92) 
C20H16F3N3O2

>  <Lig_SMILES>  (92) 
c1cc(ccc1C(=O)[C@H]2CNC[C@@H]2c3ccc4c(c3)N=CNC4=O)C(F)(F)F

>  <Lig_MW>  (92) 
387.355

>  <Lig_ChEMBL_ID>  (92) 
nan

>  <Lig_DrugBank_ID>  (92) 
nan

>  <Occurence>  (92) 
1.0

>  <Lig_SMILES_Uncharged>  (92) 
O=C(c1ccc(C(F)(F)F)cc1)[C@H]1CNC[C@@H]1c1ccc2c(=O)[nH]cnc2c1

>  <Lig_Conformer>  (92) 
['NaN']

>  <Lig_Of_Interest>  (92) 
['Y']

>  <Lig_Completeness>  (92) 
[1.0]

>  <Lig_Occupancy>  (92) 
[1.0]

>  <Lig_RSCC>  (92) 
[0.957]

>  <Lig_RSR>  (92) 
[0.086]

>  <Lig_RMSZ_Bonds>  (92) 
[2.25]

>  <Lig_RMSZ_Angles>  (92) 
[2.14]

>  <Lig_Alt_Conf>  (92) 
0.0

>  <Title>  (92) 
Protein Kinase A in complex with an Inhibitor

>  <Nonpolymer_Entity_Count>  (92) 
3.0

>  <Protein_Entity_Count>  (92) 
2.0

>  <Exp_Method>  (92) 
X-Ray Diffraction

>  <Cryst_Method>  (92) 
Vapor Diffusion, Hanging Drop; 10Mg/Ml Protein, 25Mm Bistris/Mes pH6.9, 50Mm Kcl, 1.5Mm Octanoyl-N-Methylglucamide, 1Mm Protein Kinase Inhibitor Peptide, Vapor Diffusion, Hanging Drop, Temperature 277K

>  <Deposit_Date>  (92) 
2015-04-09

>  <Resolution>  (92) 
1.87

>  <DOI>  (92) 
https://doi.org/10.1002/CHEM.201503552

>  <Source_Organism>  (92) 
Homo sapiens

>  <R_Free>  (92) 
0.2065

>  <Keywords>  (92) 
Transferase

>  <REMARK_280>  (92) 
 Crystal Solvent Content, Vs (%): 51.79 Matthews Coefficient, Vm (Angstroms**3/Da): 2.55 Crystallization Conditions: 10Mg/Ml Protein, 25Mm Bistris/Mes pH6.9, 50Mm Kcl, 1.5Mm Octanoyl-N-Methylglucamide, 1Mm Protein Kinase Inhibitor Peptide, Vapor Diffusion, Hanging Drop, Temperature 277K 

>  <REMARK_610>  (92) 
nan

>  <pH>  (92) 
6.9

>  <Cryst_Technique>  (92) 
co-crystallized

>  <Sequence>  (92) 
MGNAAAAKKGSEQESVKEFLAKAKEDFLKKWESPAQNTAHLDQFERIKTLGTGSFGRVMLVKHKETGNHYAMKILDKQKVVKLKQIEHTLNEKRILQAVNFPFLVKLEFSFKDNSNLYMVMEYVPGGEMFSHLRRIGRFSEPHARFYAAQIVLTFEYLHSLDLIYRDLKPENLLIDQQGYIQVTDFGFAKRVKGRTWTLCGTPEYLAPEIILSKGYNKAVDWWALGVLIYEMAAGYPPFFADQPIQIYEKIVSGKVRFPSHFSSDLKDLLRNLLQVDLTKRFGNLKNGVNDIKNHKWFATTDWIAIYQRKVEAPFIPKFKGPGDTSNFDDYEEEEIRVSINEKCGKEFSEF

>  <Sequence_Length>  (92) 
351.0

>  <Mutation_Count>  (92) 
0.0

>  <Gene_Name>  (92) 
PKACA

>  <MW>  (92) 
40.809

>  <Name>  (92) 
cAMP-Dependent Protein Kinase Catalytic Subunit Alpha

>  <Mutations>  (92) 
nan

>  <EC_Number>  (92) 
2.7.11.11

>  <Peptidic_Inhibitor>  (92) 
True

>  <Lig_Missing_Atoms>  (92) 
['No']

>  <PDBbind_Resolution>  (92) 
1.87

>  <PDBbind_Release_Year>  (92) 
2016.0

>  <PDBbind_Comment>  (92) 
compound 1l

>  <PDBbind_Uniprot_Id>  (92) 
P17612

>  <PDBbind_Protein_Name>  (92) 
CAMP-DEPENDENT PROTEIN KINASE, ALPHA-CATALYTIC

>  <PDBbind_-Logkd/Ki>  (92) 
8.7

>  <PDBbind_Kd/Ki>  (92) 
Ki=2nM

>  <PDBbind_Kd_Or_Ki_Or_Ic50>  (92) 
Ki

>  <PDBbind_Relation>  (92) 
=

>  <PDBbind_Value>  (92) 
2.0

>  <PDBbind_Unit>  (92) 
nM

>  <PDBbind_Standard_Value>  (92) 
2.0

>  <PDBbind_Standard_Unit>  (92) 
nM

>  <PDB_Chain>  (92) 
['A']

>  <Num_Ligs>  (92) 
[1.0]

>  <Orthosteric>  (92) 
[1.0]

>  <Allosteric>  (92) 
[0.0]

>  <Pockets_Assigned>  (92) 
['A']

>  <Multisite>  (92) 
[False]

>  <Same_Number>  (92) 
True

>  <Same_Binding_Site>  (92) 
True

>  <Same_Orientation>  (92) 
True

>  <Lig_Order_in_.pdb>  (92) 
Orthosteric

$$$$

     RDKit          2D

 24 27  0  0  0  0  0  0  0  0999 V2000
    1.5000    0.0000    0.0000 C   0  0  0  0  0  0  0  0  0  0  0  0
    0.7500   -1.2990    0.0000 C   0  0  0  0  0  0  0  0  0  0  0  0
   -0.7500   -1.2990    0.0000 C   0  0  0  0  0  0  0  0  0  0  0  0
   -1.5000    0.0000    0.0000 C   0  0  0  0  0  0  0  0  0  0  0  0
   -0.7500    1.2990    0.0000 C   0  0  0  0  0  0  0  0  0  0  0  0
    0.7500    1.2990    0.0000 C   0  0  0  0  0  0  0  0  0  0  0  0
    1.5000    2.5981    0.0000 C   0  0  0  0  0  0  0  0  0  0  0  0
    0.8899    3.9684    0.0000 C   0  0  0  0  0  0  0  0  0  0  0  0
    2.0046    4.9721    0.0000 N   0  0  0  0  0  0  0  0  0  0  0  0
    3.3037    4.2221    0.0000 C   0  0  0  0  0  0  0  0  0  0  0  0
    2.9918    2.7549    0.0000 C   0  0  0  0  0  0  0  0  0  0  0  0
    3.9955    1.6402    0.0000 C   0  0  0  0  0  0  0  0  0  0  0  0
    3.5320    0.2136    0.0000 O   0  0  0  0  0  0  0  0  0  0  0  0
    5.4627    1.9520    0.0000 C   0  0  0  0  0  0  0  0  0  0  0  0
    6.0728    3.3223    0.0000 C   0  0  0  0  0  0  0  0  0  0  0  0
    7.5646    3.1655    0.0000 C   0  0  0  0  0  0  0  0  0  0  0  0
    7.8765    1.6983    0.0000 C   0  0  0  0  0  0  0  0  0  0  0  0
    6.5774    0.9483    0.0000 S   0  0  0  0  0  0  0  0  0  0  0  0
    9.2468    1.0882    0.0000 Br  0  0  0  0  0  0  0  0  0  0  0  0
   -3.0000    0.0000    0.0000 N   0  0  0  0  0  0  0  0  0  0  0  0
   -3.7500   -1.2990    0.0000 C   0  0  0  0  0  0  0  0  0  0  0  0
   -3.0000   -2.5981    0.0000 N   0  0  0  0  0  0  0  0  0  0  0  0
   -1.5000   -2.5981    0.0000 C   0  0  0  0  0  0  0  0  0  0  0  0
   -0.7500   -3.8971    0.0000 O   0  0  0  0  0  0  0  0  0  0  0  0
  1  2  2  0
  2  3  1  0
  3  4  2  0
  4  5  1  0
  5  6  2  0
  7  6  1  1
  7  8  1  0
  8  9  1  0
  9 10  1  0
 10 11  1  0
 11 12  1  6
 12 13  2  0
 12 14  1  0
 14 15  2  0
 15 16  1  0
 16 17  2  0
 17 18  1  0
 17 19  1  0
  4 20  1  0
 20 21  2  0
 21 22  1  0
 22 23  1  0
 23 24  2  0
  6  1  1  0
 23  3  1  0
 11  7  1  0
 18 14  1  0
M  END
>  <Structure>  (93) 
4UJA

>  <Dataset>  (93) 
PDB

>  <Chain>  (93) 
A

>  <Spatial_Label>  (93) 
DFGin

>  <Dihedral_Label>  (93) 
BLAminus

>  <C_Helix_Label>  (93) 
Chelix-in

>  <Lig_ID>  (93) 
4L7

>  <Lig_Entity_ID>  (93) 
4UJA_3

>  <Lig_Name>  (93) 
7-{(3S,4R)-4-[(5-bromothiophen-2-yl)carbonyl]pyrrolidin-3-yl}quinazolin-4(3H)-one

>  <Lig_Formula>  (93) 
C17H14BrN3O2S

>  <Lig_SMILES>  (93) 
c1cc2c(cc1[C@H]3CNC[C@@H]3C(=O)c4ccc(s4)Br)N=CNC2=O

>  <Lig_MW>  (93) 
404.281

>  <Lig_ChEMBL_ID>  (93) 
nan

>  <Lig_DrugBank_ID>  (93) 
nan

>  <Occurence>  (93) 
2.0

>  <Lig_SMILES_Uncharged>  (93) 
O=C(c1ccc(Br)s1)[C@H]1CNC[C@@H]1c1ccc2c(=O)[nH]cnc2c1

>  <Lig_Conformer>  (93) 
['NaN']

>  <Lig_Of_Interest>  (93) 
['Y']

>  <Lig_Completeness>  (93) 
[1.0]

>  <Lig_Occupancy>  (93) 
[0.9783]

>  <Lig_RSCC>  (93) 
[0.972]

>  <Lig_RSR>  (93) 
[0.079]

>  <Lig_RMSZ_Bonds>  (93) 
[0.45]

>  <Lig_RMSZ_Angles>  (93) 
[1.01]

>  <Lig_Alt_Conf>  (93) 
0.0

>  <Title>  (93) 
Protein Kinase A in complex with an Inhibitor

>  <Nonpolymer_Entity_Count>  (93) 
3.0

>  <Protein_Entity_Count>  (93) 
2.0

>  <Exp_Method>  (93) 
X-Ray Diffraction

>  <Cryst_Method>  (93) 
Vapor Diffusion, Hanging Drop; 10Mg/Ml Protein, 25Mm Bistris/Mes pH6.9, 50Mm Kcl, 1.5Mm Octanoyl-N-Methylglucamide, 1Mm Protein Kinase Inhibitor Peptide, Vapor Diffusion, Hanging Drop, Temperature 277K

>  <Deposit_Date>  (93) 
2015-04-09

>  <Resolution>  (93) 
1.93

>  <DOI>  (93) 
https://doi.org/10.1002/CHEM.201503552

>  <Source_Organism>  (93) 
Homo sapiens

>  <R_Free>  (93) 
0.206

>  <Keywords>  (93) 
Transferase

>  <REMARK_280>  (93) 
 Crystal Solvent Content, Vs (%): 51.12 Matthews Coefficient, Vm (Angstroms**3/Da): 2.52 Crystallization Conditions: 10Mg/Ml Protein, 25Mm Bistris/Mes pH6.9, 50Mm Kcl, 1.5Mm Octanoyl-N-Methylglucamide, 1Mm Protein Kinase Inhibitor Peptide, Vapor Diffusion, Hanging Drop, Temperature 277K 

>  <REMARK_610>  (93) 
nan

>  <pH>  (93) 
6.9

>  <Cryst_Technique>  (93) 
co-crystallized

>  <Sequence>  (93) 
MGNAAAAKKGSEQESVKEFLAKAKEDFLKKWESPAQNTAHLDQFERIKTLGTGSFGRVMLVKHKETGNHYAMKILDKQKVVKLKQIEHTLNEKRILQAVNFPFLVKLEFSFKDNSNLYMVMEYVPGGEMFSHLRRIGRFSEPHARFYAAQIVLTFEYLHSLDLIYRDLKPENLLIDQQGYIQVTDFGFAKRVKGRTWTLCGTPEYLAPEIILSKGYNKAVDWWALGVLIYEMAAGYPPFFADQPIQIYEKIVSGKVRFPSHFSSDLKDLLRNLLQVDLTKRFGNLKNGVNDIKNHKWFATTDWIAIYQRKVEAPFIPKFKGPGDTSNFDDYEEEEIRVSINEKCGKEFSEF

>  <Sequence_Length>  (93) 
351.0

>  <Mutation_Count>  (93) 
0.0

>  <Gene_Name>  (93) 
nan

>  <MW>  (93) 
40.809

>  <Name>  (93) 
cAMP-Dependent Protein Kinase Catalytic Subunit Alpha

>  <Mutations>  (93) 
nan

>  <EC_Number>  (93) 
2.7.11.11

>  <Peptidic_Inhibitor>  (93) 
True

>  <Lig_Missing_Atoms>  (93) 
['No']

>  <PDBbind_Resolution>  (93) 
1.93

>  <PDBbind_Release_Year>  (93) 
2016.0

>  <PDBbind_Comment>  (93) 
compound 1p

>  <PDBbind_Uniprot_Id>  (93) 
P17612

>  <PDBbind_Protein_Name>  (93) 
CAMP-DEPENDENT PROTEIN KINASE

>  <PDBbind_-Logkd/Ki>  (93) 
9.05

>  <PDBbind_Kd/Ki>  (93) 
Ki=0.9nM

>  <PDBbind_Kd_Or_Ki_Or_Ic50>  (93) 
Ki

>  <PDBbind_Relation>  (93) 
=

>  <PDBbind_Value>  (93) 
0.9

>  <PDBbind_Unit>  (93) 
nM

>  <PDBbind_Standard_Value>  (93) 
0.9

>  <PDBbind_Standard_Unit>  (93) 
nM

>  <PDB_Chain>  (93) 
['A']

>  <Num_Ligs>  (93) 
[1.0]

>  <Orthosteric>  (93) 
[1.0]

>  <Allosteric>  (93) 
[0.0]

>  <Pockets_Assigned>  (93) 
['A']

>  <Multisite>  (93) 
[True]

>  <Same_Number>  (93) 
False

>  <Same_Binding_Site>  (93) 
True

>  <Same_Orientation>  (93) 
True

>  <Lig_Order_in_.pdb>  (93) 
Orthosteric

$$$$

     RDKit          2D

 25 28  0  0  0  0  0  0  0  0999 V2000
    7.3934   -3.6905    0.0000 C   0  0  0  0  0  0  0  0  0  0  0  0
    5.9262   -3.3786    0.0000 C   0  0  0  0  0  0  0  0  0  0  0  0
    5.4627   -1.9520    0.0000 C   0  0  0  0  0  0  0  0  0  0  0  0
    6.4664   -0.8373    0.0000 C   0  0  0  0  0  0  0  0  0  0  0  0
    7.9336   -1.1492    0.0000 C   0  0  0  0  0  0  0  0  0  0  0  0
    8.3971   -2.5758    0.0000 C   0  0  0  0  0  0  0  0  0  0  0  0
    8.9373   -0.0345    0.0000 F   0  0  0  0  0  0  0  0  0  0  0  0
    3.9955   -1.6402    0.0000 C   0  0  0  0  0  0  0  0  0  0  0  0
    3.5320   -0.2136    0.0000 O   0  0  0  0  0  0  0  0  0  0  0  0
    2.9918   -2.7549    0.0000 C   0  0  0  0  0  0  0  0  0  0  0  0
    3.3037   -4.2221    0.0000 C   0  0  0  0  0  0  0  0  0  0  0  0
    2.0046   -4.9721    0.0000 N   0  0  0  0  0  0  0  0  0  0  0  0
    0.8899   -3.9684    0.0000 C   0  0  0  0  0  0  0  0  0  0  0  0
    1.5000   -2.5981    0.0000 C   0  0  0  0  0  0  0  0  0  0  0  0
    0.7500   -1.2990    0.0000 C   0  0  0  0  0  0  0  0  0  0  0  0
    1.5000    0.0000    0.0000 C   0  0  0  0  0  0  0  0  0  0  0  0
    0.7500    1.2990    0.0000 C   0  0  0  0  0  0  0  0  0  0  0  0
   -0.7500    1.2990    0.0000 C   0  0  0  0  0  0  0  0  0  0  0  0
   -1.5000    0.0000    0.0000 C   0  0  0  0  0  0  0  0  0  0  0  0
   -0.7500   -1.2990    0.0000 C   0  0  0  0  0  0  0  0  0  0  0  0
   -3.0000    0.0000    0.0000 N   0  0  0  0  0  0  0  0  0  0  0  0
   -3.7500    1.2990    0.0000 C   0  0  0  0  0  0  0  0  0  0  0  0
   -3.0000    2.5981    0.0000 N   0  0  0  0  0  0  0  0  0  0  0  0
   -1.5000    2.5981    0.0000 C   0  0  0  0  0  0  0  0  0  0  0  0
   -0.7500    3.8971    0.0000 O   0  0  0  0  0  0  0  0  0  0  0  0
  1  2  2  0
  2  3  1  0
  3  4  2  0
  4  5  1  0
  5  6  2  0
  5  7  1  0
  3  8  1  0
  8  9  2  0
 10  8  1  1
 10 11  1  0
 11 12  1  0
 12 13  1  0
 13 14  1  0
 14 15  1  6
 15 16  2  0
 16 17  1  0
 17 18  2  0
 18 19  1  0
 19 20  2  0
 19 21  1  0
 21 22  2  0
 22 23  1  0
 23 24  1  0
 24 25  2  0
  6  1  1  0
 14 10  1  0
 20 15  1  0
 24 18  1  0
M  END
>  <Structure>  (94) 
4UJB

>  <Dataset>  (94) 
PDB

>  <Chain>  (94) 
A

>  <Spatial_Label>  (94) 
DFGin

>  <Dihedral_Label>  (94) 
BLAminus

>  <C_Helix_Label>  (94) 
Chelix-in

>  <Lig_ID>  (94) 
8BQ

>  <Lig_Entity_ID>  (94) 
4UJB_3

>  <Lig_Name>  (94) 
7-[(3S,4R)-4-(3-fluorophenyl)carbonylpyrrolidin-3-yl]-3H-quinazolin-4-one

>  <Lig_Formula>  (94) 
C19H16FN3O2

>  <Lig_SMILES>  (94) 
c1cc(cc(c1)F)C(=O)[C@H]2CNC[C@@H]2c3ccc4c(c3)N=CNC4=O

>  <Lig_MW>  (94) 
337.348

>  <Lig_ChEMBL_ID>  (94) 
nan

>  <Lig_DrugBank_ID>  (94) 
nan

>  <Occurence>  (94) 
1.0

>  <Lig_SMILES_Uncharged>  (94) 
O=C(c1cccc(F)c1)[C@H]1CNC[C@@H]1c1ccc2c(=O)[nH]cnc2c1

>  <Lig_Conformer>  (94) 
['NaN']

>  <Lig_Of_Interest>  (94) 
['Y']

>  <Lig_Completeness>  (94) 
[1.0]

>  <Lig_Occupancy>  (94) 
[1.0]

>  <Lig_RSCC>  (94) 
[0.965]

>  <Lig_RSR>  (94) 
[0.095]

>  <Lig_RMSZ_Bonds>  (94) 
[3.1]

>  <Lig_RMSZ_Angles>  (94) 
[2.47]

>  <Lig_Alt_Conf>  (94) 
0.0

>  <Title>  (94) 
Protein Kinase A in complex with an Inhibitor

>  <Nonpolymer_Entity_Count>  (94) 
3.0

>  <Protein_Entity_Count>  (94) 
2.0

>  <Exp_Method>  (94) 
X-Ray Diffraction

>  <Cryst_Method>  (94) 
Vapor Diffusion, Hanging Drop; 10Mg/Ml Protein, 25Mm Bistris/Mes pH6.9, 50Mm Kcl, 1.5Mm Octanoyl-N-Methylglucamide, 1Mm Protein Kinase Inhibitor Peptide, Vapor Diffusion, Hanging Drop, Temperature 277K

>  <Deposit_Date>  (94) 
2015-04-09

>  <Resolution>  (94) 
1.949

>  <DOI>  (94) 
https://doi.org/10.1002/CHEM.201503552

>  <Source_Organism>  (94) 
Homo sapiens

>  <R_Free>  (94) 
0.19

>  <Keywords>  (94) 
Transferase

>  <REMARK_280>  (94) 
 Crystal Solvent Content, Vs (%): 52.03 Matthews Coefficient, Vm (Angstroms**3/Da): 2.56 Crystallization Conditions: 10Mg/Ml Protein, 25Mm Bistris/Mes pH6.9, 50Mm Kcl, 1.5Mm Octanoyl-N-Methylglucamide, 1Mm Protein Kinase Inhibitor Peptide, Vapor Diffusion, Hanging Drop, Temperature 277K 

>  <REMARK_610>  (94) 
nan

>  <pH>  (94) 
6.9

>  <Cryst_Technique>  (94) 
co-crystallized

>  <Sequence>  (94) 
MGNAAAAKKGSEQESVKEFLAKAKEDFLKKWESPAQNTAHLDQFERIKTLGTGSFGRVMLVKHKETGNHYAMKILDKQKVVKLKQIEHTLNEKRILQAVNFPFLVKLEFSFKDNSNLYMVMEYVPGGEMFSHLRRIGRFSEPHARFYAAQIVLTFEYLHSLDLIYRDLKPENLLIDQQGYIQVTDFGFAKRVKGRTWTLCGTPEYLAPEIILSKGYNKAVDWWALGVLIYEMAAGYPPFFADQPIQIYEKIVSGKVRFPSHFSSDLKDLLRNLLQVDLTKRFGNLKNGVNDIKNHKWFATTDWIAIYQRKVEAPFIPKFKGPGDTSNFDDYEEEEIRVSINEKCGKEFSEF

>  <Sequence_Length>  (94) 
351.0

>  <Mutation_Count>  (94) 
0.0

>  <Gene_Name>  (94) 
nan

>  <MW>  (94) 
40.889

>  <Name>  (94) 
cAMP-Dependent Protein Kinase Catalytic Subunit Alpha

>  <Mutations>  (94) 
nan

>  <EC_Number>  (94) 
2.7.11.11

>  <Peptidic_Inhibitor>  (94) 
True

>  <Lig_Missing_Atoms>  (94) 
['No']

>  <PDBbind_Resolution>  (94) 
1.95

>  <PDBbind_Release_Year>  (94) 
2016.0

>  <PDBbind_Comment>  (94) 
compound 1b

>  <PDBbind_Uniprot_Id>  (94) 
P17612

>  <PDBbind_Protein_Name>  (94) 
CAMP-DEPENDENT PROTEIN KINASE

>  <PDBbind_-Logkd/Ki>  (94) 
8.0

>  <PDBbind_Kd/Ki>  (94) 
Ki=10nM

>  <PDBbind_Kd_Or_Ki_Or_Ic50>  (94) 
Ki

>  <PDBbind_Relation>  (94) 
=

>  <PDBbind_Value>  (94) 
10.0

>  <PDBbind_Unit>  (94) 
nM

>  <PDBbind_Standard_Value>  (94) 
10.0

>  <PDBbind_Standard_Unit>  (94) 
nM

>  <PDB_Chain>  (94) 
['A']

>  <Num_Ligs>  (94) 
[1.0]

>  <Orthosteric>  (94) 
[1.0]

>  <Allosteric>  (94) 
[0.0]

>  <Pockets_Assigned>  (94) 
['A']

>  <Multisite>  (94) 
[False]

>  <Same_Number>  (94) 
True

>  <Same_Binding_Site>  (94) 
True

>  <Same_Orientation>  (94) 
True

>  <Lig_Order_in_.pdb>  (94) 
Orthosteric

$$$$

     RDKit          2D

 31 33  0  0  0  0  0  0  0  0999 V2000
    1.5000    0.0000    0.0000 C   0  0  0  0  0  0  0  0  0  0  0  0
    0.7500   -1.2990    0.0000 N   0  0  0  0  0  0  0  0  0  0  0  0
   -0.7500   -1.2990    0.0000 C   0  0  0  0  0  0  0  0  0  0  0  0
   -1.5000    0.0000    0.0000 C   0  0  0  0  0  0  0  0  0  0  0  0
   -0.7500    1.2990    0.0000 C   0  0  0  0  0  0  0  0  0  0  0  0
    0.7500    1.2990    0.0000 N   0  0  0  0  0  0  0  0  0  0  0  0
   -1.7537    2.4138    0.0000 N   0  0  0  0  0  0  0  0  0  0  0  0
   -3.1240    1.8037    0.0000 C   0  0  0  0  0  0  0  0  0  0  0  0
   -2.9672    0.3119    0.0000 N   0  0  0  0  0  0  0  0  0  0  0  0
   -1.4418    3.8810    0.0000 C   0  0  0  0  0  0  0  0  0  0  0  0
   -2.4455    4.9957    0.0000 C   0  0  0  0  0  0  0  0  0  0  0  0
   -1.6955    6.2947    0.0000 C   0  0  0  0  0  0  0  0  0  0  0  0
   -0.2283    5.9829    0.0000 C   0  0  0  0  0  0  0  0  0  0  0  0
   -0.0715    4.4911    0.0000 O   0  0  0  0  0  0  0  0  0  0  0  0
    0.8864    6.9866    0.0000 C   0  0  0  0  0  0  0  0  0  0  0  0
    2.3130    6.5230    0.0000 O   0  0  0  0  0  0  0  0  0  0  0  0
    3.4277    7.5267    0.0000 P   0  0  0  0  0  5  0  0  0  0  0  0
    2.4240    8.6414    0.0000 O   0  0  0  0  0  0  0  0  0  0  0  0
    4.4314    6.4120    0.0000 O   0  0  0  0  0  0  0  0  0  0  0  0
    4.5424    8.5304    0.0000 O   0  0  0  0  0  0  0  0  0  0  0  0
    4.2306    9.9976    0.0000 P   0  0  0  0  0  5  0  0  0  0  0  0
    5.6978   10.3095    0.0000 O   0  0  0  0  0  0  0  0  0  0  0  0
    2.7633    9.6858    0.0000 O   0  0  0  0  0  0  0  0  0  0  0  0
    3.9187   11.4649    0.0000 O   0  0  0  0  0  0  0  0  0  0  0  0
    2.4921   11.9284    0.0000 P   0  0  0  0  0  0  0  0  0  0  0  0
    2.9556   13.3550    0.0000 O   0  0  0  0  0  0  0  0  0  0  0  0
    2.0286   10.5018    0.0000 O   0  0  0  0  0  0  0  0  0  0  0  0
    1.0655   12.3919    0.0000 O   0  0  0  0  0  0  0  0  0  0  0  0
   -2.3056    7.6651    0.0000 O   0  0  0  0  0  0  0  0  0  0  0  0
   -3.9373    4.8389    0.0000 O   0  0  0  0  0  0  0  0  0  0  0  0
   -1.5000   -2.5981    0.0000 N   0  0  0  0  0  0  0  0  0  0  0  0
  1  2  2  0
  2  3  1  0
  3  4  2  0
  4  5  1  0
  5  6  2  0
  5  7  1  0
  7  8  1  0
  8  9  2  0
 10  7  1  1
 10 11  1  0
 11 12  1  0
 12 13  1  0
 13 14  1  0
 13 15  1  1
 15 16  1  0
 16 17  1  0
 17 18  2  0
 17 19  1  1
 17 20  1  0
 20 21  1  0
 21 22  2  0
 21 23  1  1
 21 24  1  0
 24 25  1  0
 25 26  2  0
 25 27  1  0
 25 28  1  0
 12 29  1  6
 11 30  1  6
  3 31  1  0
  6  1  1  0
  9  4  1  0
 14 10  1  0
M  END
>  <Structure>  (95) 
4WB5

>  <Dataset>  (95) 
PDB

>  <Chain>  (95) 
A

>  <Spatial_Label>  (95) 
DFGin

>  <Dihedral_Label>  (95) 
BLAminus

>  <C_Helix_Label>  (95) 
Chelix-in

>  <Lig_ID>  (95) 
ATP

>  <Lig_Entity_ID>  (95) 
4WB5_3

>  <Lig_Name>  (95) 
ADENOSINE-5'-TRIPHOSPHATE

>  <Lig_Formula>  (95) 
C10H16N5O13P3

>  <Lig_SMILES>  (95) 
c1nc(c2c(n1)n(cn2)[C@H]3[C@@H]([C@@H]([C@H](O3)CO[P@@](=O)(O)O[P@](=O)(O)OP(=O)(O)O)O)O)N

>  <Lig_MW>  (95) 
507.181

>  <Lig_ChEMBL_ID>  (95) 
['CHEMBL14249']

>  <Lig_DrugBank_ID>  (95) 
['DB00171']

>  <Occurence>  (95) 
14.0

>  <Lig_SMILES_Uncharged>  (95) 
Nc1ncnc2c1ncn2[C@@H]1O[C@H](CO[P@@](=O)(O)O[P@](=O)(O)OP(=O)(O)O)[C@@H](O)[C@H]1O

>  <Lig_Conformer>  (95) 
['NaN']

>  <Lig_Of_Interest>  (95) 
['Y']

>  <Lig_Completeness>  (95) 
[1.0]

>  <Lig_Occupancy>  (95) 
[0.9742]

>  <Lig_RSCC>  (95) 
[0.954]

>  <Lig_RSR>  (95) 
[0.078]

>  <Lig_RMSZ_Bonds>  (95) 
[1.06]

>  <Lig_RMSZ_Angles>  (95) 
[1.25]

>  <Lig_Alt_Conf>  (95) 
0.0

>  <Title>  (95) 
Crystal structure of human cAMP-dependent protein kinase A (catalytic alpha subunit)

>  <Nonpolymer_Entity_Count>  (95) 
3.0

>  <Protein_Entity_Count>  (95) 
2.0

>  <Exp_Method>  (95) 
X-Ray Diffraction

>  <Cryst_Method>  (95) 
Vapor Diffusion, Sitting Drop; 10% Peg 6000, 0.1M Hepes pH 7.5

>  <Deposit_Date>  (95) 
2014-09-02

>  <Resolution>  (95) 
1.641

>  <DOI>  (95) 
https://doi.org/10.1073/pnas.1424206112

>  <Source_Organism>  (95) 
Homo sapiens

>  <R_Free>  (95) 
0.1956

>  <Keywords>  (95) 
Transferase/Transferase Inhibitor

>  <REMARK_280>  (95) 
 Crystal Solvent Content, Vs (%): 53.56 Matthews Coefficient, Vm (Angstroms**3/Da): 2.65 Crystallization Conditions: 10% Peg 6000, 0.1M Hepes pH 7.5, Vapor Diffusion, Sitting Drop, Temperature 295K 

>  <REMARK_610>  (95) 
nan

>  <pH>  (95) 
7.5

>  <Cryst_Technique>  (95) 
co-crystallized

>  <Sequence>  (95) 
GNAAAAKKGSEQESVKEFLAKAKEDFLKKWESPAQNTAHLDQFERIKTLGTGSFGRVMLVKHKETGNHYAMKILDKQKVVKLKQIEHTLNEKRILQAVNFPFLVKLEFSFKDNSNLYMVMEYVPGGEMFSHLRRIGRFSEPHARFYAAQIVLTFEYLHSLDLIYRDLKPENLLIDQQGYIQVTDFGFAKRVKGRTWTLCGTPEYLAPEIILSKGYNKAVDWWALGVLIYEMAAGYPPFFADQPIQIYEKIVSGKVRFPSHFSSDLKDLLRNLLQVDLTKRFGNLKNGVNDIKNHKWFATTDWIAIYQRKVEAPFIPKFKGPGDTSNFDDYEEEEIRVSINEKCGKEFSEF

>  <Sequence_Length>  (95) 
350.0

>  <Mutation_Count>  (95) 
0.0

>  <Gene_Name>  (95) 
PKACA

>  <MW>  (95) 
40.757

>  <Name>  (95) 
cAMP-Dependent Protein Kinase Catalytic Subunit Alpha

>  <Mutations>  (95) 
nan

>  <EC_Number>  (95) 
2.7.11.11

>  <Peptidic_Inhibitor>  (95) 
True

>  <Lig_Missing_Atoms>  (95) 
['No']

>  <PDBbind_Resolution>  (95) 
nan

>  <PDBbind_Release_Year>  (95) 
nan

>  <PDBbind_Comment>  (95) 
nan

>  <PDBbind_Uniprot_Id>  (95) 
nan

>  <PDBbind_Protein_Name>  (95) 
nan

>  <PDBbind_-Logkd/Ki>  (95) 
nan

>  <PDBbind_Kd/Ki>  (95) 
nan

>  <PDBbind_Kd_Or_Ki_Or_Ic50>  (95) 
nan

>  <PDBbind_Relation>  (95) 
nan

>  <PDBbind_Value>  (95) 
nan

>  <PDBbind_Unit>  (95) 
nan

>  <PDBbind_Standard_Value>  (95) 
nan

>  <PDBbind_Standard_Unit>  (95) 
nan

>  <PDB_Chain>  (95) 
['A']

>  <Num_Ligs>  (95) 
[1.0]

>  <Orthosteric>  (95) 
[1.0]

>  <Allosteric>  (95) 
[0.0]

>  <Pockets_Assigned>  (95) 
['A']

>  <Multisite>  (95) 
[False]

>  <Same_Number>  (95) 
True

>  <Same_Binding_Site>  (95) 
True

>  <Same_Orientation>  (95) 
True

>  <Lig_Order_in_.pdb>  (95) 
Orthosteric

$$$$

     RDKit          2D

 31 33  0  0  0  0  0  0  0  0999 V2000
    1.5000    0.0000    0.0000 C   0  0  0  0  0  0  0  0  0  0  0  0
    0.7500   -1.2990    0.0000 N   0  0  0  0  0  0  0  0  0  0  0  0
   -0.7500   -1.2990    0.0000 C   0  0  0  0  0  0  0  0  0  0  0  0
   -1.5000    0.0000    0.0000 C   0  0  0  0  0  0  0  0  0  0  0  0
   -0.7500    1.2990    0.0000 C   0  0  0  0  0  0  0  0  0  0  0  0
    0.7500    1.2990    0.0000 N   0  0  0  0  0  0  0  0  0  0  0  0
   -1.7537    2.4138    0.0000 N   0  0  0  0  0  0  0  0  0  0  0  0
   -3.1240    1.8037    0.0000 C   0  0  0  0  0  0  0  0  0  0  0  0
   -2.9672    0.3119    0.0000 N   0  0  0  0  0  0  0  0  0  0  0  0
   -1.4418    3.8810    0.0000 C   0  0  0  0  0  0  0  0  0  0  0  0
   -2.4455    4.9957    0.0000 C   0  0  0  0  0  0  0  0  0  0  0  0
   -1.6955    6.2947    0.0000 C   0  0  0  0  0  0  0  0  0  0  0  0
   -0.2283    5.9829    0.0000 C   0  0  0  0  0  0  0  0  0  0  0  0
   -0.0715    4.4911    0.0000 O   0  0  0  0  0  0  0  0  0  0  0  0
    0.8864    6.9866    0.0000 C   0  0  0  0  0  0  0  0  0  0  0  0
    2.3130    6.5230    0.0000 O   0  0  0  0  0  0  0  0  0  0  0  0
    3.4277    7.5267    0.0000 P   0  0  0  0  0  5  0  0  0  0  0  0
    2.4240    8.6414    0.0000 O   0  0  0  0  0  0  0  0  0  0  0  0
    4.4314    6.4120    0.0000 O   0  0  0  0  0  0  0  0  0  0  0  0
    4.5424    8.5304    0.0000 O   0  0  0  0  0  0  0  0  0  0  0  0
    4.2306    9.9976    0.0000 P   0  0  0  0  0  5  0  0  0  0  0  0
    5.6978   10.3095    0.0000 O   0  0  0  0  0  0  0  0  0  0  0  0
    2.7633    9.6858    0.0000 O   0  0  0  0  0  0  0  0  0  0  0  0
    3.9187   11.4649    0.0000 O   0  0  0  0  0  0  0  0  0  0  0  0
    2.4921   11.9284    0.0000 P   0  0  0  0  0  0  0  0  0  0  0  0
    2.9556   13.3550    0.0000 O   0  0  0  0  0  0  0  0  0  0  0  0
    2.0286   10.5018    0.0000 O   0  0  0  0  0  0  0  0  0  0  0  0
    1.0655   12.3919    0.0000 O   0  0  0  0  0  0  0  0  0  0  0  0
   -2.3056    7.6651    0.0000 O   0  0  0  0  0  0  0  0  0  0  0  0
   -3.9373    4.8389    0.0000 O   0  0  0  0  0  0  0  0  0  0  0  0
   -1.5000   -2.5981    0.0000 N   0  0  0  0  0  0  0  0  0  0  0  0
  1  2  2  0
  2  3  1  0
  3  4  2  0
  4  5  1  0
  5  6  2  0
  5  7  1  0
  7  8  1  0
  8  9  2  0
 10  7  1  1
 10 11  1  0
 11 12  1  0
 12 13  1  0
 13 14  1  0
 13 15  1  1
 15 16  1  0
 16 17  1  0
 17 18  2  0
 17 19  1  1
 17 20  1  0
 20 21  1  0
 21 22  2  0
 21 23  1  1
 21 24  1  0
 24 25  1  0
 25 26  2  0
 25 27  1  0
 25 28  1  0
 12 29  1  6
 11 30  1  6
  3 31  1  0
  6  1  1  0
  9  4  1  0
 14 10  1  0
M  END
>  <Structure>  (96) 
4WB6

>  <Dataset>  (96) 
PDB

>  <Chain>  (96) 
A and B

>  <Spatial_Label>  (96) 
DFGin

>  <Dihedral_Label>  (96) 
BLAminus

>  <C_Helix_Label>  (96) 
Chelix-in

>  <Lig_ID>  (96) 
ATP

>  <Lig_Entity_ID>  (96) 
4WB6_4

>  <Lig_Name>  (96) 
ADENOSINE-5'-TRIPHOSPHATE

>  <Lig_Formula>  (96) 
C10H16N5O13P3

>  <Lig_SMILES>  (96) 
c1nc(c2c(n1)n(cn2)[C@H]3[C@@H]([C@@H]([C@H](O3)CO[P@@](=O)(O)O[P@](=O)(O)OP(=O)(O)O)O)O)N

>  <Lig_MW>  (96) 
507.181

>  <Lig_ChEMBL_ID>  (96) 
['CHEMBL14249']

>  <Lig_DrugBank_ID>  (96) 
['DB00171']

>  <Occurence>  (96) 
14.0

>  <Lig_SMILES_Uncharged>  (96) 
Nc1ncnc2c1ncn2[C@@H]1O[C@H](CO[P@@](=O)(O)O[P@](=O)(O)OP(=O)(O)O)[C@@H](O)[C@H]1O

>  <Lig_Conformer>  (96) 
['NaN', 'NaN']

>  <Lig_Of_Interest>  (96) 
['Y', 'Y']

>  <Lig_Completeness>  (96) 
[1.0, 1.0]

>  <Lig_Occupancy>  (96) 
[1.0, 1.0]

>  <Lig_RSCC>  (96) 
[0.971, 0.963]

>  <Lig_RSR>  (96) 
[0.137, 0.132]

>  <Lig_RMSZ_Bonds>  (96) 
[0.93, 0.93]

>  <Lig_RMSZ_Angles>  (96) 
[1.35, 1.36]

>  <Lig_Alt_Conf>  (96) 
0.0

>  <Title>  (96) 
Crystal structure of a L205R mutant of human cAMP-dependent protein kinase A (catalytic alpha subunit)

>  <Nonpolymer_Entity_Count>  (96) 
6.0

>  <Protein_Entity_Count>  (96) 
4.0

>  <Exp_Method>  (96) 
X-Ray Diffraction

>  <Cryst_Method>  (96) 
Vapor Diffusion, Hanging Drop; 10% Peg 8000, 0.1M Hepes pH 7.5

>  <Deposit_Date>  (96) 
2014-09-02

>  <Resolution>  (96) 
2.1

>  <DOI>  (96) 
https://doi.org/10.1073/pnas.1424206112

>  <Source_Organism>  (96) 
Homo sapiens

>  <R_Free>  (96) 
0.2371

>  <Keywords>  (96) 
Transferase/Transferase Inhibitor

>  <REMARK_280>  (96) 
 Crystal Solvent Content, Vs (%): 53.50 Matthews Coefficient, Vm (Angstroms**3/Da): 2.65 Crystallization Conditions: 10% Peg 8000, 0.1M Hepes pH 7.5, Vapor Diffusion, Hanging Drop, Temperature 295K 

>  <REMARK_610>  (96) 
nan

>  <pH>  (96) 
7.5

>  <Cryst_Technique>  (96) 
co-crystallized

>  <Sequence>  (96) 
GNAAAAKKGSEQESVKEFLAKAKEDFLKKWESPAQNTAHLDQFERIKTLGTGSFGRVMLVKHKETGNHYAMKILDKQKVVKLKQIEHTLNEKRILQAVNFPFLVKLEFSFKDNSNLYMVMEYVPGGEMFSHLRRIGRFSEPHARFYAAQIVLTFEYLHSLDLIYRDLKPENLLIDQQGYIQVTDFGFAKRVKGRTWTLCGTPEYRAPEIILSKGYNKAVDWWALGVLIYEMAAGYPPFFADQPIQIYEKIVSGKVRFPSHFSSDLKDLLRNLLQVDLTKRFGNLKNGVNDIKNHKWFATTDWIAIYQRKVEAPFIPKFKGPGDTSNFDDYEEEEIRVSINEKCGKEFSEF

>  <Sequence_Length>  (96) 
350.0

>  <Mutation_Count>  (96) 
1.0

>  <Gene_Name>  (96) 
PKACA

>  <MW>  (96) 
40.801

>  <Name>  (96) 
cAMP-Dependent Protein Kinase Catalytic Subunit Alpha

>  <Mutations>  (96) 
nan

>  <EC_Number>  (96) 
2.7.11.11

>  <Peptidic_Inhibitor>  (96) 
True

>  <Lig_Missing_Atoms>  (96) 
['No', 'No']

>  <PDBbind_Resolution>  (96) 
nan

>  <PDBbind_Release_Year>  (96) 
nan

>  <PDBbind_Comment>  (96) 
nan

>  <PDBbind_Uniprot_Id>  (96) 
nan

>  <PDBbind_Protein_Name>  (96) 
nan

>  <PDBbind_-Logkd/Ki>  (96) 
nan

>  <PDBbind_Kd/Ki>  (96) 
nan

>  <PDBbind_Kd_Or_Ki_Or_Ic50>  (96) 
nan

>  <PDBbind_Relation>  (96) 
nan

>  <PDBbind_Value>  (96) 
nan

>  <PDBbind_Unit>  (96) 
nan

>  <PDBbind_Standard_Value>  (96) 
nan

>  <PDBbind_Standard_Unit>  (96) 
nan

>  <PDB_Chain>  (96) 
['A', 'B']

>  <Num_Ligs>  (96) 
[1.0, 1.0]

>  <Orthosteric>  (96) 
[1.0, 1.0]

>  <Allosteric>  (96) 
[0.0, 0.0]

>  <Pockets_Assigned>  (96) 
['A', 'A']

>  <Multisite>  (96) 
[False, False]

>  <Same_Number>  (96) 
True

>  <Same_Binding_Site>  (96) 
True

>  <Same_Orientation>  (96) 
True

>  <Lig_Order_in_.pdb>  (96) 
Orthosteric; Orthosteric

$$$$

     RDKit          2D

 31 33  0  0  0  0  0  0  0  0999 V2000
    1.5000    0.0000    0.0000 C   0  0  0  0  0  0  0  0  0  0  0  0
    0.7500   -1.2990    0.0000 N   0  0  0  0  0  0  0  0  0  0  0  0
   -0.7500   -1.2990    0.0000 C   0  0  0  0  0  0  0  0  0  0  0  0
   -1.5000    0.0000    0.0000 C   0  0  0  0  0  0  0  0  0  0  0  0
   -0.7500    1.2990    0.0000 C   0  0  0  0  0  0  0  0  0  0  0  0
    0.7500    1.2990    0.0000 N   0  0  0  0  0  0  0  0  0  0  0  0
   -1.7537    2.4138    0.0000 N   0  0  0  0  0  0  0  0  0  0  0  0
   -3.1240    1.8037    0.0000 C   0  0  0  0  0  0  0  0  0  0  0  0
   -2.9672    0.3119    0.0000 N   0  0  0  0  0  0  0  0  0  0  0  0
   -1.4418    3.8810    0.0000 C   0  0  0  0  0  0  0  0  0  0  0  0
   -2.4455    4.9957    0.0000 C   0  0  0  0  0  0  0  0  0  0  0  0
   -1.6955    6.2947    0.0000 C   0  0  0  0  0  0  0  0  0  0  0  0
   -0.2283    5.9829    0.0000 C   0  0  0  0  0  0  0  0  0  0  0  0
   -0.0715    4.4911    0.0000 O   0  0  0  0  0  0  0  0  0  0  0  0
    0.8864    6.9866    0.0000 C   0  0  0  0  0  0  0  0  0  0  0  0
    2.3130    6.5230    0.0000 O   0  0  0  0  0  0  0  0  0  0  0  0
    3.4277    7.5267    0.0000 P   0  0  0  0  0  5  0  0  0  0  0  0
    2.4240    8.6414    0.0000 O   0  0  0  0  0  0  0  0  0  0  0  0
    4.4314    6.4120    0.0000 O   0  0  0  0  0  0  0  0  0  0  0  0
    4.5424    8.5304    0.0000 O   0  0  0  0  0  0  0  0  0  0  0  0
    4.2306    9.9976    0.0000 P   0  0  0  0  0  5  0  0  0  0  0  0
    5.6978   10.3095    0.0000 O   0  0  0  0  0  0  0  0  0  0  0  0
    2.7633    9.6858    0.0000 O   0  0  0  0  0  0  0  0  0  0  0  0
    3.9187   11.4649    0.0000 O   0  0  0  0  0  0  0  0  0  0  0  0
    2.4921   11.9284    0.0000 P   0  0  0  0  0  0  0  0  0  0  0  0
    2.9556   13.3550    0.0000 O   0  0  0  0  0  0  0  0  0  0  0  0
    2.0286   10.5018    0.0000 O   0  0  0  0  0  0  0  0  0  0  0  0
    1.0655   12.3919    0.0000 O   0  0  0  0  0  0  0  0  0  0  0  0
   -2.3056    7.6651    0.0000 O   0  0  0  0  0  0  0  0  0  0  0  0
   -3.9373    4.8389    0.0000 O   0  0  0  0  0  0  0  0  0  0  0  0
   -1.5000   -2.5981    0.0000 N   0  0  0  0  0  0  0  0  0  0  0  0
  1  2  2  0
  2  3  1  0
  3  4  2  0
  4  5  1  0
  5  6  2  0
  5  7  1  0
  7  8  1  0
  8  9  2  0
 10  7  1  1
 10 11  1  0
 11 12  1  0
 12 13  1  0
 13 14  1  0
 13 15  1  1
 15 16  1  0
 16 17  1  0
 17 18  2  0
 17 19  1  1
 17 20  1  0
 20 21  1  0
 21 22  2  0
 21 23  1  1
 21 24  1  0
 24 25  1  0
 25 26  2  0
 25 27  1  0
 25 28  1  0
 12 29  1  6
 11 30  1  6
  3 31  1  0
  6  1  1  0
  9  4  1  0
 14 10  1  0
M  END
>  <Structure>  (97) 
4WB8

>  <Dataset>  (97) 
PDB

>  <Chain>  (97) 
A

>  <Spatial_Label>  (97) 
DFGin

>  <Dihedral_Label>  (97) 
BLAminus

>  <C_Helix_Label>  (97) 
Chelix-in

>  <Lig_ID>  (97) 
ATP

>  <Lig_Entity_ID>  (97) 
4WB8_3

>  <Lig_Name>  (97) 
ADENOSINE-5'-TRIPHOSPHATE

>  <Lig_Formula>  (97) 
C10H16N5O13P3

>  <Lig_SMILES>  (97) 
c1nc(c2c(n1)n(cn2)[C@H]3[C@@H]([C@@H]([C@H](O3)CO[P@@](=O)(O)O[P@](=O)(O)OP(=O)(O)O)O)O)N

>  <Lig_MW>  (97) 
507.181

>  <Lig_ChEMBL_ID>  (97) 
['CHEMBL14249']

>  <Lig_DrugBank_ID>  (97) 
['DB00171']

>  <Occurence>  (97) 
14.0

>  <Lig_SMILES_Uncharged>  (97) 
Nc1ncnc2c1ncn2[C@@H]1O[C@H](CO[P@@](=O)(O)O[P@](=O)(O)OP(=O)(O)O)[C@@H](O)[C@H]1O

>  <Lig_Conformer>  (97) 
['NaN']

>  <Lig_Of_Interest>  (97) 
['Y']

>  <Lig_Completeness>  (97) 
[1.0]

>  <Lig_Occupancy>  (97) 
[1.0]

>  <Lig_RSCC>  (97) 
[0.983]

>  <Lig_RSR>  (97) 
[0.069]

>  <Lig_RMSZ_Bonds>  (97) 
[0.98]

>  <Lig_RMSZ_Angles>  (97) 
[1.31]

>  <Lig_Alt_Conf>  (97) 
0.0

>  <Title>  (97) 
Crystal structure of human cAMP-dependent protein kinase A (catalytic alpha subunit), exon 1 deletion

>  <Nonpolymer_Entity_Count>  (97) 
4.0

>  <Protein_Entity_Count>  (97) 
2.0

>  <Exp_Method>  (97) 
X-Ray Diffraction

>  <Cryst_Method>  (97) 
Vapor Diffusion, Sitting Drop; 10% Peg 8000, 0.1M Hepes pH 7.5

>  <Deposit_Date>  (97) 
2014-09-02

>  <Resolution>  (97) 
1.55

>  <DOI>  (97) 
https://doi.org/10.1073/pnas.1424206112

>  <Source_Organism>  (97) 
Homo sapiens

>  <R_Free>  (97) 
0.1844

>  <Keywords>  (97) 
Transferase/Transferase Inhibitor

>  <REMARK_280>  (97) 
 Crystal Solvent Content, Vs (%): 53.93 Matthews Coefficient, Vm (Angstroms**3/Da): 2.67 Crystallization Conditions: 10% Peg 8000, 0.1M Hepes pH 7.5, Vapor Diffusion, Sitting Drop, Temperature 295K 

>  <REMARK_610>  (97) 
nan

>  <pH>  (97) 
7.5

>  <Cryst_Technique>  (97) 
co-crystallized

>  <Sequence>  (97) 
GVKEFLAKAKEDFLKKWESPAQNTAHLDQFERIKTLGTGSFGRVMLVKHKETGNHYAMKILDKQKVVKLKQIEHTLNEKRILQAVNFPFLVKLEFSFKDNSNLYMVMEYVPGGEMFSHLRRIGRFSEPHARFYAAQIVLTFEYLHSLDLIYRDLKPENLLIDQQGYIQVTDFGFAKRVKGRTWTLCGTPEYLAPEIILSKGYNKAVDWWALGVLIYEMAAGYPPFFADQPIQIYEKIVSGKVRFPSHFSSDLKDLLRNLLQVDLTKRFGNLKNGVNDIKNHKWFATTDWIAIYQRKVEAPFIPKFKGPGDTSNFDDYEEEEIRVSINEKCGKEFSEF

>  <Sequence_Length>  (97) 
337.0

>  <Mutation_Count>  (97) 
0.0

>  <Gene_Name>  (97) 
PKACA

>  <MW>  (97) 
39.483

>  <Name>  (97) 
cAMP-Dependent Protein Kinase Catalytic Subunit Alpha

>  <Mutations>  (97) 
none

>  <EC_Number>  (97) 
2.7.11.11

>  <Peptidic_Inhibitor>  (97) 
True

>  <Lig_Missing_Atoms>  (97) 
['No']

>  <PDBbind_Resolution>  (97) 
nan

>  <PDBbind_Release_Year>  (97) 
nan

>  <PDBbind_Comment>  (97) 
nan

>  <PDBbind_Uniprot_Id>  (97) 
nan

>  <PDBbind_Protein_Name>  (97) 
nan

>  <PDBbind_-Logkd/Ki>  (97) 
nan

>  <PDBbind_Kd/Ki>  (97) 
nan

>  <PDBbind_Kd_Or_Ki_Or_Ic50>  (97) 
nan

>  <PDBbind_Relation>  (97) 
nan

>  <PDBbind_Value>  (97) 
nan

>  <PDBbind_Unit>  (97) 
nan

>  <PDBbind_Standard_Value>  (97) 
nan

>  <PDBbind_Standard_Unit>  (97) 
nan

>  <PDB_Chain>  (97) 
['A']

>  <Num_Ligs>  (97) 
[1.0]

>  <Orthosteric>  (97) 
[1.0]

>  <Allosteric>  (97) 
[0.0]

>  <Pockets_Assigned>  (97) 
['A']

>  <Multisite>  (97) 
[False]

>  <Same_Number>  (97) 
True

>  <Same_Binding_Site>  (97) 
True

>  <Same_Orientation>  (97) 
True

>  <Lig_Order_in_.pdb>  (97) 
Orthosteric

$$$$

     RDKit          2D

 31 33  0  0  0  0  0  0  0  0999 V2000
    1.5000    0.0000    0.0000 C   0  0  0  0  0  0  0  0  0  0  0  0
    0.7500   -1.2990    0.0000 N   0  0  0  0  0  0  0  0  0  0  0  0
   -0.7500   -1.2990    0.0000 C   0  0  0  0  0  0  0  0  0  0  0  0
   -1.5000    0.0000    0.0000 C   0  0  0  0  0  0  0  0  0  0  0  0
   -0.7500    1.2990    0.0000 C   0  0  0  0  0  0  0  0  0  0  0  0
    0.7500    1.2990    0.0000 N   0  0  0  0  0  0  0  0  0  0  0  0
   -1.7537    2.4138    0.0000 N   0  0  0  0  0  0  0  0  0  0  0  0
   -3.1240    1.8037    0.0000 C   0  0  0  0  0  0  0  0  0  0  0  0
   -2.9672    0.3119    0.0000 N   0  0  0  0  0  0  0  0  0  0  0  0
   -1.4418    3.8810    0.0000 C   0  0  0  0  0  0  0  0  0  0  0  0
   -2.4455    4.9957    0.0000 C   0  0  0  0  0  0  0  0  0  0  0  0
   -1.6955    6.2947    0.0000 C   0  0  0  0  0  0  0  0  0  0  0  0
   -0.2283    5.9829    0.0000 C   0  0  0  0  0  0  0  0  0  0  0  0
   -0.0715    4.4911    0.0000 O   0  0  0  0  0  0  0  0  0  0  0  0
    0.8864    6.9866    0.0000 C   0  0  0  0  0  0  0  0  0  0  0  0
    2.3130    6.5230    0.0000 O   0  0  0  0  0  0  0  0  0  0  0  0
    3.4277    7.5267    0.0000 P   0  0  0  0  0  5  0  0  0  0  0  0
    2.4240    8.6414    0.0000 O   0  0  0  0  0  0  0  0  0  0  0  0
    4.4314    6.4120    0.0000 O   0  0  0  0  0  0  0  0  0  0  0  0
    4.5424    8.5304    0.0000 O   0  0  0  0  0  0  0  0  0  0  0  0
    4.2306    9.9976    0.0000 P   0  0  0  0  0  5  0  0  0  0  0  0
    2.7633    9.6858    0.0000 O   0  0  0  0  0  0  0  0  0  0  0  0
    5.6978   10.3095    0.0000 N   0  0  0  0  0  0  0  0  0  0  0  0
    6.1613   11.7361    0.0000 P   0  0  0  0  0  0  0  0  0  0  0  0
    6.6248   13.1627    0.0000 O   0  0  0  0  0  0  0  0  0  0  0  0
    7.5879   11.2726    0.0000 O   0  0  0  0  0  0  0  0  0  0  0  0
    4.7347   12.1996    0.0000 O   0  0  0  0  0  0  0  0  0  0  0  0
    3.9187   11.4649    0.0000 O   0  0  0  0  0  0  0  0  0  0  0  0
   -2.3056    7.6651    0.0000 O   0  0  0  0  0  0  0  0  0  0  0  0
   -3.9373    4.8389    0.0000 O   0  0  0  0  0  0  0  0  0  0  0  0
   -1.5000   -2.5981    0.0000 N   0  0  0  0  0  0  0  0  0  0  0  0
  1  2  2  0
  2  3  1  0
  3  4  2  0
  4  5  1  0
  5  6  2  0
  5  7  1  0
  7  8  1  0
  8  9  2  0
 10  7  1  1
 10 11  1  0
 11 12  1  0
 12 13  1  0
 13 14  1  0
 13 15  1  1
 15 16  1  0
 16 17  1  0
 17 18  2  0
 17 19  1  6
 17 20  1  0
 20 21  1  0
 21 22  2  0
 21 23  1  0
 23 24  1  0
 24 25  2  0
 24 26  1  0
 24 27  1  0
 21 28  1  6
 12 29  1  6
 11 30  1  6
  3 31  1  0
  6  1  1  0
  9  4  1  0
 14 10  1  0
M  END
>  <Structure>  (98) 
4XW4

>  <Dataset>  (98) 
PDB

>  <Chain>  (98) 
A

>  <Spatial_Label>  (98) 
DFGin

>  <Dihedral_Label>  (98) 
BLAminus

>  <C_Helix_Label>  (98) 
Chelix-in

>  <Lig_ID>  (98) 
ANP

>  <Lig_Entity_ID>  (98) 
4XW4_4

>  <Lig_Name>  (98) 
PHOSPHOAMINOPHOSPHONIC ACID-ADENYLATE ESTER

>  <Lig_Formula>  (98) 
C10H17N6O12P3

>  <Lig_SMILES>  (98) 
c1nc(c2c(n1)n(cn2)[C@H]3[C@@H]([C@@H]([C@H](O3)CO[P@](=O)(O)O[P@@](=O)(NP(=O)(O)O)O)O)O)N

>  <Lig_MW>  (98) 
506.196

>  <Lig_ChEMBL_ID>  (98) 
['CHEMBL1230989']

>  <Lig_DrugBank_ID>  (98) 
nan

>  <Occurence>  (98) 
13.0

>  <Lig_SMILES_Uncharged>  (98) 
Nc1ncnc2c1ncn2[C@@H]1O[C@H](CO[P@](=O)(O)O[P@](=O)(O)NP(=O)(O)O)[C@@H](O)[C@H]1O

>  <Lig_Conformer>  (98) 
['NaN']

>  <Lig_Of_Interest>  (98) 
['Y']

>  <Lig_Completeness>  (98) 
[1.0]

>  <Lig_Occupancy>  (98) 
[1.0]

>  <Lig_RSCC>  (98) 
[0.959]

>  <Lig_RSR>  (98) 
[0.093]

>  <Lig_RMSZ_Bonds>  (98) 
[1.81]

>  <Lig_RMSZ_Angles>  (98) 
[1.61]

>  <Lig_Alt_Conf>  (98) 
0.0

>  <Title>  (98) 
X-ray structure of PKAc with AMPPNP, SP20, calcium ions

>  <Nonpolymer_Entity_Count>  (98) 
3.0

>  <Protein_Entity_Count>  (98) 
2.0

>  <Exp_Method>  (98) 
X-Ray Diffraction

>  <Cryst_Method>  (98) 
Vapor Diffusion, Sitting Drop; 100 Mm Mes pH 6.5, 5 Mm Dtt, 15-20% Peg 4000

>  <Deposit_Date>  (98) 
2015-01-28

>  <Resolution>  (98) 
1.82

>  <DOI>  (98) 
https://doi.org/10.1074/jbc.M115.643213

>  <Source_Organism>  (98) 
Mus musculus

>  <R_Free>  (98) 
0.2397

>  <Keywords>  (98) 
Transferase

>  <REMARK_280>  (98) 
 Crystal Solvent Content, Vs (%): 52.88 Matthews Coefficient, Vm (Angstroms**3/Da): 2.29 Crystallization Conditions: 100 Mm Mes pH 6.5, 5 Mm Dtt, 15-20% Peg 4000, Vapor Diffusion, Sitting Drop, Temperature 277K 

>  <REMARK_610>  (98) 
nan

>  <pH>  (98) 
6.5

>  <Cryst_Technique>  (98) 
co-crystallized

>  <Sequence>  (98) 
HHHHHHGNAAAAKKGSEQESVKEFLAKAKEDFLKKWETPSQNTAQLDQFDRIKTLGTGSFGRVMLVKHKESGNHYAMKILDKQKVVKLKQIEHTLNEKRILQAVNFPFLVKLEFSFKDNSNLYMVMEYVAGGEMFSHLRRIGRFSEPHARFYAAQIVLTFEYLHSLDLIYRDLKPENLLIDQQGYIQVTDFGFAKRVKGRTWTLCGTPEYLAPEIILSKGYNKAVDWWALGVLIYEMAAGYPPFFADQPIQIYEKIVSGKVRFPSHFSSDLKDLLRNLLQVDLTKRFGNLKNGVNDIKNHKWFATTDWIAIYQRKVEAPFIPKFKGPGDTSNFDDYEEEEIRVSINEKCGKEFTEF

>  <Sequence_Length>  (98) 
356.0

>  <Mutation_Count>  (98) 
0.0

>  <Gene_Name>  (98) 
PKACA

>  <MW>  (98) 
41.566

>  <Name>  (98) 
cAMP-Dependent Protein Kinase Catalytic Subunit Alpha

>  <Mutations>  (98) 
nan

>  <EC_Number>  (98) 
2.7.11.11

>  <Peptidic_Inhibitor>  (98) 
True

>  <Lig_Missing_Atoms>  (98) 
['No']

>  <PDBbind_Resolution>  (98) 
nan

>  <PDBbind_Release_Year>  (98) 
nan

>  <PDBbind_Comment>  (98) 
nan

>  <PDBbind_Uniprot_Id>  (98) 
nan

>  <PDBbind_Protein_Name>  (98) 
nan

>  <PDBbind_-Logkd/Ki>  (98) 
nan

>  <PDBbind_Kd/Ki>  (98) 
nan

>  <PDBbind_Kd_Or_Ki_Or_Ic50>  (98) 
nan

>  <PDBbind_Relation>  (98) 
nan

>  <PDBbind_Value>  (98) 
nan

>  <PDBbind_Unit>  (98) 
nan

>  <PDBbind_Standard_Value>  (98) 
nan

>  <PDBbind_Standard_Unit>  (98) 
nan

>  <PDB_Chain>  (98) 
['A']

>  <Num_Ligs>  (98) 
[1.0]

>  <Orthosteric>  (98) 
[1.0]

>  <Allosteric>  (98) 
[0.0]

>  <Pockets_Assigned>  (98) 
['A']

>  <Multisite>  (98) 
[False]

>  <Same_Number>  (98) 
True

>  <Same_Binding_Site>  (98) 
True

>  <Same_Orientation>  (98) 
True

>  <Lig_Order_in_.pdb>  (98) 
Orthosteric

$$$$

     RDKit          2D

 31 33  0  0  0  0  0  0  0  0999 V2000
    1.5000    0.0000    0.0000 C   0  0  0  0  0  0  0  0  0  0  0  0
    0.7500   -1.2990    0.0000 N   0  0  0  0  0  0  0  0  0  0  0  0
   -0.7500   -1.2990    0.0000 C   0  0  0  0  0  0  0  0  0  0  0  0
   -1.5000    0.0000    0.0000 C   0  0  0  0  0  0  0  0  0  0  0  0
   -0.7500    1.2990    0.0000 C   0  0  0  0  0  0  0  0  0  0  0  0
    0.7500    1.2990    0.0000 N   0  0  0  0  0  0  0  0  0  0  0  0
   -1.7537    2.4138    0.0000 N   0  0  0  0  0  0  0  0  0  0  0  0
   -3.1240    1.8037    0.0000 C   0  0  0  0  0  0  0  0  0  0  0  0
   -2.9672    0.3119    0.0000 N   0  0  0  0  0  0  0  0  0  0  0  0
   -1.4418    3.8810    0.0000 C   0  0  0  0  0  0  0  0  0  0  0  0
   -2.4455    4.9957    0.0000 C   0  0  0  0  0  0  0  0  0  0  0  0
   -1.6955    6.2947    0.0000 C   0  0  0  0  0  0  0  0  0  0  0  0
   -0.2283    5.9829    0.0000 C   0  0  0  0  0  0  0  0  0  0  0  0
   -0.0715    4.4911    0.0000 O   0  0  0  0  0  0  0  0  0  0  0  0
    0.8864    6.9866    0.0000 C   0  0  0  0  0  0  0  0  0  0  0  0
    2.3130    6.5230    0.0000 O   0  0  0  0  0  0  0  0  0  0  0  0
    3.4277    7.5267    0.0000 P   0  0  0  0  0  5  0  0  0  0  0  0
    2.4240    8.6414    0.0000 O   0  0  0  0  0  0  0  0  0  0  0  0
    4.4314    6.4120    0.0000 O   0  0  0  0  0  0  0  0  0  0  0  0
    4.5424    8.5304    0.0000 O   0  0  0  0  0  0  0  0  0  0  0  0
    4.2306    9.9976    0.0000 P   0  0  0  0  0  5  0  0  0  0  0  0
    5.6978   10.3095    0.0000 O   0  0  0  0  0  0  0  0  0  0  0  0
    2.7633    9.6858    0.0000 O   0  0  0  0  0  0  0  0  0  0  0  0
    3.9187   11.4649    0.0000 O   0  0  0  0  0  0  0  0  0  0  0  0
    2.4921   11.9284    0.0000 P   0  0  0  0  0  0  0  0  0  0  0  0
    2.9556   13.3550    0.0000 O   0  0  0  0  0  0  0  0  0  0  0  0
    2.0286   10.5018    0.0000 O   0  0  0  0  0  0  0  0  0  0  0  0
    1.0655   12.3919    0.0000 O   0  0  0  0  0  0  0  0  0  0  0  0
   -2.3056    7.6651    0.0000 O   0  0  0  0  0  0  0  0  0  0  0  0
   -3.9373    4.8389    0.0000 O   0  0  0  0  0  0  0  0  0  0  0  0
   -1.5000   -2.5981    0.0000 N   0  0  0  0  0  0  0  0  0  0  0  0
  1  2  2  0
  2  3  1  0
  3  4  2  0
  4  5  1  0
  5  6  2  0
  5  7  1  0
  7  8  1  0
  8  9  2  0
 10  7  1  1
 10 11  1  0
 11 12  1  0
 12 13  1  0
 13 14  1  0
 13 15  1  1
 15 16  1  0
 16 17  1  0
 17 18  2  0
 17 19  1  1
 17 20  1  0
 20 21  1  0
 21 22  2  0
 21 23  1  1
 21 24  1  0
 24 25  1  0
 25 26  2  0
 25 27  1  0
 25 28  1  0
 12 29  1  6
 11 30  1  6
  3 31  1  0
  6  1  1  0
  9  4  1  0
 14 10  1  0
M  END
>  <Structure>  (99) 
4XW5

>  <Dataset>  (99) 
PDB

>  <Chain>  (99) 
A

>  <Spatial_Label>  (99) 
DFGin

>  <Dihedral_Label>  (99) 
BLAminus

>  <C_Helix_Label>  (99) 
Chelix-in

>  <Lig_ID>  (99) 
ATP

>  <Lig_Entity_ID>  (99) 
4XW5_4

>  <Lig_Name>  (99) 
ADENOSINE-5'-TRIPHOSPHATE

>  <Lig_Formula>  (99) 
C10H16N5O13P3

>  <Lig_SMILES>  (99) 
c1nc(c2c(n1)n(cn2)[C@H]3[C@@H]([C@@H]([C@H](O3)CO[P@@](=O)(O)O[P@](=O)(O)OP(=O)(O)O)O)O)N

>  <Lig_MW>  (99) 
507.181

>  <Lig_ChEMBL_ID>  (99) 
['CHEMBL14249']

>  <Lig_DrugBank_ID>  (99) 
['DB00171']

>  <Occurence>  (99) 
14.0

>  <Lig_SMILES_Uncharged>  (99) 
Nc1ncnc2c1ncn2[C@@H]1O[C@H](CO[P@@](=O)(O)O[P@](=O)(O)OP(=O)(O)O)[C@@H](O)[C@H]1O

>  <Lig_Conformer>  (99) 
['NaN']

>  <Lig_Of_Interest>  (99) 
['Y']

>  <Lig_Completeness>  (99) 
[1.0]

>  <Lig_Occupancy>  (99) 
[1.0]

>  <Lig_RSCC>  (99) 
[0.974]

>  <Lig_RSR>  (99) 
[0.092]

>  <Lig_RMSZ_Bonds>  (99) 
[1.1]

>  <Lig_RMSZ_Angles>  (99) 
[1.43]

>  <Lig_Alt_Conf>  (99) 
0.0

>  <Title>  (99) 
X-ray structure of PKAc with ATP, CP20, calcium ions

>  <Nonpolymer_Entity_Count>  (99) 
3.0

>  <Protein_Entity_Count>  (99) 
2.0

>  <Exp_Method>  (99) 
X-Ray Diffraction

>  <Cryst_Method>  (99) 
Vapor Diffusion, Sitting Drop; 100 Mm Mes pH 6.5, 5 Mm Dtt, 15-20% Peg 4000

>  <Deposit_Date>  (99) 
2015-01-28

>  <Resolution>  (99) 
1.95

>  <DOI>  (99) 
https://doi.org/10.1074/jbc.M115.643213

>  <Source_Organism>  (99) 
Mus musculus

>  <R_Free>  (99) 
0.2519

>  <Keywords>  (99) 
Transferase

>  <REMARK_280>  (99) 
 Crystal Solvent Content, Vs (%): 54.38 Matthews Coefficient, Vm (Angstroms**3/Da): 2.37 Crystallization Conditions: 100 Mm Mes pH 6.5, 5 Mm Dtt, 15-20% Peg 4000, Vapor Diffusion, Sitting Drop, Temperature 277K 

>  <REMARK_610>  (99) 
nan

>  <pH>  (99) 
6.5

>  <Cryst_Technique>  (99) 
co-crystallized

>  <Sequence>  (99) 
HHHHHHGNAAAAKKGSEQESVKEFLAKAKEDFLKKWETPSQNTAQLDQFDRIKTLGTGSFGRVMLVKHKESGNHYAMKILDKQKVVKLKQIEHTLNEKRILQAVNFPFLVKLEFSFKDNSNLYMVMEYVAGGEMFSHLRRIGRFSEPHARFYAAQIVLTFEYLHSLDLIYRDLKPENLLIDQQGYIQVTDFGFAKRVKGRTWTLCGTPEYLAPEIILSKGYNKAVDWWALGVLIYEMAAGYPPFFADQPIQIYEKIVSGKVRFPSHFSSDLKDLLRNLLQVDLTKRFGNLKNGVNDIKNHKWFATTDWIAIYQRKVEAPFIPKFKGPGDTSNFDDYEEEEIRVSINEKCGKEFTEF

>  <Sequence_Length>  (99) 
356.0

>  <Mutation_Count>  (99) 
0.0

>  <Gene_Name>  (99) 
PKACA

>  <MW>  (99) 
41.566

>  <Name>  (99) 
cAMP-Dependent Protein Kinase Catalytic Subunit Alpha

>  <Mutations>  (99) 
nan

>  <EC_Number>  (99) 
2.7.11.11

>  <Peptidic_Inhibitor>  (99) 
True

>  <Lig_Missing_Atoms>  (99) 
['No']

>  <PDBbind_Resolution>  (99) 
nan

>  <PDBbind_Release_Year>  (99) 
nan

>  <PDBbind_Comment>  (99) 
nan

>  <PDBbind_Uniprot_Id>  (99) 
nan

>  <PDBbind_Protein_Name>  (99) 
nan

>  <PDBbind_-Logkd/Ki>  (99) 
nan

>  <PDBbind_Kd/Ki>  (99) 
nan

>  <PDBbind_Kd_Or_Ki_Or_Ic50>  (99) 
nan

>  <PDBbind_Relation>  (99) 
nan

>  <PDBbind_Value>  (99) 
nan

>  <PDBbind_Unit>  (99) 
nan

>  <PDBbind_Standard_Value>  (99) 
nan

>  <PDBbind_Standard_Unit>  (99) 
nan

>  <PDB_Chain>  (99) 
['A']

>  <Num_Ligs>  (99) 
[1.0]

>  <Orthosteric>  (99) 
[1.0]

>  <Allosteric>  (99) 
[0.0]

>  <Pockets_Assigned>  (99) 
['A']

>  <Multisite>  (99) 
[False]

>  <Same_Number>  (99) 
True

>  <Same_Binding_Site>  (99) 
True

>  <Same_Orientation>  (99) 
True

>  <Lig_Order_in_.pdb>  (99) 
Orthosteric

$$$$

     RDKit          2D

 27 29  0  0  0  0  0  0  0  0999 V2000
    1.5000    0.0000    0.0000 C   0  0  0  0  0  0  0  0  0  0  0  0
    0.7500   -1.2990    0.0000 N   0  0  0  0  0  0  0  0  0  0  0  0
   -0.7500   -1.2990    0.0000 C   0  0  0  0  0  0  0  0  0  0  0  0
   -1.5000    0.0000    0.0000 C   0  0  0  0  0  0  0  0  0  0  0  0
   -0.7500    1.2990    0.0000 C   0  0  0  0  0  0  0  0  0  0  0  0
    0.7500    1.2990    0.0000 N   0  0  0  0  0  0  0  0  0  0  0  0
   -1.7537    2.4138    0.0000 N   0  0  0  0  0  0  0  0  0  0  0  0
   -3.1240    1.8037    0.0000 C   0  0  0  0  0  0  0  0  0  0  0  0
   -2.9672    0.3119    0.0000 N   0  0  0  0  0  0  0  0  0  0  0  0
   -1.4418    3.8810    0.0000 C   0  0  0  0  0  0  0  0  0  0  0  0
   -2.4455    4.9957    0.0000 C   0  0  0  0  0  0  0  0  0  0  0  0
   -1.6955    6.2947    0.0000 C   0  0  0  0  0  0  0  0  0  0  0  0
   -0.2283    5.9829    0.0000 C   0  0  0  0  0  0  0  0  0  0  0  0
   -0.0715    4.4911    0.0000 O   0  0  0  0  0  0  0  0  0  0  0  0
    0.8864    6.9866    0.0000 C   0  0  0  0  0  0  0  0  0  0  0  0
    2.3130    6.5230    0.0000 O   0  0  0  0  0  0  0  0  0  0  0  0
    3.4277    7.5267    0.0000 P   0  0  0  0  0  5  0  0  0  0  0  0
    2.4240    8.6414    0.0000 O   0  0  0  0  0  0  0  0  0  0  0  0
    4.4314    6.4120    0.0000 O   0  0  0  0  0  0  0  0  0  0  0  0
    4.5424    8.5304    0.0000 O   0  0  0  0  0  0  0  0  0  0  0  0
    4.2306    9.9976    0.0000 P   0  0  0  0  0  0  0  0  0  0  0  0
    5.6978   10.3095    0.0000 O   0  0  0  0  0  0  0  0  0  0  0  0
    2.7633    9.6858    0.0000 O   0  0  0  0  0  0  0  0  0  0  0  0
    3.9187   11.4649    0.0000 O   0  0  0  0  0  0  0  0  0  0  0  0
   -2.3056    7.6651    0.0000 O   0  0  0  0  0  0  0  0  0  0  0  0
   -3.9373    4.8389    0.0000 O   0  0  0  0  0  0  0  0  0  0  0  0
   -1.5000   -2.5981    0.0000 N   0  0  0  0  0  0  0  0  0  0  0  0
  1  2  2  0
  2  3  1  0
  3  4  2  0
  4  5  1  0
  5  6  2  0
  5  7  1  0
  7  8  1  0
  8  9  2  0
 10  7  1  1
 10 11  1  0
 11 12  1  0
 12 13  1  0
 13 14  1  0
 13 15  1  1
 15 16  1  0
 16 17  1  0
 17 18  2  0
 17 19  1  6
 17 20  1  0
 20 21  1  0
 21 22  2  0
 21 23  1  0
 21 24  1  0
 12 25  1  6
 11 26  1  6
  3 27  1  0
  6  1  1  0
  9  4  1  0
 14 10  1  0
M  END
>  <Structure>  (100) 
4XW6

>  <Dataset>  (100) 
PDB

>  <Chain>  (100) 
A

>  <Spatial_Label>  (100) 
DFGin

>  <Dihedral_Label>  (100) 
BLAminus

>  <C_Helix_Label>  (100) 
Chelix-in

>  <Lig_ID>  (100) 
ADP

>  <Lig_Entity_ID>  (100) 
4XW6_4

>  <Lig_Name>  (100) 
ADENOSINE-5'-DIPHOSPHATE

>  <Lig_Formula>  (100) 
C10H15N5O10P2

>  <Lig_SMILES>  (100) 
c1nc(c2c(n1)n(cn2)[C@H]3[C@@H]([C@@H]([C@H](O3)CO[P@](=O)(O)OP(=O)(O)O)O)O)N

>  <Lig_MW>  (100) 
427.201

>  <Lig_ChEMBL_ID>  (100) 
['CHEMBL14830']

>  <Lig_DrugBank_ID>  (100) 
['DB16833']

>  <Occurence>  (100) 
19.0

>  <Lig_SMILES_Uncharged>  (100) 
Nc1ncnc2c1ncn2[C@@H]1O[C@H](CO[P@](=O)(O)OP(=O)(O)O)[C@@H](O)[C@H]1O

>  <Lig_Conformer>  (100) 
['NaN']

>  <Lig_Of_Interest>  (100) 
['Y']

>  <Lig_Completeness>  (100) 
[1.0]

>  <Lig_Occupancy>  (100) 
[1.0]

>  <Lig_RSCC>  (100) 
[0.941]

>  <Lig_RSR>  (100) 
[0.101]

>  <Lig_RMSZ_Bonds>  (100) 
[1.34]

>  <Lig_RMSZ_Angles>  (100) 
[1.32]

>  <Lig_Alt_Conf>  (100) 
0.0

>  <Title>  (100) 
X-ray structure of PKAc with ADP, free phosphate ion, CP20, magnesium ions

>  <Nonpolymer_Entity_Count>  (100) 
4.0

>  <Protein_Entity_Count>  (100) 
2.0

>  <Exp_Method>  (100) 
X-Ray Diffraction

>  <Cryst_Method>  (100) 
Vapor Diffusion, Sitting Drop; 100 Mm Mes pH 6.5, 5 Mm Dtt, 15-20% Peg 4000

>  <Deposit_Date>  (100) 
2015-01-28

>  <Resolution>  (100) 
1.9

>  <DOI>  (100) 
https://doi.org/10.1074/jbc.M115.643213

>  <Source_Organism>  (100) 
Mus musculus

>  <R_Free>  (100) 
0.2646

>  <Keywords>  (100) 
Transferase

>  <REMARK_280>  (100) 
 Crystal Solvent Content, Vs (%): 53.79 Matthews Coefficient, Vm (Angstroms**3/Da): 2.34 Crystallization Conditions: 100 Mm Mes pH 6.5, 5 Mm Dtt, 15-20% Peg 4000, Vapor Diffusion, Sitting Drop, Temperature 277K 

>  <REMARK_610>  (100) 
nan

>  <pH>  (100) 
6.5

>  <Cryst_Technique>  (100) 
co-crystallized

>  <Sequence>  (100) 
HHHHHHGNAAAAKKGSEQESVKEFLAKAKEDFLKKWETPSQNTAQLDQFDRIKTLGTGSFGRVMLVKHKESGNHYAMKILDKQKVVKLKQIEHTLNEKRILQAVNFPFLVKLEFSFKDNSNLYMVMEYVAGGEMFSHLRRIGRFSEPHARFYAAQIVLTFEYLHSLDLIYRDLKPENLLIDQQGYIQVTDFGFAKRVKGRTWTLCGTPEYLAPEIILSKGYNKAVDWWALGVLIYEMAAGYPPFFADQPIQIYEKIVSGKVRFPSHFSSDLKDLLRNLLQVDLTKRFGNLKNGVNDIKNHKWFATTDWIAIYQRKVEAPFIPKFKGPGDTSNFDDYEEEEIRVSINEKCGKEFTEF

>  <Sequence_Length>  (100) 
356.0

>  <Mutation_Count>  (100) 
0.0

>  <Gene_Name>  (100) 
PKACA

>  <MW>  (100) 
41.566

>  <Name>  (100) 
cAMP-Dependent Protein Kinase Catalytic Subunit Alpha

>  <Mutations>  (100) 
nan

>  <EC_Number>  (100) 
2.7.11.11

>  <Peptidic_Inhibitor>  (100) 
True

>  <Lig_Missing_Atoms>  (100) 
['No']

>  <PDBbind_Resolution>  (100) 
nan

>  <PDBbind_Release_Year>  (100) 
nan

>  <PDBbind_Comment>  (100) 
nan

>  <PDBbind_Uniprot_Id>  (100) 
nan

>  <PDBbind_Protein_Name>  (100) 
nan

>  <PDBbind_-Logkd/Ki>  (100) 
nan

>  <PDBbind_Kd/Ki>  (100) 
nan

>  <PDBbind_Kd_Or_Ki_Or_Ic50>  (100) 
nan

>  <PDBbind_Relation>  (100) 
nan

>  <PDBbind_Value>  (100) 
nan

>  <PDBbind_Unit>  (100) 
nan

>  <PDBbind_Standard_Value>  (100) 
nan

>  <PDBbind_Standard_Unit>  (100) 
nan

>  <PDB_Chain>  (100) 
['A']

>  <Num_Ligs>  (100) 
[1.0]

>  <Orthosteric>  (100) 
[1.0]

>  <Allosteric>  (100) 
[0.0]

>  <Pockets_Assigned>  (100) 
['A']

>  <Multisite>  (100) 
[False]

>  <Same_Number>  (100) 
True

>  <Same_Binding_Site>  (100) 
True

>  <Same_Orientation>  (100) 
True

>  <Lig_Order_in_.pdb>  (100) 
Orthosteric

$$$$

     RDKit          2D

 10 11  0  0  0  0  0  0  0  0999 V2000
    2.6401   -3.1891    0.0000 C   0  0  0  0  0  0  0  0  0  0  0  0
    1.2135   -2.7256    0.0000 C   0  0  0  0  0  0  0  0  0  0  0  0
    0.7500   -1.2990    0.0000 C   0  0  0  0  0  0  0  0  0  0  0  0
    1.5000    0.0000    0.0000 C   0  0  0  0  0  0  0  0  0  0  0  0
    0.7500    1.2990    0.0000 C   0  0  0  0  0  0  0  0  0  0  0  0
   -0.7500    1.2990    0.0000 C   0  0  0  0  0  0  0  0  0  0  0  0
   -1.5000    0.0000    0.0000 C   0  0  0  0  0  0  0  0  0  0  0  0
   -0.7500   -1.2990    0.0000 C   0  0  0  0  0  0  0  0  0  0  0  0
   -1.2135   -2.7256    0.0000 N   0  0  0  0  0  0  0  0  0  0  0  0
   -0.0000   -3.6073    0.0000 N   0  0  0  0  0  0  0  0  0  0  0  0
  1  2  1  0
  2  3  2  0
  3  4  1  0
  4  5  2  0
  5  6  1  0
  6  7  2  0
  7  8  1  0
  8  9  2  0
  9 10  1  0
 10  2  1  0
  8  3  1  0
M  END
>  <Structure>  (101) 
4YXR

>  <Dataset>  (101) 
PDB

>  <Chain>  (101) 
A

>  <Spatial_Label>  (101) 
DFGin

>  <Dihedral_Label>  (101) 
BLAminus

>  <C_Helix_Label>  (101) 
Chelix-in

>  <Lig_ID>  (101) 
0RW

>  <Lig_Entity_ID>  (101) 
4YXR_3

>  <Lig_Name>  (101) 
3-methyl-2H-indazole

>  <Lig_Formula>  (101) 
C8H8N2

>  <Lig_SMILES>  (101) 
Cc1c2ccccc2n[nH]1

>  <Lig_MW>  (101) 
132.163

>  <Lig_ChEMBL_ID>  (101) 
['CHEMBL1762732']

>  <Lig_DrugBank_ID>  (101) 
nan

>  <Occurence>  (101) 
1.0

>  <Lig_SMILES_Uncharged>  (101) 
Cc1[nH]nc2ccccc12

>  <Lig_Conformer>  (101) 
['NaN']

>  <Lig_Of_Interest>  (101) 
['N']

>  <Lig_Completeness>  (101) 
[1.0]

>  <Lig_Occupancy>  (101) 
[1.0]

>  <Lig_RSCC>  (101) 
['NaN']

>  <Lig_RSR>  (101) 
['NaN']

>  <Lig_RMSZ_Bonds>  (101) 
[1.55]

>  <Lig_RMSZ_Angles>  (101) 
[1.44]

>  <Lig_Alt_Conf>  (101) 
0.0

>  <Title>  (101) 
CRYSTAL STRUCTURE OF PKA IN COMPLEX WITH inhibitor.

>  <Nonpolymer_Entity_Count>  (101) 
1.0

>  <Protein_Entity_Count>  (101) 
2.0

>  <Exp_Method>  (101) 
X-Ray Diffraction

>  <Cryst_Method>  (101) 
Vapor Diffusion, Hanging Drop; Protein: Mes-Bis-Tris 30Mm pH 6,4, Lithium Chloride 75Mm, Dithiothreitol 1Mm, Ethylenediaminetetraacetic Acid Disodium Salt 0,1Mm, Mega 8 0,15Mm, Pka 10Mg/Ml Reservoir: Methanol 22%

>  <Deposit_Date>  (101) 
2015-03-23

>  <Resolution>  (101) 
2.0

>  <DOI>  (101) 
https://doi.org/10.1002/anie.201500671

>  <Source_Organism>  (101) 
Bos taurus

>  <R_Free>  (101) 
0.252

>  <Keywords>  (101) 
Transferase

>  <REMARK_280>  (101) 
 Crystal Solvent Content, Vs (%): 51.69 Matthews Coefficient, Vm (Angstroms**3/Da): 2.55 Crystallization Conditions: Protein: Mes-Bis-Tris 30Mm pH 6,4, Lithium Chloride 75Mm, Dithiothreitol 1Mm, Ethylenediaminetetraacetic Acid Disodium Salt 0,1Mm, Mega 8 0, 15Mm, Pka 10Mg/Ml Reservoir: Methanol 22%, pH 6.4, Vapor Diffusion, Hanging Drop, Temperature 277K 

>  <REMARK_610>  (101) 
nan

>  <pH>  (101) 
6.0

>  <Cryst_Technique>  (101) 
soaked

>  <Sequence>  (101) 
GNAAAAKKGSEQESVKEFLAKAKEDFLKKWENPAQNTAHLDQFERIKTLGTGSFGRVMLVKHMETGNHYAMKILDKQKVVKLKQIEHTLNEKRILQAVNFPFLVKLEFSFKDNSNLYMVMEYVPGGEMFSHLRRIGRFSEPHARFYAAQIVLTFEYLHSLDLIYRDLKPENLLIDQQGYIQVTDFGFAKRVKGRTWTLCGTPEYLAPEIILSKGYNKAVDWWALGVLIYEMAAGYPPFFADQPIQIYEKIVSGKVRFPSHFSSDLKDLLRNLLQVDLTKRFGNLKDGVNDIKNHKWFATTDWIAIYQRKVEAPFIPKFKGPGDTSNFDDYEEEEIRVSINEKCGKEFSEF

>  <Sequence_Length>  (101) 
350.0

>  <Mutation_Count>  (101) 
0.0

>  <Gene_Name>  (101) 
PKACA

>  <MW>  (101) 
40.707

>  <Name>  (101) 
cAMP-Dependent Protein Kinase Catalytic Subunit Alpha

>  <Mutations>  (101) 
nan

>  <EC_Number>  (101) 
2.7.11.11

>  <Peptidic_Inhibitor>  (101) 
True

>  <Lig_Missing_Atoms>  (101) 
['No']

>  <PDBbind_Resolution>  (101) 
nan

>  <PDBbind_Release_Year>  (101) 
nan

>  <PDBbind_Comment>  (101) 
nan

>  <PDBbind_Uniprot_Id>  (101) 
nan

>  <PDBbind_Protein_Name>  (101) 
nan

>  <PDBbind_-Logkd/Ki>  (101) 
nan

>  <PDBbind_Kd/Ki>  (101) 
nan

>  <PDBbind_Kd_Or_Ki_Or_Ic50>  (101) 
nan

>  <PDBbind_Relation>  (101) 
nan

>  <PDBbind_Value>  (101) 
nan

>  <PDBbind_Unit>  (101) 
nan

>  <PDBbind_Standard_Value>  (101) 
nan

>  <PDBbind_Standard_Unit>  (101) 
nan

>  <PDB_Chain>  (101) 
['A']

>  <Num_Ligs>  (101) 
[1.0]

>  <Orthosteric>  (101) 
[1.0]

>  <Allosteric>  (101) 
[0.0]

>  <Pockets_Assigned>  (101) 
['A']

>  <Multisite>  (101) 
[False]

>  <Same_Number>  (101) 
True

>  <Same_Binding_Site>  (101) 
True

>  <Same_Orientation>  (101) 
True

>  <Lig_Order_in_.pdb>  (101) 
Orthosteric

$$$$

     RDKit          2D

 17 19  0  0  0  0  0  0  0  0999 V2000
   -8.9681    0.9033    0.0000 C   0  0  0  0  0  0  0  0  0  0  0  0
   -8.6562    2.3705    0.0000 C   0  0  0  0  0  0  0  0  0  0  0  0
   -7.2296    2.8340    0.0000 C   0  0  0  0  0  0  0  0  0  0  0  0
   -6.1149    1.8303    0.0000 C   0  0  0  0  0  0  0  0  0  0  0  0
   -6.4268    0.3631    0.0000 C   0  0  0  0  0  0  0  0  0  0  0  0
   -7.8533   -0.1004    0.0000 C   0  0  0  0  0  0  0  0  0  0  0  0
   -4.6883    2.2939    0.0000 C   0  0  0  0  0  0  0  0  0  0  0  0
   -3.5736    1.2902    0.0000 N   0  0  0  0  0  0  0  0  0  0  0  0
   -2.1470    1.7537    0.0000 C   0  0  0  0  0  0  0  0  0  0  0  0
   -1.0323    0.7500    0.0000 C   0  0  0  0  0  0  0  0  0  0  0  0
    0.3943    1.2135    0.0000 C   0  0  0  0  0  0  0  0  0  0  0  0
    1.2760    0.0000    0.0000 N   0  0  0  0  0  0  0  0  0  0  0  0
    0.3943   -1.2135    0.0000 C   0  0  0  0  0  0  0  0  0  0  0  0
   -1.0323   -0.7500    0.0000 N   0  0  0  0  0  0  0  0  0  0  0  0
    0.7062    2.6807    0.0000 N   0  0  0  0  0  0  0  0  0  0  0  0
   -0.4086    3.6844    0.0000 C   0  0  0  0  0  0  0  0  0  0  0  0
   -1.8351    3.2209    0.0000 N   0  0  0  0  0  0  0  0  0  0  0  0
  1  2  2  0
  2  3  1  0
  3  4  2  0
  4  5  1  0
  5  6  2  0
  4  7  1  0
  7  8  1  0
  8  9  1  0
  9 10  1  0
 10 11  2  0
 11 12  1  0
 12 13  1  0
 13 14  2  0
 11 15  1  0
 15 16  2  0
 16 17  1  0
  6  1  1  0
 17  9  2  0
 14 10  1  0
M  END
>  <Structure>  (102) 
4YXS

>  <Dataset>  (102) 
PDB

>  <Chain>  (102) 
A

>  <Spatial_Label>  (102) 
DFGin

>  <Dihedral_Label>  (102) 
BLAminus

>  <C_Helix_Label>  (102) 
Chelix-in

>  <Lig_ID>  (102) 
EMU

>  <Lig_Entity_ID>  (102) 
4YXS_3

>  <Lig_Name>  (102) 
N-BENZYL-9H-PURIN-6-AMINE

>  <Lig_Formula>  (102) 
C12H11N5

>  <Lig_SMILES>  (102) 
c1ccc(cc1)CNc2c3c([nH]cn3)ncn2

>  <Lig_MW>  (102) 
225.249

>  <Lig_ChEMBL_ID>  (102) 
['CHEMBL228862']

>  <Lig_DrugBank_ID>  (102) 
nan

>  <Occurence>  (102) 
1.0

>  <Lig_SMILES_Uncharged>  (102) 
c1ccc(CNc2ncnc3[nH]cnc23)cc1

>  <Lig_Conformer>  (102) 
['NaN']

>  <Lig_Of_Interest>  (102) 
['Y']

>  <Lig_Completeness>  (102) 
[1.0]

>  <Lig_Occupancy>  (102) 
[1.0]

>  <Lig_RSCC>  (102) 
[0.953]

>  <Lig_RSR>  (102) 
[0.095]

>  <Lig_RMSZ_Bonds>  (102) 
[2.91]

>  <Lig_RMSZ_Angles>  (102) 
[3.28]

>  <Lig_Alt_Conf>  (102) 
0.0

>  <Title>  (102) 
CAMP-DEPENDENT PROTEIN KINASE PKA CATALYTIC SUBUNIT WITH PKI-5-24

>  <Nonpolymer_Entity_Count>  (102) 
1.0

>  <Protein_Entity_Count>  (102) 
2.0

>  <Exp_Method>  (102) 
X-Ray Diffraction

>  <Cryst_Method>  (102) 
Vapor Diffusion, Hanging Drop; 75Mm Licl, 30Mm Mesbistris, 1Mm Dtt,
 0.2Mm Edta, pH 6.5, 15% Methanol, pH 6.4, Vapor Diffusion,
 Hanging Drop, Temperature 277K

>  <Deposit_Date>  (102) 
2015-03-23

>  <Resolution>  (102) 
2.11

>  <DOI>  (102) 
https://doi.org/10.1002/anie.201500671

>  <Source_Organism>  (102) 
Bos taurus

>  <R_Free>  (102) 
0.2318

>  <Keywords>  (102) 
Transferase/Inhibitor

>  <REMARK_280>  (102) 
 Crystal Solvent Content, Vs (%): 52.10 Matthews Coefficient, Vm (Angstroms**3/Da): 2.57 Crystallization Conditions: 75Mm Licl, 30Mm Mesbistris, 1Mm Dtt, 0.2Mm Edta, pH 6.5, 15% Methanol, pH 6.4, Vapor Diffusion, Hanging Drop, Temperature 277K 

>  <REMARK_610>  (102) 
nan

>  <pH>  (102) 
6.5

>  <Cryst_Technique>  (102) 
soaked

>  <Sequence>  (102) 
GNAAAAKKGSEQESVKEFLAKAKEDFLKKWENPAQNTAHLDQFERIKTLGTGSFGRVMLVKHMETGNHYAMKILDKQKVVKLKQIEHTLNEKRILQAVNFPFLVKLEFSFKDNSNLYMVMEYVPGGEMFSHLRRIGRFSEPHARFYAAQIVLTFEYLHSLDLIYRDLKPENLLIDQQGYIQVTDFGFAKRVKGRTWTLCGTPEYLAPEIILSKGYNKAVDWWALGVLIYEMAAGYPPFFADQPIQIYEKIVSGKVRFPSHFSSDLKDLLRNLLQVDLTKRFGNLKDGVNDIKNHKWFATTDWIAIYQRKVEAPFIPKFKGPGDTSNFDDYEEEEIRVSINEKCGKEFSEF

>  <Sequence_Length>  (102) 
350.0

>  <Mutation_Count>  (102) 
0.0

>  <Gene_Name>  (102) 
PKACA

>  <MW>  (102) 
40.707

>  <Name>  (102) 
cAMP-Dependent Protein Kinase Catalytic Subunit Alpha

>  <Mutations>  (102) 
nan

>  <EC_Number>  (102) 
2.7.11.11

>  <Peptidic_Inhibitor>  (102) 
True

>  <Lig_Missing_Atoms>  (102) 
['No']

>  <PDBbind_Resolution>  (102) 
nan

>  <PDBbind_Release_Year>  (102) 
nan

>  <PDBbind_Comment>  (102) 
nan

>  <PDBbind_Uniprot_Id>  (102) 
nan

>  <PDBbind_Protein_Name>  (102) 
nan

>  <PDBbind_-Logkd/Ki>  (102) 
nan

>  <PDBbind_Kd/Ki>  (102) 
nan

>  <PDBbind_Kd_Or_Ki_Or_Ic50>  (102) 
nan

>  <PDBbind_Relation>  (102) 
nan

>  <PDBbind_Value>  (102) 
nan

>  <PDBbind_Unit>  (102) 
nan

>  <PDBbind_Standard_Value>  (102) 
nan

>  <PDBbind_Standard_Unit>  (102) 
nan

>  <PDB_Chain>  (102) 
['A']

>  <Num_Ligs>  (102) 
[1.0]

>  <Orthosteric>  (102) 
[1.0]

>  <Allosteric>  (102) 
[0.0]

>  <Pockets_Assigned>  (102) 
['A']

>  <Multisite>  (102) 
[False]

>  <Same_Number>  (102) 
True

>  <Same_Binding_Site>  (102) 
True

>  <Same_Orientation>  (102) 
True

>  <Lig_Order_in_.pdb>  (102) 
Orthosteric

$$$$

     RDKit          2D

 24 27  0  0  0  0  0  0  0  0999 V2000
    1.5000    0.0000    0.0000 C   0  0  0  0  0  0  0  0  0  0  0  0
    0.7500   -1.2990    0.0000 C   0  0  0  0  0  0  0  0  0  0  0  0
   -0.7500   -1.2990    0.0000 C   0  0  0  0  0  0  0  0  0  0  0  0
   -1.5000    0.0000    0.0000 C   0  0  0  0  0  0  0  0  0  0  0  0
   -0.7500    1.2990    0.0000 C   0  0  0  0  0  0  0  0  0  0  0  0
    0.7500    1.2990    0.0000 C   0  0  0  0  0  0  0  0  0  0  0  0
    1.5000    2.5981    0.0000 C   0  0  0  0  0  0  0  0  0  0  0  0
    0.8899    3.9684    0.0000 C   0  0  0  0  0  0  0  0  0  0  0  0
    2.0046    4.9721    0.0000 N   0  0  0  0  0  0  0  0  0  0  0  0
    3.3037    4.2221    0.0000 C   0  0  0  0  0  0  0  0  0  0  0  0
    2.9918    2.7549    0.0000 C   0  0  0  0  0  0  0  0  0  0  0  0
    3.9955    1.6402    0.0000 C   0  0  0  0  0  0  0  0  0  0  0  0
    3.5320    0.2136    0.0000 O   0  0  0  0  0  0  0  0  0  0  0  0
    5.4627    1.9520    0.0000 C   0  0  0  0  0  0  0  0  0  0  0  0
    6.0728    3.3223    0.0000 C   0  0  0  0  0  0  0  0  0  0  0  0
    7.5646    3.1655    0.0000 C   0  0  0  0  0  0  0  0  0  0  0  0
    7.8765    1.6983    0.0000 C   0  0  0  0  0  0  0  0  0  0  0  0
    6.5774    0.9483    0.0000 S   0  0  0  0  0  0  0  0  0  0  0  0
    9.2468    1.0882    0.0000 Br  0  0  0  0  0  0  0  0  0  0  0  0
   -3.0000    0.0000    0.0000 N   0  0  0  0  0  0  0  0  0  0  0  0
   -3.7500   -1.2990    0.0000 C   0  0  0  0  0  0  0  0  0  0  0  0
   -3.0000   -2.5981    0.0000 N   0  0  0  0  0  0  0  0  0  0  0  0
   -1.5000   -2.5981    0.0000 C   0  0  0  0  0  0  0  0  0  0  0  0
   -0.7500   -3.8971    0.0000 O   0  0  0  0  0  0  0  0  0  0  0  0
  1  2  2  0
  2  3  1  0
  3  4  2  0
  4  5  1  0
  5  6  2  0
  7  6  1  1
  7  8  1  0
  8  9  1  0
  9 10  1  0
 10 11  1  0
 11 12  1  6
 12 13  2  0
 12 14  1  0
 14 15  2  0
 15 16  1  0
 16 17  2  0
 17 18  1  0
 17 19  1  0
  4 20  1  0
 20 21  2  0
 21 22  1  0
 22 23  1  0
 23 24  2  0
  6  1  1  0
 23  3  1  0
 11  7  1  0
 18 14  1  0
M  END
>  <Structure>  (103) 
4Z83

>  <Dataset>  (103) 
PDB

>  <Chain>  (103) 
E

>  <Spatial_Label>  (103) 
DFGin

>  <Dihedral_Label>  (103) 
BLAminus

>  <C_Helix_Label>  (103) 
Chelix-in

>  <Lig_ID>  (103) 
4L7

>  <Lig_Entity_ID>  (103) 
4Z83_3

>  <Lig_Name>  (103) 
7-{(3S,4R)-4-[(5-bromothiophen-2-yl)carbonyl]pyrrolidin-3-yl}quinazolin-4(3H)-one

>  <Lig_Formula>  (103) 
C17H14BrN3O2S

>  <Lig_SMILES>  (103) 
c1cc2c(cc1[C@H]3CNC[C@@H]3C(=O)c4ccc(s4)Br)N=CNC2=O

>  <Lig_MW>  (103) 
404.281

>  <Lig_ChEMBL_ID>  (103) 
nan

>  <Lig_DrugBank_ID>  (103) 
nan

>  <Occurence>  (103) 
2.0

>  <Lig_SMILES_Uncharged>  (103) 
O=C(c1ccc(Br)s1)[C@H]1CNC[C@@H]1c1ccc2c(=O)[nH]cnc2c1

>  <Lig_Conformer>  (103) 
['A', 'B', 'NaN']

>  <Lig_Of_Interest>  (103) 
['Y', 'Y', 'Y']

>  <Lig_Completeness>  (103) 
[1.0, 1.0, 0.375]

>  <Lig_Occupancy>  (103) 
[0.9696, 0.9888, 0.3337]

>  <Lig_RSCC>  (103) 
[0.948, 0.948, 0.959]

>  <Lig_RSR>  (103) 
[0.103, 0.103, 0.126]

>  <Lig_RMSZ_Bonds>  (103) 
[0.68, 0.68, 0.69]

>  <Lig_RMSZ_Angles>  (103) 
[0.97, 0.97, 0.77]

>  <Lig_Alt_Conf>  (103) 
2.0

>  <Title>  (103) 
PKAB3 in complex with pyrrolidine inhibitor 47a

>  <Nonpolymer_Entity_Count>  (103) 
2.0

>  <Protein_Entity_Count>  (103) 
2.0

>  <Exp_Method>  (103) 
X-Ray Diffraction

>  <Cryst_Method>  (103) 
Vapor Diffusion, Sitting Drop; The Droplets, Containing 16 Mg/Ml Pkab3, 25 Mm Bis-Tris-Hcl, pH 7.0, 150 Mm Kcl, 1.5Mm Octanoyl-N-Methylglucamide And 0.8 Mm Pki Peptide, Were Equilibrated Against 12-26 % (V/V) Methanol.

>  <Deposit_Date>  (103) 
2015-04-08

>  <Resolution>  (103) 
1.8

>  <DOI>  (103) 
https://doi.org/10.1002/chem.201503552

>  <Source_Organism>  (103) 
Bos taurus

>  <R_Free>  (103) 
0.2175

>  <Keywords>  (103) 
Transferase

>  <REMARK_280>  (103) 
 Crystal Solvent Content, Vs (%): 47.28 Matthews Coefficient, Vm (Angstroms**3/Da): 2.33 Crystallization Conditions: The Droplets, Containing 16 Mg/Ml Pkab3, 25 Mm Bis-Tris-Hcl, pH 7.0, 150 Mm Kcl, 1.5Mm Octanoyl-N- Methylglucamide And 0.8 Mm Pki Peptide, Were Equilibrated Against 12-26 % (V/V) Methanol., Vapor Diffusion, Sitting Drop, Temperature 277K 

>  <REMARK_610>  (103) 
  4L7 E 402 

>  <pH>  (103) 
7.0

>  <Cryst_Technique>  (103) 
co-crystallized

>  <Sequence>  (103) 
GNAAAAKKGSEQESVKEFLAKAKEDFLKKWENPAQNTAHLDQFERIKTLGTGSFGRVMLVKHMETGNHYAMKILDKQKVVKLKQIEHTLNEKRILQAVNFPFLVKLEFSFKDNSNLYMVMEYAPGGEMFSHLRRIGRFSEPHARFYAAQIVLTFEYLHSLDLIYRDLKPENLMIDQQGYIKVTDFGFAKRVKGRTWTLCGTPEYLAPEIILSKGYNKAVDWWALGVLIYEMAAGYPPFFADQPIQIYEKIVSGKVRFPSHFSSDLKDLLRNLLQVDLTKRFGNLKNGVNDIKNHKWFATTDWIAIYQRKVEAPFIPKFKGPGDTSNFDDYEEEEIRVSINEKCGKEFSEF

>  <Sequence_Length>  (103) 
350.0

>  <Mutation_Count>  (103) 
3.0

>  <Gene_Name>  (103) 
PKACA

>  <MW>  (103) 
40.697

>  <Name>  (103) 
cAMP-Dependent Protein Kinase Catalytic Subunit Alpha

>  <Mutations>  (103) 
V123A, L173M, Q181K

>  <EC_Number>  (103) 
2.7.11.11

>  <Peptidic_Inhibitor>  (103) 
True

>  <Lig_Missing_Atoms>  (103) 
['No', 'No', 'No']

>  <PDBbind_Resolution>  (103) 
1.8

>  <PDBbind_Release_Year>  (103) 
2015.0

>  <PDBbind_Comment>  (103) 
ligand is (+)-1p

>  <PDBbind_Uniprot_Id>  (103) 
P00517

>  <PDBbind_Protein_Name>  (103) 
CAMP-DEPENDENT PROTEIN KINASE

>  <PDBbind_-Logkd/Ki>  (103) 
7.4

>  <PDBbind_Kd/Ki>  (103) 
Ki=40nM

>  <PDBbind_Kd_Or_Ki_Or_Ic50>  (103) 
Ki

>  <PDBbind_Relation>  (103) 
=

>  <PDBbind_Value>  (103) 
40.0

>  <PDBbind_Unit>  (103) 
nM

>  <PDBbind_Standard_Value>  (103) 
40.0

>  <PDBbind_Standard_Unit>  (103) 
nM

>  <PDB_Chain>  (103) 
['E']

>  <Num_Ligs>  (103) 
[2.0]

>  <Orthosteric>  (103) 
[1.0]

>  <Allosteric>  (103) 
[1.0]

>  <Pockets_Assigned>  (103) 
['A, X']

>  <Multisite>  (103) 
[True]

>  <Same_Number>  (103) 
False

>  <Same_Binding_Site>  (103) 
True

>  <Same_Orientation>  (103) 
True

>  <Lig_Order_in_.pdb>  (103) 
Orthosteric, Allosteric

$$$$

     RDKit          2D

 25 28  0  0  0  0  0  0  0  0999 V2000
    7.3934   -3.6905    0.0000 C   0  0  0  0  0  0  0  0  0  0  0  0
    5.9262   -3.3786    0.0000 C   0  0  0  0  0  0  0  0  0  0  0  0
    5.4627   -1.9520    0.0000 C   0  0  0  0  0  0  0  0  0  0  0  0
    6.4664   -0.8373    0.0000 C   0  0  0  0  0  0  0  0  0  0  0  0
    7.9336   -1.1492    0.0000 C   0  0  0  0  0  0  0  0  0  0  0  0
    8.3971   -2.5758    0.0000 C   0  0  0  0  0  0  0  0  0  0  0  0
    8.9373   -0.0345    0.0000 Cl  0  0  0  0  0  0  0  0  0  0  0  0
    3.9955   -1.6402    0.0000 C   0  0  0  0  0  0  0  0  0  0  0  0
    3.5320   -0.2136    0.0000 O   0  0  0  0  0  0  0  0  0  0  0  0
    2.9918   -2.7549    0.0000 C   0  0  0  0  0  0  0  0  0  0  0  0
    3.3037   -4.2221    0.0000 C   0  0  0  0  0  0  0  0  0  0  0  0
    2.0046   -4.9721    0.0000 N   0  0  0  0  0  0  0  0  0  0  0  0
    0.8899   -3.9684    0.0000 C   0  0  0  0  0  0  0  0  0  0  0  0
    1.5000   -2.5981    0.0000 C   0  0  0  0  0  0  0  0  0  0  0  0
    0.7500   -1.2990    0.0000 C   0  0  0  0  0  0  0  0  0  0  0  0
    1.5000    0.0000    0.0000 C   0  0  0  0  0  0  0  0  0  0  0  0
    0.7500    1.2990    0.0000 C   0  0  0  0  0  0  0  0  0  0  0  0
   -0.7500    1.2990    0.0000 C   0  0  0  0  0  0  0  0  0  0  0  0
   -1.5000    0.0000    0.0000 C   0  0  0  0  0  0  0  0  0  0  0  0
   -0.7500   -1.2990    0.0000 C   0  0  0  0  0  0  0  0  0  0  0  0
   -3.0000    0.0000    0.0000 N   0  0  0  0  0  0  0  0  0  0  0  0
   -3.7500    1.2990    0.0000 C   0  0  0  0  0  0  0  0  0  0  0  0
   -3.0000    2.5981    0.0000 N   0  0  0  0  0  0  0  0  0  0  0  0
   -1.5000    2.5981    0.0000 C   0  0  0  0  0  0  0  0  0  0  0  0
   -0.7500    3.8971    0.0000 O   0  0  0  0  0  0  0  0  0  0  0  0
  1  2  2  0
  2  3  1  0
  3  4  2  0
  4  5  1  0
  5  6  2  0
  5  7  1  0
  3  8  1  0
  8  9  2  0
 10  8  1  1
 10 11  1  0
 11 12  1  0
 12 13  1  0
 13 14  1  0
 14 15  1  6
 15 16  2  0
 16 17  1  0
 17 18  2  0
 18 19  1  0
 19 20  2  0
 19 21  1  0
 21 22  2  0
 22 23  1  0
 23 24  1  0
 24 25  2  0
  6  1  1  0
 14 10  1  0
 20 15  1  0
 24 18  1  0
M  END
>  <Structure>  (104) 
4Z84

>  <Dataset>  (104) 
PDB

>  <Chain>  (104) 
A

>  <Spatial_Label>  (104) 
DFGin

>  <Dihedral_Label>  (104) 
BLAminus

>  <C_Helix_Label>  (104) 
Chelix-in

>  <Lig_ID>  (104) 
NVX

>  <Lig_Entity_ID>  (104) 
4Z84_3

>  <Lig_Name>  (104) 
7-[(3S,4R)-4-(3-chlorophenyl)carbonylpyrrolidin-3-yl]-3H-quinazolin-4-one

>  <Lig_Formula>  (104) 
C19H16ClN3O2

>  <Lig_SMILES>  (104) 
c1cc(cc(c1)Cl)C(=O)[C@H]2CNC[C@@H]2c3ccc4c(c3)N=CNC4=O

>  <Lig_MW>  (104) 
353.802

>  <Lig_ChEMBL_ID>  (104) 
nan

>  <Lig_DrugBank_ID>  (104) 
nan

>  <Occurence>  (104) 
2.0

>  <Lig_SMILES_Uncharged>  (104) 
O=C(c1cccc(Cl)c1)[C@H]1CNC[C@@H]1c1ccc2c(=O)[nH]cnc2c1

>  <Lig_Conformer>  (104) 
['NaN']

>  <Lig_Of_Interest>  (104) 
['Y']

>  <Lig_Completeness>  (104) 
[1.0]

>  <Lig_Occupancy>  (104) 
[0.9729]

>  <Lig_RSCC>  (104) 
[0.84]

>  <Lig_RSR>  (104) 
[0.132]

>  <Lig_RMSZ_Bonds>  (104) 
[0.35]

>  <Lig_RMSZ_Angles>  (104) 
[0.8]

>  <Lig_Alt_Conf>  (104) 
0.0

>  <Title>  (104) 
PKAB3 in complex with pyrrolidine inhibitor 34a

>  <Nonpolymer_Entity_Count>  (104) 
3.0

>  <Protein_Entity_Count>  (104) 
2.0

>  <Exp_Method>  (104) 
X-Ray Diffraction

>  <Cryst_Method>  (104) 
Vapor Diffusion, Hanging Drop; The Droplets, Containing 16 Mg/Ml Protein 25 Mm Bis-Tris-Hcl, pH 7.0, 150 Mm Kcl, 1.5Mm Octanoyl-N-Methylglucamide, 0.8 Mm Pki Peptide And 1Mm Of The Pyrrolidine  Inhibitor 34A, Were Equilibrated Against 12-26 % (V/V) Methanol.

>  <Deposit_Date>  (104) 
2015-04-08

>  <Resolution>  (104) 
1.554

>  <DOI>  (104) 
https://doi.org/10.1002/chem.201503552

>  <Source_Organism>  (104) 
Bos taurus

>  <R_Free>  (104) 
0.2343

>  <Keywords>  (104) 
Transferase

>  <REMARK_280>  (104) 
 Crystal Solvent Content, Vs (%): 46.83 Matthews Coefficient, Vm (Angstroms**3/Da): 2.31 Crystallization Conditions: The Droplets, Containing 16 Mg/Ml Protein 25 Mm Bis-Tris-Hcl, pH 7.0, 150 Mm Kcl, 1.5Mm Octanoyl-N- Methylglucamide, 0.8 Mm Pki Peptide And 1Mm Of The Pyrrolidine Inhibitor 34A, Were Equilibrated Against 12-26 % (V/V) Methanol., Vapor Diffusion, Hanging Drop, Temperature 277K 

>  <REMARK_610>  (104) 
nan

>  <pH>  (104) 
7.0

>  <Cryst_Technique>  (104) 
co-crystallized

>  <Sequence>  (104) 
MGNAAAAKKGSEQESVKEFLAKAKEDFLKKWENPAQNTAHLDQFERIKTLGTGSFGRVMLVKHMETGNHYAMKILDKQKVVKLKQIEHTLNEKRILQAVNFPFLVKLEFSFKDNSNLYMVMEYAPGGEMFSHLRRIGRFSEPHARFYAAQIVLTFEYLHSLDLIYRDLKPENLMIDQQGYIKVTDFGFAKRVKGRTWTLCGTPEYLAPEIILSKGYNKAVDWWALGVLIYEMAAGYPPFFADQPIQIYEKIVSGKVRFPSHFSSDLKDLLRNLLQVDLTKRFGNLKNGVNDIKNHKWFATTDWIAIYQRKVEAPFIPKFKGPGDTSNFDDYEEEEIRVSINEKCGKEFSEF

>  <Sequence_Length>  (104) 
351.0

>  <Mutation_Count>  (104) 
3.0

>  <Gene_Name>  (104) 
PKACA

>  <MW>  (104) 
40.829

>  <Name>  (104) 
cAMP-Dependent Protein Kinase Catalytic Subunit Alpha

>  <Mutations>  (104) 
V123A, L173M, Q181K

>  <EC_Number>  (104) 
2.7.11.11

>  <Peptidic_Inhibitor>  (104) 
True

>  <Lig_Missing_Atoms>  (104) 
['No']

>  <PDBbind_Resolution>  (104) 
1.55

>  <PDBbind_Release_Year>  (104) 
2015.0

>  <PDBbind_Comment>  (104) 
ligand is (+)-1c

>  <PDBbind_Uniprot_Id>  (104) 
P00517

>  <PDBbind_Protein_Name>  (104) 
CAMP-DEPENDENT PROTEIN KINASE

>  <PDBbind_-Logkd/Ki>  (104) 
5.82

>  <PDBbind_Kd/Ki>  (104) 
Ki=1500nM

>  <PDBbind_Kd_Or_Ki_Or_Ic50>  (104) 
Ki

>  <PDBbind_Relation>  (104) 
=

>  <PDBbind_Value>  (104) 
1500.0

>  <PDBbind_Unit>  (104) 
nM

>  <PDBbind_Standard_Value>  (104) 
1500.0

>  <PDBbind_Standard_Unit>  (104) 
nM

>  <PDB_Chain>  (104) 
['A']

>  <Num_Ligs>  (104) 
[1.0]

>  <Orthosteric>  (104) 
[1.0]

>  <Allosteric>  (104) 
[0.0]

>  <Pockets_Assigned>  (104) 
['A']

>  <Multisite>  (104) 
[False]

>  <Same_Number>  (104) 
True

>  <Same_Binding_Site>  (104) 
True

>  <Same_Orientation>  (104) 
True

>  <Lig_Order_in_.pdb>  (104) 
Orthosteric

$$$$

     RDKit          2D

 12 13  0  0  0  0  0  0  0  0999 V2000
    1.5000    0.0000    0.0000 C   0  0  0  0  0  0  0  0  0  0  0  0
    0.7500   -1.2990    0.0000 C   0  0  0  0  0  0  0  0  0  0  0  0
   -0.7500   -1.2990    0.0000 C   0  0  0  0  0  0  0  0  0  0  0  0
   -1.5000    0.0000    0.0000 C   0  0  0  0  0  0  0  0  0  0  0  0
   -0.7500    1.2990    0.0000 C   0  0  0  0  0  0  0  0  0  0  0  0
    0.7500    1.2990    0.0000 C   0  0  0  0  0  0  0  0  0  0  0  0
   -1.5000    2.5981    0.0000 C   0  0  0  0  0  0  0  0  0  0  0  0
   -0.7500    3.8971    0.0000 O   0  0  0  0  0  0  0  0  0  0  0  0
   -3.0000    2.5981    0.0000 N   0  0  0  0  0  0  0  0  0  0  0  0
   -3.7500    1.2990    0.0000 N   0  0  0  0  0  0  0  0  0  0  0  0
   -3.0000    0.0000    0.0000 C   0  0  0  0  0  0  0  0  0  0  0  0
   -3.7500   -1.2990    0.0000 Cl  0  0  0  0  0  0  0  0  0  0  0  0
  1  2  2  0
  2  3  1  0
  3  4  2  0
  4  5  1  0
  5  6  2  0
  5  7  1  0
  7  8  2  0
  7  9  1  0
  9 10  1  0
 10 11  2  0
 11 12  1  0
  6  1  1  0
 11  4  1  0
M  END
>  <Structure>  (105) 
5BX6

>  <Dataset>  (105) 
PDB

>  <Chain>  (105) 
A

>  <Spatial_Label>  (105) 
DFGin

>  <Dihedral_Label>  (105) 
BLAminus

>  <C_Helix_Label>  (105) 
Chelix-in

>  <Lig_ID>  (105) 
495

>  <Lig_Entity_ID>  (105) 
5BX6_3

>  <Lig_Name>  (105) 
4-chlorophthalazin-1(2H)-one

>  <Lig_Formula>  (105) 
C8H5ClN2O

>  <Lig_SMILES>  (105) 
c1ccc2c(c1)C(=O)NN=C2Cl

>  <Lig_MW>  (105) 
180.591

>  <Lig_ChEMBL_ID>  (105) 
['CHEMBL2381525']

>  <Lig_DrugBank_ID>  (105) 
nan

>  <Occurence>  (105) 
1.0

>  <Lig_SMILES_Uncharged>  (105) 
O=c1[nH]nc(Cl)c2ccccc12

>  <Lig_Conformer>  (105) 
['NaN']

>  <Lig_Of_Interest>  (105) 
['Y']

>  <Lig_Completeness>  (105) 
[1.0]

>  <Lig_Occupancy>  (105) 
[0.9458]

>  <Lig_RSCC>  (105) 
[0.933]

>  <Lig_RSR>  (105) 
[0.102]

>  <Lig_RMSZ_Bonds>  (105) 
[2.65]

>  <Lig_RMSZ_Angles>  (105) 
[1.93]

>  <Lig_Alt_Conf>  (105) 
0.0

>  <Title>  (105) 
PKA in complex with a halogenated phthalazinone fragment compound.

>  <Nonpolymer_Entity_Count>  (105) 
4.0

>  <Protein_Entity_Count>  (105) 
2.0

>  <Exp_Method>  (105) 
X-Ray Diffraction

>  <Cryst_Method>  (105) 
Vapor Diffusion, Hanging Drop; The Droplets, Containing 10 Mg/Ml Pka.
25 Mm Bis-Tris-Hcl, pH 7.0, 150 Mm Kcl, 1.5Mm Octanoyl-N-Methylglucamide And 0.8 Mm Pki Peptide, Were Equilibrated Against 12-26 % (V/V) Methanol.

>  <Deposit_Date>  (105) 
2015-06-08

>  <Resolution>  (105) 
1.89

>  <DOI>  (105) 
nan

>  <Source_Organism>  (105) 
Homo sapiens

>  <R_Free>  (105) 
0.2178

>  <Keywords>  (105) 
Transferase

>  <REMARK_280>  (105) 
 Crystal Solvent Content, Vs (%): 51.02 Matthews Coefficient, Vm (Angstroms**3/Da): 2.51 Crystallization Conditions: The Droplets, Containing 10 Mg/Ml Pka. 25 Mm Bis-Tris-Hcl, pH 7.0, 150 Mm Kcl, 1.5Mm Octanoyl-N- Methylglucamide And 0.8 Mm Pki Peptide, Were Equilibrated Against 12-26 % (V/V) Methanol., Vapor Diffusion, Hanging Drop, Temperature 277K 

>  <REMARK_610>  (105) 
nan

>  <pH>  (105) 
7.0

>  <Cryst_Technique>  (105) 
nan

>  <Sequence>  (105) 
MGNAAAAKKGSEQESVKEFLAKAKEDFLKKWESPAQNTAHLDQFERIKTLGTGSFGRVMLVKHKETGNHYAMKILDKQKVVKLKQIEHTLNEKRILQAVNFPFLVKLEFSFKDNSNLYMVMEYVPGGEMFSHLRRIGRFSEPHARFYAAQIVLTFEYLHSLDLIYRDLKPENLLIDQQGYIQVTDFGFAKRVKGRTWTLCGTPEYLAPEIILSKGYNKAVDWWALGVLIYEMAAGYPPFFADQPIQIYEKIVSGKVRFPSHFSSDLKDLLRNLLQVDLTKRFGNLKNGVNDIKNHKWFATTDWIAIYQRKVEAPFIPKFKGPGDTSNFDDYEEEEIRVSINEKCGKEFSEF

>  <Sequence_Length>  (105) 
351.0

>  <Mutation_Count>  (105) 
0.0

>  <Gene_Name>  (105) 
PKACA

>  <MW>  (105) 
40.889

>  <Name>  (105) 
cAMP-Dependent Protein Kinase Catalytic Subunit Alpha

>  <Mutations>  (105) 
nan

>  <EC_Number>  (105) 
2.7.11.11

>  <Peptidic_Inhibitor>  (105) 
True

>  <Lig_Missing_Atoms>  (105) 
['No']

>  <PDBbind_Resolution>  (105) 
nan

>  <PDBbind_Release_Year>  (105) 
nan

>  <PDBbind_Comment>  (105) 
nan

>  <PDBbind_Uniprot_Id>  (105) 
nan

>  <PDBbind_Protein_Name>  (105) 
nan

>  <PDBbind_-Logkd/Ki>  (105) 
nan

>  <PDBbind_Kd/Ki>  (105) 
nan

>  <PDBbind_Kd_Or_Ki_Or_Ic50>  (105) 
nan

>  <PDBbind_Relation>  (105) 
nan

>  <PDBbind_Value>  (105) 
nan

>  <PDBbind_Unit>  (105) 
nan

>  <PDBbind_Standard_Value>  (105) 
nan

>  <PDBbind_Standard_Unit>  (105) 
nan

>  <PDB_Chain>  (105) 
['A']

>  <Num_Ligs>  (105) 
[1.0]

>  <Orthosteric>  (105) 
[1.0]

>  <Allosteric>  (105) 
[0.0]

>  <Pockets_Assigned>  (105) 
['A']

>  <Multisite>  (105) 
[False]

>  <Same_Number>  (105) 
True

>  <Same_Binding_Site>  (105) 
True

>  <Same_Orientation>  (105) 
True

>  <Lig_Order_in_.pdb>  (105) 
Orthosteric

$$$$

     RDKit          2D

 11 12  0  0  0  0  0  0  0  0999 V2000
    1.5000    0.0000    0.0000 C   0  0  0  0  0  0  0  0  0  0  0  0
    0.7500   -1.2990    0.0000 C   0  0  0  0  0  0  0  0  0  0  0  0
   -0.7500   -1.2990    0.0000 C   0  0  0  0  0  0  0  0  0  0  0  0
   -1.5000    0.0000    0.0000 C   0  0  0  0  0  0  0  0  0  0  0  0
   -0.7500    1.2990    0.0000 C   0  0  0  0  0  0  0  0  0  0  0  0
    0.7500    1.2990    0.0000 C   0  0  0  0  0  0  0  0  0  0  0  0
   -1.7537    2.4138    0.0000 C   0  0  0  0  0  0  0  0  0  0  0  0
   -3.1240    1.8037    0.0000 C   0  0  0  0  0  0  0  0  0  0  0  0
   -2.9672    0.3119    0.0000 S   0  0  0  0  0  0  0  0  0  0  0  0
   -1.4418    3.8810    0.0000 C   0  0  0  0  0  0  0  0  0  0  0  0
   -2.5565    4.8847    0.0000 O   0  0  0  0  0  0  0  0  0  0  0  0
  1  2  2  0
  2  3  1  0
  3  4  2  0
  4  5  1  0
  5  6  2  0
  5  7  1  0
  7  8  2  0
  8  9  1  0
  7 10  1  0
 10 11  1  0
  6  1  1  0
  9  4  1  0
M  END
>  <Structure>  (106) 
5BX7

>  <Dataset>  (106) 
PDB

>  <Chain>  (106) 
A

>  <Spatial_Label>  (106) 
DFGin

>  <Dihedral_Label>  (106) 
BLAminus

>  <C_Helix_Label>  (106) 
Chelix-in

>  <Lig_ID>  (106) 
4W1

>  <Lig_Entity_ID>  (106) 
5BX7_3

>  <Lig_Name>  (106) 
1-benzothiophen-3-ylmethanol

>  <Lig_Formula>  (106) 
C9H8OS

>  <Lig_SMILES>  (106) 
c1ccc2c(c1)c(cs2)CO

>  <Lig_MW>  (106) 
164.224

>  <Lig_ChEMBL_ID>  (106) 
['CHEMBL3358210']

>  <Lig_DrugBank_ID>  (106) 
nan

>  <Occurence>  (106) 
1.0

>  <Lig_SMILES_Uncharged>  (106) 
OCc1csc2ccccc12

>  <Lig_Conformer>  (106) 
['NaN']

>  <Lig_Of_Interest>  (106) 
['Y']

>  <Lig_Completeness>  (106) 
[1.0]

>  <Lig_Occupancy>  (106) 
[1.0]

>  <Lig_RSCC>  (106) 
[0.84]

>  <Lig_RSR>  (106) 
[0.161]

>  <Lig_RMSZ_Bonds>  (106) 
[3.12]

>  <Lig_RMSZ_Angles>  (106) 
[2.71]

>  <Lig_Alt_Conf>  (106) 
0.0

>  <Title>  (106) 
PKA in complex with a benzothiophene fragment compound.

>  <Nonpolymer_Entity_Count>  (106) 
4.0

>  <Protein_Entity_Count>  (106) 
2.0

>  <Exp_Method>  (106) 
X-Ray Diffraction

>  <Cryst_Method>  (106) 
Vapor Diffusion, Hanging Drop; The Droplets, Containing 10 Mg/Ml Pka.
25 Mm Bis-Tris-Hcl, pH 7.0, 150 Mm Kcl, 1.5Mm Octanoyl-N-Methylglucamide And 0.8 Mm Pki Peptide, Were Equilibrated Against 12-26 % (V/V) Methanol.

>  <Deposit_Date>  (106) 
2015-06-08

>  <Resolution>  (106) 
1.89

>  <DOI>  (106) 
nan

>  <Source_Organism>  (106) 
Homo sapiens

>  <R_Free>  (106) 
0.2262

>  <Keywords>  (106) 
Transferase

>  <REMARK_280>  (106) 
 Crystal Solvent Content, Vs (%): 51.33 Matthews Coefficient, Vm (Angstroms**3/Da): 2.53 Crystallization Conditions: The Droplets, Containing 10 Mg/Ml Pka. 25 Mm Bis-Tris-Hcl, pH 7.0, 150 Mm Kcl, 1.5Mm Octanoyl-N- Methylglucamide And 0.8 Mm Pki Peptide, Were Equilibrated Against 12-26 % (V/V) Methanol., Vapor Diffusion, Hanging Drop, Temperature 277K 

>  <REMARK_610>  (106) 
nan

>  <pH>  (106) 
7.0

>  <Cryst_Technique>  (106) 
nan

>  <Sequence>  (106) 
MGNAAAAKKGSEQESVKEFLAKAKEDFLKKWESPAQNTAHLDQFERIKTLGTGSFGRVMLVKHKETGNHYAMKILDKQKVVKLKQIEHTLNEKRILQAVNFPFLVKLEFSFKDNSNLYMVMEYVPGGEMFSHLRRIGRFSEPHARFYAAQIVLTFEYLHSLDLIYRDLKPENLLIDQQGYIQVTDFGFAKRVKGRTWTLCGTPEYLAPEIILSKGYNKAVDWWALGVLIYEMAAGYPPFFADQPIQIYEKIVSGKVRFPSHFSSDLKDLLRNLLQVDLTKRFGNLKNGVNDIKNHKWFATTDWIAIYQRKVEAPFIPKFKGPGDTSNFDDYEEEEIRVSINEKCGKEFSEF

>  <Sequence_Length>  (106) 
351.0

>  <Mutation_Count>  (106) 
0.0

>  <Gene_Name>  (106) 
PKACA

>  <MW>  (106) 
40.889

>  <Name>  (106) 
cAMP-Dependent Protein Kinase Catalytic Subunit Alpha

>  <Mutations>  (106) 
nan

>  <EC_Number>  (106) 
2.7.11.11

>  <Peptidic_Inhibitor>  (106) 
True

>  <Lig_Missing_Atoms>  (106) 
['No']

>  <PDBbind_Resolution>  (106) 
nan

>  <PDBbind_Release_Year>  (106) 
nan

>  <PDBbind_Comment>  (106) 
nan

>  <PDBbind_Uniprot_Id>  (106) 
nan

>  <PDBbind_Protein_Name>  (106) 
nan

>  <PDBbind_-Logkd/Ki>  (106) 
nan

>  <PDBbind_Kd/Ki>  (106) 
nan

>  <PDBbind_Kd_Or_Ki_Or_Ic50>  (106) 
nan

>  <PDBbind_Relation>  (106) 
nan

>  <PDBbind_Value>  (106) 
nan

>  <PDBbind_Unit>  (106) 
nan

>  <PDBbind_Standard_Value>  (106) 
nan

>  <PDBbind_Standard_Unit>  (106) 
nan

>  <PDB_Chain>  (106) 
['A']

>  <Num_Ligs>  (106) 
[1.0]

>  <Orthosteric>  (106) 
[1.0]

>  <Allosteric>  (106) 
[0.0]

>  <Pockets_Assigned>  (106) 
['A']

>  <Multisite>  (106) 
[False]

>  <Same_Number>  (106) 
True

>  <Same_Binding_Site>  (106) 
True

>  <Same_Orientation>  (106) 
True

>  <Lig_Order_in_.pdb>  (106) 
Orthosteric

$$$$

     RDKit          2D

 15 17  0  0  0  0  0  0  0  0999 V2000
    1.2760    0.0000    0.0000 C   0  0  0  0  0  0  0  0  0  0  0  0
    0.3943    1.2135    0.0000 C   0  0  0  0  0  0  0  0  0  0  0  0
   -1.0323    0.7500    0.0000 N   0  0  0  0  0  0  0  0  0  0  0  0
   -1.0323   -0.7500    0.0000 C   0  0  0  0  0  0  0  0  0  0  0  0
    0.3943   -1.2135    0.0000 C   0  0  0  0  0  0  0  0  0  0  0  0
    0.7062   -2.6807    0.0000 C   0  0  0  0  0  0  0  0  0  0  0  0
   -0.4086   -3.6844    0.0000 N   0  0  0  0  0  0  0  0  0  0  0  0
   -1.8351   -3.2209    0.0000 C   0  0  0  0  0  0  0  0  0  0  0  0
   -2.1470   -1.7537    0.0000 N   0  0  0  0  0  0  0  0  0  0  0  0
    2.1328   -3.1443    0.0000 N   0  0  0  0  0  0  0  0  0  0  0  0
    2.4446   -4.6115    0.0000 C   0  0  0  0  0  0  0  0  0  0  0  0
    3.8712   -5.0750    0.0000 C   0  0  0  0  0  0  0  0  0  0  0  0
    4.9859   -4.0713    0.0000 N   0  0  0  0  0  0  0  0  0  0  0  0
    4.6741   -2.6041    0.0000 C   0  0  0  0  0  0  0  0  0  0  0  0
    3.2475   -2.1406    0.0000 C   0  0  0  0  0  0  0  0  0  0  0  0
  1  2  2  0
  2  3  1  0
  3  4  1  0
  4  5  2  0
  5  6  1  0
  6  7  2  0
  7  8  1  0
  8  9  2  0
  6 10  1  0
 10 11  1  0
 11 12  1  0
 12 13  1  0
 13 14  1  0
 14 15  1  0
  5  1  1  0
  9  4  1  0
 15 10  1  0
M  END
>  <Structure>  (107) 
5IZJ

>  <Dataset>  (107) 
PDB

>  <Chain>  (107) 
['A', 'B']

>  <Spatial_Label>  (107) 
DFGin

>  <Dihedral_Label>  (107) 
BLAminus

>  <C_Helix_Label>  (107) 
['Chelix-in', 'Chelix-out']

>  <Lig_ID>  (107) 
6J9

>  <Lig_Entity_ID>  (107) 
5IZJ_5

>  <Lig_Name>  (107) 
4-(piperazin-1-yl)-7H-pyrrolo[2,3-d]pyrimidine

>  <Lig_Formula>  (107) 
C10H13N5

>  <Lig_SMILES>  (107) 
c1c[nH]c2c1c(ncn2)N3CCNCC3

>  <Lig_MW>  (107) 
203.244

>  <Lig_ChEMBL_ID>  (107) 
['CHEMBL595554']

>  <Lig_DrugBank_ID>  (107) 
nan

>  <Occurence>  (107) 
2.0

>  <Lig_SMILES_Uncharged>  (107) 
c1nc(N2CCNCC2)c2cc[nH]c2n1

>  <Lig_Conformer>  (107) 
['NaN', 'NaN']

>  <Lig_Of_Interest>  (107) 
['Y', 'Y']

>  <Lig_Completeness>  (107) 
[1.0, 1.0]

>  <Lig_Occupancy>  (107) 
[1.0, 1.0]

>  <Lig_RSCC>  (107) 
[0.589, 0.711]

>  <Lig_RSR>  (107) 
[0.288, 0.269]

>  <Lig_RMSZ_Bonds>  (107) 
[1.35, 1.38]

>  <Lig_RMSZ_Angles>  (107) 
[2.01, 1.94]

>  <Lig_Alt_Conf>  (107) 
0.0

>  <Title>  (107) 
Complex of PKA with the bisubstrate protein kinase inhibitor ARC-1411

>  <Nonpolymer_Entity_Count>  (107) 
28.0

>  <Protein_Entity_Count>  (107) 
4.0

>  <Exp_Method>  (107) 
X-Ray Diffraction

>  <Cryst_Method>  (107) 
Vapor Diffusion, Hanging Drop; 0.4M Lithium Sulfate, 0.1M pHosphate Citrate pH 4.5, 17%-19% Peg 1.5K

>  <Deposit_Date>  (107) 
2016-03-25

>  <Resolution>  (107) 
1.85

>  <DOI>  (107) 
https://doi.org/10.1021/acs.bioconjchem.6b00293

>  <Source_Organism>  (107) 
Homo sapiens

>  <R_Free>  (107) 
0.22585

>  <Keywords>  (107) 
Transferase

>  <REMARK_280>  (107) 
 Crystal Solvent Content, Vs (%): 51.12 Matthews Coefficient, Vm (Angstroms**3/Da): 2.52 Crystallization Conditions: 0.4M Lithium Sulfate, 0.1M pHosphate Citrate pH 4.5, 17%-19% Peg 1.5K, Vapor Diffusion, Hanging Drop, Temperature 277.15K 

>  <REMARK_610>  (107) 
nan

>  <pH>  (107) 
4.5

>  <Cryst_Technique>  (107) 
co-crystallized

>  <Sequence>  (107) 
MGNAAAAKKGSEQESVKEFLAKAKEDFLKKWESPAQNTAHLDQFERIKTLGTGSFGRVMLVKHKETGNHYAMKILDKQKVVKLKQIEHTLNEKRILQAVNFPFLVKLEFSFKDNSNLYMVMEYVPGGEMFSHLRRIGRFSEPHARFYAAQIVLTFEYLHSLDLIYRDLKPENLLIDQQGYIQVTDFGFAKRVKGRTWTLCGTPEYLAPEIILSKGYNKAVDWWALGVLIYEMAAGYPPFFADQPIQIYEKIVSGKVRFPSHFSSDLKDLLRNLLQVDLTKRFGNLKNGVNDIKNHKWFATTDWIAIYQRKVEAPFIPKFKGPGDTSNFDDYEEEEIRVSINEKCGKEFSEF

>  <Sequence_Length>  (107) 
351.0

>  <Mutation_Count>  (107) 
0.0

>  <Gene_Name>  (107) 
PKACA

>  <MW>  (107) 
40.809

>  <Name>  (107) 
cAMP-Dependent Protein Kinase Catalytic Subunit Alpha

>  <Mutations>  (107) 
nan

>  <EC_Number>  (107) 
2.7.11.11

>  <Peptidic_Inhibitor>  (107) 
True

>  <Lig_Missing_Atoms>  (107) 
['No', 'No']

>  <PDBbind_Resolution>  (107) 
nan

>  <PDBbind_Release_Year>  (107) 
nan

>  <PDBbind_Comment>  (107) 
nan

>  <PDBbind_Uniprot_Id>  (107) 
nan

>  <PDBbind_Protein_Name>  (107) 
nan

>  <PDBbind_-Logkd/Ki>  (107) 
nan

>  <PDBbind_Kd/Ki>  (107) 
nan

>  <PDBbind_Kd_Or_Ki_Or_Ic50>  (107) 
nan

>  <PDBbind_Relation>  (107) 
nan

>  <PDBbind_Value>  (107) 
nan

>  <PDBbind_Unit>  (107) 
nan

>  <PDBbind_Standard_Value>  (107) 
nan

>  <PDBbind_Standard_Unit>  (107) 
nan

>  <PDB_Chain>  (107) 
['A', 'B']

>  <Num_Ligs>  (107) 
[2.0, 2.0]

>  <Orthosteric>  (107) 
[1.0, 1.0]

>  <Allosteric>  (107) 
[1.0, 1.0]

>  <Pockets_Assigned>  (107) 
['A, X', 'A, X']

>  <Multisite>  (107) 
[True, True]

>  <Same_Number>  (107) 
True

>  <Same_Binding_Site>  (107) 
True

>  <Same_Orientation>  (107) 
True

>  <Lig_Order_in_.pdb>  (107) 
Orthosteric, Allosteric; Orthosteric, Allosteric

$$$$

     RDKit          2D

 15 17  0  0  0  0  0  0  0  0999 V2000
    1.2760    0.0000    0.0000 C   0  0  0  0  0  0  0  0  0  0  0  0
    0.3943    1.2135    0.0000 C   0  0  0  0  0  0  0  0  0  0  0  0
   -1.0323    0.7500    0.0000 N   0  0  0  0  0  0  0  0  0  0  0  0
   -1.0323   -0.7500    0.0000 C   0  0  0  0  0  0  0  0  0  0  0  0
    0.3943   -1.2135    0.0000 C   0  0  0  0  0  0  0  0  0  0  0  0
    0.7062   -2.6807    0.0000 C   0  0  0  0  0  0  0  0  0  0  0  0
   -0.4086   -3.6844    0.0000 N   0  0  0  0  0  0  0  0  0  0  0  0
   -1.8351   -3.2209    0.0000 C   0  0  0  0  0  0  0  0  0  0  0  0
   -2.1470   -1.7537    0.0000 N   0  0  0  0  0  0  0  0  0  0  0  0
    2.1328   -3.1443    0.0000 N   0  0  0  0  0  0  0  0  0  0  0  0
    2.4446   -4.6115    0.0000 C   0  0  0  0  0  0  0  0  0  0  0  0
    3.8712   -5.0750    0.0000 C   0  0  0  0  0  0  0  0  0  0  0  0
    4.9859   -4.0713    0.0000 N   0  0  0  0  0  0  0  0  0  0  0  0
    4.6741   -2.6041    0.0000 C   0  0  0  0  0  0  0  0  0  0  0  0
    3.2475   -2.1406    0.0000 C   0  0  0  0  0  0  0  0  0  0  0  0
  1  2  2  0
  2  3  1  0
  3  4  1  0
  4  5  2  0
  5  6  1  0
  6  7  2  0
  7  8  1  0
  8  9  2  0
  6 10  1  0
 10 11  1  0
 11 12  1  0
 12 13  1  0
 13 14  1  0
 14 15  1  0
  5  1  1  0
  9  4  1  0
 15 10  1  0
M  END
>  <Structure>  (108) 
5J5X

>  <Dataset>  (108) 
PDB

>  <Chain>  (108) 
A

>  <Spatial_Label>  (108) 
DFGin

>  <Dihedral_Label>  (108) 
BLAminus

>  <C_Helix_Label>  (108) 
Chelix-in

>  <Lig_ID>  (108) 
6J9

>  <Lig_Entity_ID>  (108) 
5J5X_4

>  <Lig_Name>  (108) 
4-(piperazin-1-yl)-7H-pyrrolo[2,3-d]pyrimidine

>  <Lig_Formula>  (108) 
C10H13N5

>  <Lig_SMILES>  (108) 
c1c[nH]c2c1c(ncn2)N3CCNCC3

>  <Lig_MW>  (108) 
203.244

>  <Lig_ChEMBL_ID>  (108) 
['CHEMBL595554']

>  <Lig_DrugBank_ID>  (108) 
nan

>  <Occurence>  (108) 
2.0

>  <Lig_SMILES_Uncharged>  (108) 
c1nc(N2CCNCC2)c2cc[nH]c2n1

>  <Lig_Conformer>  (108) 
['NaN']

>  <Lig_Of_Interest>  (108) 
['Y']

>  <Lig_Completeness>  (108) 
[1.0]

>  <Lig_Occupancy>  (108) 
[1.0]

>  <Lig_RSCC>  (108) 
[0.783]

>  <Lig_RSR>  (108) 
[0.325]

>  <Lig_RMSZ_Bonds>  (108) 
[1.28]

>  <Lig_RMSZ_Angles>  (108) 
[2.05]

>  <Lig_Alt_Conf>  (108) 
0.0

>  <Title>  (108) 
Complex of PKA with the bisubstrate protein kinase inhibitor ARC-1416

>  <Nonpolymer_Entity_Count>  (108) 
4.0

>  <Protein_Entity_Count>  (108) 
2.0

>  <Exp_Method>  (108) 
X-Ray Diffraction

>  <Cryst_Method>  (108) 
Vapor Diffusion, Hanging Drop; 18% Peg3350, 0.2M Liso4

>  <Deposit_Date>  (108) 
2016-04-04

>  <Resolution>  (108) 
2.6

>  <DOI>  (108) 
https://doi.org/10.1021/acs.bioconjchem.6b00293

>  <Source_Organism>  (108) 
Homo sapiens

>  <R_Free>  (108) 
0.30895

>  <Keywords>  (108) 
Transferase

>  <REMARK_280>  (108) 
 Crystal Solvent Content, Vs (%): 50.64 Matthews Coefficient, Vm (Angstroms**3/Da): 2.49 Crystallization Conditions: 18% Peg3350, 0.2M Liso4, pH 7.0, Vapor Diffusion, Hanging Drop, Temperature 277.15K 

>  <REMARK_610>  (108) 
nan

>  <pH>  (108) 
7.0

>  <Cryst_Technique>  (108) 
co-crystallized

>  <Sequence>  (108) 
MGNAAAAKKGSEQESVKEFLAKAKEDFLKKWESPAQNTAHLDQFERIKTLGTGSFGRVMLVKHKETGNHYAMKILDKQKVVKLKQIEHTLNEKRILQAVNFPFLVKLEFSFKDNSNLYMVMEYVPGGEMFSHLRRIGRFSEPHARFYAAQIVLTFEYLHSLDLIYRDLKPENLLIDQQGYIQVTDFGFAKRVKGRTWTLCGTPEYLAPEIILSKGYNKAVDWWALGVLIYEMAAGYPPFFADQPIQIYEKIVSGKVRFPSHFSSDLKDLLRNLLQVDLTKRFGNLKNGVNDIKNHKWFATTDWIAIYQRKVEAPFIPKFKGPGDTSNFDDYEEEEIRVSINEKCGKEFSEF

>  <Sequence_Length>  (108) 
351.0

>  <Mutation_Count>  (108) 
0.0

>  <Gene_Name>  (108) 
PKACA

>  <MW>  (108) 
40.809

>  <Name>  (108) 
cAMP-Dependent Protein Kinase Catalytic Subunit Alpha

>  <Mutations>  (108) 
nan

>  <EC_Number>  (108) 
2.7.11.11

>  <Peptidic_Inhibitor>  (108) 
True

>  <Lig_Missing_Atoms>  (108) 
['No']

>  <PDBbind_Resolution>  (108) 
nan

>  <PDBbind_Release_Year>  (108) 
nan

>  <PDBbind_Comment>  (108) 
nan

>  <PDBbind_Uniprot_Id>  (108) 
nan

>  <PDBbind_Protein_Name>  (108) 
nan

>  <PDBbind_-Logkd/Ki>  (108) 
nan

>  <PDBbind_Kd/Ki>  (108) 
nan

>  <PDBbind_Kd_Or_Ki_Or_Ic50>  (108) 
nan

>  <PDBbind_Relation>  (108) 
nan

>  <PDBbind_Value>  (108) 
nan

>  <PDBbind_Unit>  (108) 
nan

>  <PDBbind_Standard_Value>  (108) 
nan

>  <PDBbind_Standard_Unit>  (108) 
nan

>  <PDB_Chain>  (108) 
['A']

>  <Num_Ligs>  (108) 
[2.0]

>  <Orthosteric>  (108) 
[1.0]

>  <Allosteric>  (108) 
[1.0]

>  <Pockets_Assigned>  (108) 
['A, X']

>  <Multisite>  (108) 
[True]

>  <Same_Number>  (108) 
False

>  <Same_Binding_Site>  (108) 
True

>  <Same_Orientation>  (108) 
True

>  <Lig_Order_in_.pdb>  (108) 
Orthosteric, Allosteric

$$$$

     RDKit          2D

 20 22  0  0  0  0  0  0  0  0999 V2000
    0.7500   -3.8971    0.0000 C   0  0  0  0  0  0  0  0  0  0  0  0
    1.5000   -2.5981    0.0000 C   0  0  0  0  0  0  0  0  0  0  0  0
    0.7500   -1.2990    0.0000 C   0  0  0  0  0  0  0  0  0  0  0  0
    1.5000    0.0000    0.0000 C   0  0  0  0  0  0  0  0  0  0  0  0
    0.7500    1.2990    0.0000 N   0  0  0  0  0  0  0  0  0  0  0  0
   -0.7500    1.2990    0.0000 C   0  0  0  0  0  0  0  0  0  0  0  0
   -1.5000    0.0000    0.0000 C   0  0  0  0  0  0  0  0  0  0  0  0
   -0.7500   -1.2990    0.0000 C   0  0  0  0  0  0  0  0  0  0  0  0
   -1.5000   -2.5981    0.0000 C   0  0  0  0  0  0  0  0  0  0  0  0
   -0.7500   -3.8971    0.0000 C   0  0  0  0  0  0  0  0  0  0  0  0
   -3.0000   -2.5981    0.0000 S   0  0  0  0  0  0  0  0  0  0  0  0
   -3.0000   -4.0981    0.0000 O   0  0  0  0  0  0  0  0  0  0  0  0
   -3.0000   -1.0981    0.0000 O   0  0  0  0  0  0  0  0  0  0  0  0
   -4.5000   -2.5981    0.0000 N   0  0  0  0  0  0  0  0  0  0  0  0
   -5.1508   -3.9495    0.0000 C   0  0  0  0  0  0  0  0  0  0  0  0
   -6.6132   -4.2833    0.0000 C   0  0  0  0  0  0  0  0  0  0  0  0
   -7.7860   -3.3481    0.0000 C   0  0  0  0  0  0  0  0  0  0  0  0
   -7.7860   -1.8481    0.0000 N   0  0  0  0  0  0  0  0  0  0  0  0
   -6.6132   -0.9128    0.0000 C   0  0  0  0  0  0  0  0  0  0  0  0
   -5.1508   -1.2466    0.0000 C   0  0  0  0  0  0  0  0  0  0  0  0
  1  2  2  0
  2  3  1  0
  3  4  2  0
  4  5  1  0
  5  6  2  0
  6  7  1  0
  7  8  2  0
  8  9  1  0
  9 10  2  0
  9 11  1  0
 11 12  2  0
 11 13  2  0
 11 14  1  0
 14 15  1  0
 15 16  1  0
 16 17  1  0
 17 18  1  0
 18 19  1  0
 19 20  1  0
 10  1  1  0
  8  3  1  0
 20 14  1  0
M  END
>  <Structure>  (109) 
5LCP

>  <Dataset>  (109) 
PDB

>  <Chain>  (109) 
A

>  <Spatial_Label>  (109) 
DFGin

>  <Dihedral_Label>  (109) 
ABAminus

>  <C_Helix_Label>  (109) 
Chelix-in

>  <Lig_ID>  (109) 
M77

>  <Lig_Entity_ID>  (109) 
5LCP_3

>  <Lig_Name>  (109) 
5-(1,4-DIAZEPAN-1-SULFONYL)ISOQUINOLINE

>  <Lig_Formula>  (109) 
C14H17N3O2S

>  <Lig_SMILES>  (109) 
c1cc2cnccc2c(c1)S(=O)(=O)N3CCCNCC3

>  <Lig_MW>  (109) 
291.369

>  <Lig_ChEMBL_ID>  (109) 
['CHEMBL38380']

>  <Lig_DrugBank_ID>  (109) 
['DB08162']

>  <Occurence>  (109) 
10.0

>  <Lig_SMILES_Uncharged>  (109) 
O=S(=O)(c1cccc2cnccc12)N1CCCNCC1

>  <Lig_Conformer>  (109) 
['NaN']

>  <Lig_Of_Interest>  (109) 
['Y']

>  <Lig_Completeness>  (109) 
[1.0]

>  <Lig_Occupancy>  (109) 
[1.0]

>  <Lig_RSCC>  (109) 
[0.985]

>  <Lig_RSR>  (109) 
[0.08]

>  <Lig_RMSZ_Bonds>  (109) 
[0.27]

>  <Lig_RMSZ_Angles>  (109) 
[0.65]

>  <Lig_Alt_Conf>  (109) 
0.0

>  <Title>  (109) 
Cocrystal structure of cAMP-dependent Protein Kinase (PKA) in complex with Fasudil (M77)

>  <Nonpolymer_Entity_Count>  (109) 
7.0

>  <Protein_Entity_Count>  (109) 
2.0

>  <Exp_Method>  (109) 
X-Ray Diffraction

>  <Deposit_Date>  (109) 
2016-06-22

>  <Resolution>  (109) 
1.433

>  <DOI>  (109) 
nan

>  <Source_Organism>  (109) 
Cricetulus griseus

>  <R_Free>  (109) 
0.1659

>  <Keywords>  (109) 
Transferase

>  <REMARK_280>  (109) 
 Crystal Solvent Content, Vs (%): 54.12 Matthews Coefficient, Vm (Angstroms**3/Da): 2.15 Crystallization Conditions: Drop: 10 Mg/Ml Pka (0.240 Mm) 30 Mm Mbt (Mes/Bis-Tris Puffer pH 6.9) 1 Mm Dtt 0.1 Mm Edta 75 Mm Licl 0.03 Mm Mega 8 0.07Mm Pki (Sigma: P7739) 1.2 Mm Ligand Solved In Dmso (50 Mm Stock) Reservoir: 18% Methanol 0.003 Ml Drop Volume, 0.4 Ml Reservoir Volume, Vapor Diffusion, Hanging Drop, Temperature 277.15K 

>  <REMARK_610>  (109) 
nan

>  <pH>  (109) 
6.9

>  <Cryst_Technique>  (109) 
nan

>  <Sequence>  (109) 
GHMGNAAAAKKGSEQESVKEFLAKAKEEFLKKWESPSQNTAQLDHFDRIKTLGTGSFGRVMLVKHKETGNHYAMKILDKQKVVKLKQIEHTLNEKRILQAVNFPFLVKLEFSFKDNSNLYMVMEYVPGGEMFSHLRRIGRFSEPHARFYAAQIVLTFEYLHSLDLIYRDLKPENLLIDQQGYIQVTDFGFAKRVKGRTWTLCGTPEYLAPEIILSKGYNKAVDWWALGVLIYEMAAGYPPFFADQPIQIYEKIVSGKVRFPSHFSSDLKDLLRNLLQVDLTKRFGNLKNGVNDIKNHKWFATTDWIAIYQRKVEAPFIPKFKGPGDTSNFDDYEEEEIRVSINEKCGKEFTEF

>  <Sequence_Length>  (109) 
353.0

>  <Mutation_Count>  (109) 
0.0

>  <Gene_Name>  (109) 
PKACA

>  <MW>  (109) 
41.114

>  <Name>  (109) 
cAMP-Dependent Protein Kinase Catalytic Subunit Alpha

>  <Mutations>  (109) 
nan

>  <EC_Number>  (109) 
2.7.11.11

>  <Peptidic_Inhibitor>  (109) 
True

>  <Lig_Missing_Atoms>  (109) 
['No']

>  <PDBbind_Resolution>  (109) 
nan

>  <PDBbind_Release_Year>  (109) 
nan

>  <PDBbind_Comment>  (109) 
nan

>  <PDBbind_Uniprot_Id>  (109) 
nan

>  <PDBbind_Protein_Name>  (109) 
nan

>  <PDBbind_-Logkd/Ki>  (109) 
nan

>  <PDBbind_Kd/Ki>  (109) 
nan

>  <PDBbind_Kd_Or_Ki_Or_Ic50>  (109) 
nan

>  <PDBbind_Relation>  (109) 
nan

>  <PDBbind_Value>  (109) 
nan

>  <PDBbind_Unit>  (109) 
nan

>  <PDBbind_Standard_Value>  (109) 
nan

>  <PDBbind_Standard_Unit>  (109) 
nan

>  <PDB_Chain>  (109) 
['A']

>  <Num_Ligs>  (109) 
[1.0]

>  <Orthosteric>  (109) 
[1.0]

>  <Allosteric>  (109) 
[0.0]

>  <Pockets_Assigned>  (109) 
['A']

>  <Multisite>  (109) 
[False]

>  <Same_Number>  (109) 
True

>  <Same_Binding_Site>  (109) 
True

>  <Same_Orientation>  (109) 
True

>  <Lig_Order_in_.pdb>  (109) 
Orthosteric

$$$$

     RDKit          2D

 20 21  0  0  0  0  0  0  0  0999 V2000
   11.2500    1.2990    0.0000 C   0  0  0  0  0  0  0  0  0  0  0  0
    9.7500    1.2990    0.0000 C   0  0  0  0  0  0  0  0  0  0  0  0
    9.0000   -0.0000    0.0000 C   0  0  0  0  0  0  0  0  0  0  0  0
    7.5000   -0.0000    0.0000 N   0  0  0  0  0  0  0  0  0  0  0  0
    6.7500   -1.2990    0.0000 C   0  0  0  0  0  0  0  0  0  0  0  0
    5.2500   -1.2990    0.0000 C   0  0  0  0  0  0  0  0  0  0  0  0
    4.5000   -2.5981    0.0000 N   0  0  0  0  0  0  0  0  0  0  0  0
    3.0000   -2.5981    0.0000 S   0  0  0  0  0  0  0  0  0  0  0  0
    3.0000   -4.0981    0.0000 O   0  0  0  0  0  0  0  0  0  0  0  0
    3.0000   -1.0981    0.0000 O   0  0  0  0  0  0  0  0  0  0  0  0
    1.5000   -2.5981    0.0000 C   0  0  0  0  0  0  0  0  0  0  0  0
    0.7500   -3.8971    0.0000 C   0  0  0  0  0  0  0  0  0  0  0  0
   -0.7500   -3.8971    0.0000 C   0  0  0  0  0  0  0  0  0  0  0  0
   -1.5000   -2.5981    0.0000 C   0  0  0  0  0  0  0  0  0  0  0  0
   -0.7500   -1.2990    0.0000 C   0  0  0  0  0  0  0  0  0  0  0  0
    0.7500   -1.2990    0.0000 C   0  0  0  0  0  0  0  0  0  0  0  0
    1.5000    0.0000    0.0000 C   0  0  0  0  0  0  0  0  0  0  0  0
    0.7500    1.2990    0.0000 C   0  0  0  0  0  0  0  0  0  0  0  0
   -0.7500    1.2990    0.0000 N   0  0  0  0  0  0  0  0  0  0  0  0
   -1.5000    0.0000    0.0000 C   0  0  0  0  0  0  0  0  0  0  0  0
  1  2  1  0
  2  3  1  0
  3  4  1  0
  4  5  1  0
  5  6  1  0
  6  7  1  0
  7  8  1  0
  8  9  2  0
  8 10  2  0
  8 11  1  0
 11 12  2  0
 12 13  1  0
 13 14  2  0
 14 15  1  0
 15 16  2  0
 16 17  1  0
 17 18  2  0
 18 19  1  0
 19 20  2  0
 16 11  1  0
 20 15  1  0
M  END
>  <Structure>  (110) 
5LCQ

>  <Dataset>  (110) 
PDB

>  <Chain>  (110) 
A

>  <Spatial_Label>  (110) 
DFGin

>  <Dihedral_Label>  (110) 
BLAminus

>  <C_Helix_Label>  (110) 
Chelix-in

>  <Lig_ID>  (110) 
6TV

>  <Lig_Entity_ID>  (110) 
5LCQ_3

>  <Lig_Name>  (110) 
~{N}-[2-(propylamino)ethyl]isoquinoline-5-sulfonamide

>  <Lig_Formula>  (110) 
C14H19N3O2S

>  <Lig_SMILES>  (110) 
CCCNCCNS(=O)(=O)c1cccc2c1ccnc2

>  <Lig_MW>  (110) 
293.385

>  <Lig_ChEMBL_ID>  (110) 
['CHEMBL343437']

>  <Lig_DrugBank_ID>  (110) 
nan

>  <Occurence>  (110) 
2.0

>  <Lig_SMILES_Uncharged>  (110) 
CCCNCCNS(=O)(=O)c1cccc2cnccc12

>  <Lig_Conformer>  (110) 
['NaN']

>  <Lig_Of_Interest>  (110) 
['Y']

>  <Lig_Completeness>  (110) 
[1.0]

>  <Lig_Occupancy>  (110) 
[1.0]

>  <Lig_RSCC>  (110) 
[0.978]

>  <Lig_RSR>  (110) 
[0.08]

>  <Lig_RMSZ_Bonds>  (110) 
[0.39]

>  <Lig_RMSZ_Angles>  (110) 
[0.42]

>  <Lig_Alt_Conf>  (110) 
0.0

>  <Title>  (110) 
Cocrystal structure of cAMP-dependent Protein Kinase (PKA) in complex with long-chain Fasudil-derivative (Ligand 05)

>  <Nonpolymer_Entity_Count>  (110) 
4.0

>  <Protein_Entity_Count>  (110) 
2.0

>  <Exp_Method>  (110) 
X-Ray Diffraction

>  <Deposit_Date>  (110) 
2016-06-22

>  <Resolution>  (110) 
1.423

>  <DOI>  (110) 
nan

>  <Source_Organism>  (110) 
Cricetulus griseus

>  <R_Free>  (110) 
0.171

>  <Keywords>  (110) 
Transferase

>  <REMARK_280>  (110) 
 Crystal Solvent Content, Vs (%): 53.10 Matthews Coefficient, Vm (Angstroms**3/Da): 2.15 Crystallization Conditions: Drop: 10 Mg/Ml Pka (0.240 Mm) 30 Mm Mbt (Mes/Bis-Tris Puffer pH 6.9) 1 Mm Dtt 0.1 Mm Edta 75 Mm Licl 0.03 Mm Mega 8 0.07Mm Pki (Sigma: P7739) 1.2 Mm Ligand Solved In Dmso (50 Mm Stock) Reservoir: 18% Methanol 0.003 Ml Drop Volume, 0.4 Ml Reservoir Volume, Vapor Diffusion, Hanging Drop, Temperature 277.15K 

>  <REMARK_610>  (110) 
nan

>  <pH>  (110) 
6.9

>  <Cryst_Technique>  (110) 
nan

>  <Sequence>  (110) 
GHMGNAAAAKKGSEQESVKEFLAKAKEEFLKKWESPSQNTAQLDHFDRIKTLGTGSFGRVMLVKHKETGNHYAMKILDKQKVVKLKQIEHTLNEKRILQAVNFPFLVKLEFSFKDNSNLYMVMEYVPGGEMFSHLRRIGRFSEPHARFYAAQIVLTFEYLHSLDLIYRDLKPENLLIDQQGYIQVTDFGFAKRVKGRTWTLCGTPEYLAPEIILSKGYNKAVDWWALGVLIYEMAAGYPPFFADQPIQIYEKIVSGKVRFPSHFSSDLKDLLRNLLQVDLTKRFGNLKNGVNDIKNHKWFATTDWIAIYQRKVEAPFIPKFKGPGDTSNFDDYEEEEIRVSINEKCGKEFTEF

>  <Sequence_Length>  (110) 
353.0

>  <Mutation_Count>  (110) 
0.0

>  <Gene_Name>  (110) 
PKACA

>  <MW>  (110) 
41.114

>  <Name>  (110) 
cAMP-Dependent Protein Kinase Catalytic Subunit Alpha

>  <Mutations>  (110) 
nan

>  <EC_Number>  (110) 
2.7.11.11

>  <Peptidic_Inhibitor>  (110) 
True

>  <Lig_Missing_Atoms>  (110) 
['No']

>  <PDBbind_Resolution>  (110) 
nan

>  <PDBbind_Release_Year>  (110) 
nan

>  <PDBbind_Comment>  (110) 
nan

>  <PDBbind_Uniprot_Id>  (110) 
nan

>  <PDBbind_Protein_Name>  (110) 
nan

>  <PDBbind_-Logkd/Ki>  (110) 
nan

>  <PDBbind_Kd/Ki>  (110) 
nan

>  <PDBbind_Kd_Or_Ki_Or_Ic50>  (110) 
nan

>  <PDBbind_Relation>  (110) 
nan

>  <PDBbind_Value>  (110) 
nan

>  <PDBbind_Unit>  (110) 
nan

>  <PDBbind_Standard_Value>  (110) 
nan

>  <PDBbind_Standard_Unit>  (110) 
nan

>  <PDB_Chain>  (110) 
['A']

>  <Num_Ligs>  (110) 
[1.0]

>  <Orthosteric>  (110) 
[1.0]

>  <Allosteric>  (110) 
[0.0]

>  <Pockets_Assigned>  (110) 
['A']

>  <Multisite>  (110) 
[False]

>  <Same_Number>  (110) 
True

>  <Same_Binding_Site>  (110) 
True

>  <Same_Orientation>  (110) 
True

>  <Lig_Order_in_.pdb>  (110) 
Orthosteric

$$$$

     RDKit          2D

 20 21  0  0  0  0  0  0  0  0999 V2000
    7.5000   -0.0000    0.0000 C   0  0  0  0  0  0  0  0  0  0  0  0
    6.7500   -1.2990    0.0000 C   0  0  0  0  0  0  0  0  0  0  0  0
    5.2500   -1.2990    0.0000 C   0  0  0  0  0  0  0  0  0  0  0  0
    4.5000   -2.5981    0.0000 N   0  0  0  0  0  0  0  0  0  0  0  0
    5.2500   -3.8971    0.0000 C   0  0  0  0  0  0  0  0  0  0  0  0
    6.7500   -3.8971    0.0000 C   0  0  0  0  0  0  0  0  0  0  0  0
    7.5000   -5.1962    0.0000 N   0  0  0  0  0  4  0  0  0  0  0  0
    3.0000   -2.5981    0.0000 S   0  0  0  0  0  0  0  0  0  0  0  0
    3.0000   -4.0981    0.0000 O   0  0  0  0  0  0  0  0  0  0  0  0
    3.0000   -1.0981    0.0000 O   0  0  0  0  0  0  0  0  0  0  0  0
    1.5000   -2.5981    0.0000 C   0  0  0  0  0  0  0  0  0  0  0  0
    0.7500   -3.8971    0.0000 C   0  0  0  0  0  0  0  0  0  0  0  0
   -0.7500   -3.8971    0.0000 C   0  0  0  0  0  0  0  0  0  0  0  0
   -1.5000   -2.5981    0.0000 C   0  0  0  0  0  0  0  0  0  0  0  0
   -0.7500   -1.2990    0.0000 C   0  0  0  0  0  0  0  0  0  0  0  0
    0.7500   -1.2990    0.0000 C   0  0  0  0  0  0  0  0  0  0  0  0
    1.5000    0.0000    0.0000 C   0  0  0  0  0  0  0  0  0  0  0  0
    0.7500    1.2990    0.0000 C   0  0  0  0  0  0  0  0  0  0  0  0
   -0.7500    1.2990    0.0000 N   0  0  0  0  0  0  0  0  0  0  0  0
   -1.5000    0.0000    0.0000 C   0  0  0  0  0  0  0  0  0  0  0  0
  1  2  1  0
  2  3  1  0
  3  4  1  0
  4  5  1  0
  5  6  1  0
  6  7  1  0
  4  8  1  0
  8  9  2  0
  8 10  2  0
  8 11  1  0
 11 12  2  0
 12 13  1  0
 13 14  2  0
 14 15  1  0
 15 16  2  0
 16 17  1  0
 17 18  2  0
 18 19  1  0
 19 20  2  0
 16 11  1  0
 20 15  1  0
M  CHG  1   7   1
M  END
>  <Structure>  (111) 
5LCR

>  <Dataset>  (111) 
PDB

>  <Chain>  (111) 
A

>  <Spatial_Label>  (111) 
DFGin

>  <Dihedral_Label>  (111) 
ABAminus

>  <C_Helix_Label>  (111) 
Chelix-in

>  <Lig_ID>  (111) 
6TX

>  <Lig_Entity_ID>  (111) 
5LCR_3

>  <Lig_Name>  (111) 
2-[isoquinolin-5-ylsulfonyl(propyl)amino]ethylazanium

>  <Lig_Formula>  (111) 
C14H20N3O2S

>  <Lig_SMILES>  (111) 
CCCN(CC[NH3+])S(=O)(=O)c1cccc2c1ccnc2

>  <Lig_MW>  (111) 
294.393

>  <Lig_ChEMBL_ID>  (111) 
nan

>  <Lig_DrugBank_ID>  (111) 
nan

>  <Occurence>  (111) 
2.0

>  <Lig_SMILES_Uncharged>  (111) 
CCCN(CCN)S(=O)(=O)c1cccc2cnccc12

>  <Lig_Conformer>  (111) 
['NaN']

>  <Lig_Of_Interest>  (111) 
['Y']

>  <Lig_Completeness>  (111) 
[1.0]

>  <Lig_Occupancy>  (111) 
[1.0]

>  <Lig_RSCC>  (111) 
[0.971]

>  <Lig_RSR>  (111) 
[0.082]

>  <Lig_RMSZ_Bonds>  (111) 
[0.29]

>  <Lig_RMSZ_Angles>  (111) 
[0.55]

>  <Lig_Alt_Conf>  (111) 
0.0

>  <Title>  (111) 
Cocrystal structure of cAMP-dependent Protein Kinase (PKA) in complex with open-chain Fasudil-derivative (Ligand 04)

>  <Nonpolymer_Entity_Count>  (111) 
7.0

>  <Protein_Entity_Count>  (111) 
2.0

>  <Exp_Method>  (111) 
X-Ray Diffraction

>  <Deposit_Date>  (111) 
2016-06-22

>  <Resolution>  (111) 
1.565

>  <DOI>  (111) 
nan

>  <Source_Organism>  (111) 
Cricetulus griseus

>  <R_Free>  (111) 
0.1965

>  <Keywords>  (111) 
Transferase

>  <REMARK_280>  (111) 
 Crystal Solvent Content, Vs (%): 53.80 Matthews Coefficient, Vm (Angstroms**3/Da): 2.18 Crystallization Conditions: Drop: 10 Mg/Ml Pka (0.240 Mm) 30 Mm Mbt (Mes/Bis-Tris Puffer pH 6.9) 1 Mm Dtt 0.1 Mm Edta 75 Mm Licl 0.03 Mm Mega 8 0.07Mm Pki (Sigma: P7739) 1.2 Mm Ligand Solved In Dmso (100 Mm Stock) Reservoir: 14% Methanol 0.003 Ml Drop Volume, 0.4 Ml Reservoir Volume, Vapor Diffusion, Hanging Drop, Temperature 277.15K 

>  <REMARK_610>  (111) 
nan

>  <pH>  (111) 
6.9

>  <Cryst_Technique>  (111) 
nan

>  <Sequence>  (111) 
GHMGNAAAAKKGSEQESVKEFLAKAKEEFLKKWESPSQNTAQLDHFDRIKTLGTGSFGRVMLVKHKETGNHYAMKILDKQKVVKLKQIEHTLNEKRILQAVNFPFLVKLEFSFKDNSNLYMVMEYVPGGEMFSHLRRIGRFSEPHARFYAAQIVLTFEYLHSLDLIYRDLKPENLLIDQQGYIQVTDFGFAKRVKGRTWTLCGTPEYLAPEIILSKGYNKAVDWWALGVLIYEMAAGYPPFFADQPIQIYEKIVSGKVRFPSHFSSDLKDLLRNLLQVDLTKRFGNLKNGVNDIKNHKWFATTDWIAIYQRKVEAPFIPKFKGPGDTSNFDDYEEEEIRVSINEKCGKEFTEF

>  <Sequence_Length>  (111) 
353.0

>  <Mutation_Count>  (111) 
0.0

>  <Gene_Name>  (111) 
PKACA

>  <MW>  (111) 
41.114

>  <Name>  (111) 
cAMP-Dependent Protein Kinase Catalytic Subunit Alpha

>  <Mutations>  (111) 
nan

>  <EC_Number>  (111) 
2.7.11.11

>  <Peptidic_Inhibitor>  (111) 
True

>  <Lig_Missing_Atoms>  (111) 
['No']

>  <PDBbind_Resolution>  (111) 
nan

>  <PDBbind_Release_Year>  (111) 
nan

>  <PDBbind_Comment>  (111) 
nan

>  <PDBbind_Uniprot_Id>  (111) 
nan

>  <PDBbind_Protein_Name>  (111) 
nan

>  <PDBbind_-Logkd/Ki>  (111) 
nan

>  <PDBbind_Kd/Ki>  (111) 
nan

>  <PDBbind_Kd_Or_Ki_Or_Ic50>  (111) 
nan

>  <PDBbind_Relation>  (111) 
nan

>  <PDBbind_Value>  (111) 
nan

>  <PDBbind_Unit>  (111) 
nan

>  <PDBbind_Standard_Value>  (111) 
nan

>  <PDBbind_Standard_Unit>  (111) 
nan

>  <PDB_Chain>  (111) 
['A']

>  <Num_Ligs>  (111) 
[1.0]

>  <Orthosteric>  (111) 
[1.0]

>  <Allosteric>  (111) 
[0.0]

>  <Pockets_Assigned>  (111) 
['A']

>  <Multisite>  (111) 
[False]

>  <Same_Number>  (111) 
True

>  <Same_Binding_Site>  (111) 
True

>  <Same_Orientation>  (111) 
True

>  <Lig_Order_in_.pdb>  (111) 
Orthosteric

$$$$

     RDKit          2D

 20 22  0  0  0  0  0  0  0  0999 V2000
    4.5000    0.0000    0.0000 C   0  0  0  0  0  0  0  0  0  0  0  0
    5.2500   -1.2990    0.0000 C   0  0  0  0  0  0  0  0  0  0  0  0
    6.7500   -1.2990    0.0000 C   0  0  0  0  0  0  0  0  0  0  0  0
    7.5000   -2.5981    0.0000 N   0  0  0  0  0  0  0  0  0  0  0  0
    6.7500   -3.8971    0.0000 C   0  0  0  0  0  0  0  0  0  0  0  0
    5.2500   -3.8971    0.0000 C   0  0  0  0  0  0  0  0  0  0  0  0
    4.5000   -2.5981    0.0000 N   0  0  0  0  0  0  0  0  0  0  0  0
    3.0000   -2.5981    0.0000 S   0  0  0  0  0  0  0  0  0  0  0  0
    3.0000   -4.0981    0.0000 O   0  0  0  0  0  0  0  0  0  0  0  0
    3.0000   -1.0981    0.0000 O   0  0  0  0  0  0  0  0  0  0  0  0
    1.5000   -2.5981    0.0000 C   0  0  0  0  0  0  0  0  0  0  0  0
    0.7500   -3.8971    0.0000 C   0  0  0  0  0  0  0  0  0  0  0  0
   -0.7500   -3.8971    0.0000 C   0  0  0  0  0  0  0  0  0  0  0  0
   -1.5000   -2.5981    0.0000 C   0  0  0  0  0  0  0  0  0  0  0  0
   -0.7500   -1.2990    0.0000 C   0  0  0  0  0  0  0  0  0  0  0  0
    0.7500   -1.2990    0.0000 C   0  0  0  0  0  0  0  0  0  0  0  0
    1.5000    0.0000    0.0000 C   0  0  0  0  0  0  0  0  0  0  0  0
    0.7500    1.2990    0.0000 C   0  0  0  0  0  0  0  0  0  0  0  0
   -0.7500    1.2990    0.0000 N   0  0  0  0  0  0  0  0  0  0  0  0
   -1.5000    0.0000    0.0000 C   0  0  0  0  0  0  0  0  0  0  0  0
  2  1  1  6
  2  3  1  0
  3  4  1  0
  4  5  1  0
  5  6  1  0
  6  7  1  0
  7  8  1  0
  8  9  2  0
  8 10  2  0
  8 11  1  0
 11 12  2  0
 12 13  1  0
 13 14  2  0
 14 15  1  0
 15 16  2  0
 16 17  1  0
 17 18  2  0
 18 19  1  0
 19 20  2  0
  7  2  1  0
 16 11  1  0
 20 15  1  0
M  END
>  <Structure>  (112) 
5LCT

>  <Dataset>  (112) 
PDB

>  <Chain>  (112) 
A

>  <Spatial_Label>  (112) 
DFGin

>  <Dihedral_Label>  (112) 
ABAminus

>  <C_Helix_Label>  (112) 
Chelix-in

>  <Lig_ID>  (112) 
6TY

>  <Lig_Entity_ID>  (112) 
5LCT_3

>  <Lig_Name>  (112) 
5-[(2~{R})-2-methylpiperazin-1-yl]sulfonylisoquinoline

>  <Lig_Formula>  (112) 
C14H17N3O2S

>  <Lig_SMILES>  (112) 
C[C@@H]1CNCCN1S(=O)(=O)c2cccc3c2ccnc3

>  <Lig_MW>  (112) 
291.369

>  <Lig_ChEMBL_ID>  (112) 
['CHEMBL1318551']

>  <Lig_DrugBank_ID>  (112) 
nan

>  <Occurence>  (112) 
1.0

>  <Lig_SMILES_Uncharged>  (112) 
C[C@@H]1CNCCN1S(=O)(=O)c1cccc2cnccc12

>  <Lig_Conformer>  (112) 
['NaN']

>  <Lig_Of_Interest>  (112) 
['Y']

>  <Lig_Completeness>  (112) 
[1.0]

>  <Lig_Occupancy>  (112) 
[1.0]

>  <Lig_RSCC>  (112) 
[0.969]

>  <Lig_RSR>  (112) 
[0.081]

>  <Lig_RMSZ_Bonds>  (112) 
[0.34]

>  <Lig_RMSZ_Angles>  (112) 
[0.56]

>  <Lig_Alt_Conf>  (112) 
0.0

>  <Title>  (112) 
Cocrystal structure of cAMP-dependent Protein Kinase (PKA) in complex with a R-methyl-piperazine substituted Fasudil-derivative (Ligand 02)

>  <Nonpolymer_Entity_Count>  (112) 
4.0

>  <Protein_Entity_Count>  (112) 
2.0

>  <Exp_Method>  (112) 
X-Ray Diffraction

>  <Deposit_Date>  (112) 
2016-06-22

>  <Resolution>  (112) 
1.615

>  <DOI>  (112) 
nan

>  <Source_Organism>  (112) 
Cricetulus griseus

>  <R_Free>  (112) 
0.1742

>  <Keywords>  (112) 
Transferase

>  <REMARK_280>  (112) 
 Crystal Solvent Content, Vs (%): 55.36 Matthews Coefficient, Vm (Angstroms**3/Da): 2.15 Crystallization Conditions: Drop: 10 Mg/Ml Pka (0.240 Mm) 30 Mm Mbt (Mes/Bis-Tris Puffer pH 6.9) 1 Mm Dtt 0.1 Mm Edta 75 Mm Licl 0.03 Mm Mega 8 0.07Mm Pki (Sigma: P7739) 1.2 Mm Ligand Solved In Dmso (50 Mm Stock) Reservoir: 19% Methanol 0.003 Ml Drop Volume, 0.4 Ml Reservoir Volume, Vapor Diffusion, Hanging Drop, Temperature 277.15K 

>  <REMARK_610>  (112) 
nan

>  <pH>  (112) 
6.9

>  <Cryst_Technique>  (112) 
nan

>  <Sequence>  (112) 
GHMGNAAAAKKGSEQESVKEFLAKAKEEFLKKWESPSQNTAQLDHFDRIKTLGTGSFGRVMLVKHKETGNHYAMKILDKQKVVKLKQIEHTLNEKRILQAVNFPFLVKLEFSFKDNSNLYMVMEYVPGGEMFSHLRRIGRFSEPHARFYAAQIVLTFEYLHSLDLIYRDLKPENLLIDQQGYIQVTDFGFAKRVKGRTWTLCGTPEYLAPEIILSKGYNKAVDWWALGVLIYEMAAGYPPFFADQPIQIYEKIVSGKVRFPSHFSSDLKDLLRNLLQVDLTKRFGNLKNGVNDIKNHKWFATTDWIAIYQRKVEAPFIPKFKGPGDTSNFDDYEEEEIRVSINEKCGKEFTEF

>  <Sequence_Length>  (112) 
353.0

>  <Mutation_Count>  (112) 
0.0

>  <Gene_Name>  (112) 
PKACA

>  <MW>  (112) 
41.114

>  <Name>  (112) 
cAMP-Dependent Protein Kinase Catalytic Subunit Alpha

>  <Mutations>  (112) 
nan

>  <EC_Number>  (112) 
2.7.11.11

>  <Peptidic_Inhibitor>  (112) 
True

>  <Lig_Missing_Atoms>  (112) 
['No']

>  <PDBbind_Resolution>  (112) 
nan

>  <PDBbind_Release_Year>  (112) 
nan

>  <PDBbind_Comment>  (112) 
nan

>  <PDBbind_Uniprot_Id>  (112) 
nan

>  <PDBbind_Protein_Name>  (112) 
nan

>  <PDBbind_-Logkd/Ki>  (112) 
nan

>  <PDBbind_Kd/Ki>  (112) 
nan

>  <PDBbind_Kd_Or_Ki_Or_Ic50>  (112) 
nan

>  <PDBbind_Relation>  (112) 
nan

>  <PDBbind_Value>  (112) 
nan

>  <PDBbind_Unit>  (112) 
nan

>  <PDBbind_Standard_Value>  (112) 
nan

>  <PDBbind_Standard_Unit>  (112) 
nan

>  <PDB_Chain>  (112) 
['A']

>  <Num_Ligs>  (112) 
[1.0]

>  <Orthosteric>  (112) 
[1.0]

>  <Allosteric>  (112) 
[0.0]

>  <Pockets_Assigned>  (112) 
['A']

>  <Multisite>  (112) 
[False]

>  <Same_Number>  (112) 
True

>  <Same_Binding_Site>  (112) 
True

>  <Same_Orientation>  (112) 
True

>  <Lig_Order_in_.pdb>  (112) 
Orthosteric

$$$$

     RDKit          2D

 20 22  0  0  0  0  0  0  0  0999 V2000
    4.5000    0.0000    0.0000 C   0  0  0  0  0  0  0  0  0  0  0  0
    5.2500   -1.2990    0.0000 C   0  0  0  0  0  0  0  0  0  0  0  0
    6.7500   -1.2990    0.0000 C   0  0  0  0  0  0  0  0  0  0  0  0
    7.5000   -2.5981    0.0000 N   0  0  0  0  0  0  0  0  0  0  0  0
    6.7500   -3.8971    0.0000 C   0  0  0  0  0  0  0  0  0  0  0  0
    5.2500   -3.8971    0.0000 C   0  0  0  0  0  0  0  0  0  0  0  0
    4.5000   -2.5981    0.0000 N   0  0  0  0  0  0  0  0  0  0  0  0
    3.0000   -2.5981    0.0000 S   0  0  0  0  0  0  0  0  0  0  0  0
    3.0000   -4.0981    0.0000 O   0  0  0  0  0  0  0  0  0  0  0  0
    3.0000   -1.0981    0.0000 O   0  0  0  0  0  0  0  0  0  0  0  0
    1.5000   -2.5981    0.0000 C   0  0  0  0  0  0  0  0  0  0  0  0
    0.7500   -3.8971    0.0000 C   0  0  0  0  0  0  0  0  0  0  0  0
   -0.7500   -3.8971    0.0000 C   0  0  0  0  0  0  0  0  0  0  0  0
   -1.5000   -2.5981    0.0000 C   0  0  0  0  0  0  0  0  0  0  0  0
   -0.7500   -1.2990    0.0000 C   0  0  0  0  0  0  0  0  0  0  0  0
    0.7500   -1.2990    0.0000 C   0  0  0  0  0  0  0  0  0  0  0  0
    1.5000    0.0000    0.0000 C   0  0  0  0  0  0  0  0  0  0  0  0
    0.7500    1.2990    0.0000 C   0  0  0  0  0  0  0  0  0  0  0  0
   -0.7500    1.2990    0.0000 N   0  0  0  0  0  0  0  0  0  0  0  0
   -1.5000    0.0000    0.0000 C   0  0  0  0  0  0  0  0  0  0  0  0
  2  1  1  1
  2  3  1  0
  3  4  1  0
  4  5  1  0
  5  6  1  0
  6  7  1  0
  7  8  1  0
  8  9  2  0
  8 10  2  0
  8 11  1  0
 11 12  2  0
 12 13  1  0
 13 14  2  0
 14 15  1  0
 15 16  2  0
 16 17  1  0
 17 18  2  0
 18 19  1  0
 19 20  2  0
  7  2  1  0
 16 11  1  0
 20 15  1  0
M  END
>  <Structure>  (113) 
5LCU

>  <Dataset>  (113) 
PDB

>  <Chain>  (113) 
A

>  <Spatial_Label>  (113) 
DFGin

>  <Dihedral_Label>  (113) 
ABAminus

>  <C_Helix_Label>  (113) 
Chelix-in

>  <Lig_ID>  (113) 
IQP

>  <Lig_Entity_ID>  (113) 
5LCU_3

>  <Lig_Name>  (113) 
1-(5-ISOQUINOLINESULFONYL)-2-METHYLPIPERAZINE

>  <Lig_Formula>  (113) 
C14H17N3O2S

>  <Lig_SMILES>  (113) 
C[C@H]1CNCC[N@]1S(=O)(=O)c2cccc3c2ccnc3

>  <Lig_MW>  (113) 
291.369

>  <Lig_ChEMBL_ID>  (113) 
['CHEMBL1233654']

>  <Lig_DrugBank_ID>  (113) 
['DB07996']

>  <Occurence>  (113) 
1.0

>  <Lig_SMILES_Uncharged>  (113) 
C[C@H]1CNCCN1S(=O)(=O)c1cccc2cnccc12

>  <Lig_Conformer>  (113) 
['NaN']

>  <Lig_Of_Interest>  (113) 
['Y']

>  <Lig_Completeness>  (113) 
[1.0]

>  <Lig_Occupancy>  (113) 
[1.0]

>  <Lig_RSCC>  (113) 
[0.986]

>  <Lig_RSR>  (113) 
[0.068]

>  <Lig_RMSZ_Bonds>  (113) 
[0.3]

>  <Lig_RMSZ_Angles>  (113) 
[0.54]

>  <Lig_Alt_Conf>  (113) 
0.0

>  <Title>  (113) 
Cocrystal structure of cAMP-dependent Protein Kinase (PKA) in complex with a S-methyl-piperazine substituted Fasudil-derivative (Ligand 01)

>  <Nonpolymer_Entity_Count>  (113) 
5.0

>  <Protein_Entity_Count>  (113) 
2.0

>  <Exp_Method>  (113) 
X-Ray Diffraction

>  <Deposit_Date>  (113) 
2016-06-22

>  <Resolution>  (113) 
1.579

>  <DOI>  (113) 
nan

>  <Source_Organism>  (113) 
Cricetulus griseus

>  <R_Free>  (113) 
0.1915

>  <Keywords>  (113) 
Transferase

>  <REMARK_280>  (113) 
 Crystal Solvent Content, Vs (%): 54.34 Matthews Coefficient, Vm (Angstroms**3/Da): 2.18 Crystallization Conditions: Drop: 10 Mg/Ml Pka (0.240 Mm) 30 Mm Mbt (Mes/Bis-Tris Puffer pH 6.9) 1 Mm Dtt 0.1 Mm Edta 75 Mm Licl 0.03 Mm Mega 8 0.07Mm Pki (Sigma: P7739) 1.2 Mm Ligand Solved In Dmso (50 Mm Stock) Reservoir: 16% Methanol 0.003 Ml Drop Volume, 0.4 Ml Reservoir Volume, Vapor Diffusion, Hanging Drop, Temperature 277.15K 

>  <REMARK_610>  (113) 
nan

>  <pH>  (113) 
6.9

>  <Cryst_Technique>  (113) 
nan

>  <Sequence>  (113) 
GHMGNAAAAKKGSEQESVKEFLAKAKEEFLKKWESPSQNTAQLDHFDRIKTLGTGSFGRVMLVKHKETGNHYAMKILDKQKVVKLKQIEHTLNEKRILQAVNFPFLVKLEFSFKDNSNLYMVMEYVPGGEMFSHLRRIGRFSEPHARFYAAQIVLTFEYLHSLDLIYRDLKPENLLIDQQGYIQVTDFGFAKRVKGRTWTLCGTPEYLAPEIILSKGYNKAVDWWALGVLIYEMAAGYPPFFADQPIQIYEKIVSGKVRFPSHFSSDLKDLLRNLLQVDLTKRFGNLKNGVNDIKNHKWFATTDWIAIYQRKVEAPFIPKFKGPGDTSNFDDYEEEEIRVSINEKCGKEFTEF

>  <Sequence_Length>  (113) 
353.0

>  <Mutation_Count>  (113) 
0.0

>  <Gene_Name>  (113) 
PKACA

>  <MW>  (113) 
41.114

>  <Name>  (113) 
cAMP-Dependent Protein Kinase Catalytic Subunit Alpha

>  <Mutations>  (113) 
nan

>  <EC_Number>  (113) 
2.7.11.11

>  <Peptidic_Inhibitor>  (113) 
True

>  <Lig_Missing_Atoms>  (113) 
['No']

>  <PDBbind_Resolution>  (113) 
nan

>  <PDBbind_Release_Year>  (113) 
nan

>  <PDBbind_Comment>  (113) 
nan

>  <PDBbind_Uniprot_Id>  (113) 
nan

>  <PDBbind_Protein_Name>  (113) 
nan

>  <PDBbind_-Logkd/Ki>  (113) 
nan

>  <PDBbind_Kd/Ki>  (113) 
nan

>  <PDBbind_Kd_Or_Ki_Or_Ic50>  (113) 
nan

>  <PDBbind_Relation>  (113) 
nan

>  <PDBbind_Value>  (113) 
nan

>  <PDBbind_Unit>  (113) 
nan

>  <PDBbind_Standard_Value>  (113) 
nan

>  <PDBbind_Standard_Unit>  (113) 
nan

>  <PDB_Chain>  (113) 
['A']

>  <Num_Ligs>  (113) 
[1.0]

>  <Orthosteric>  (113) 
[1.0]

>  <Allosteric>  (113) 
[0.0]

>  <Pockets_Assigned>  (113) 
['A']

>  <Multisite>  (113) 
[False]

>  <Same_Number>  (113) 
True

>  <Same_Binding_Site>  (113) 
True

>  <Same_Orientation>  (113) 
True

>  <Lig_Order_in_.pdb>  (113) 
Orthosteric

$$$$

     RDKit          2D

 17 18  0  0  0  0  0  0  0  0999 V2000
    0.7500   -3.8971    0.0000 C   0  0  0  0  0  0  0  0  0  0  0  0
    1.5000   -2.5981    0.0000 C   0  0  0  0  0  0  0  0  0  0  0  0
    0.7500   -1.2990    0.0000 C   0  0  0  0  0  0  0  0  0  0  0  0
    1.5000    0.0000    0.0000 C   0  0  0  0  0  0  0  0  0  0  0  0
    0.7500    1.2990    0.0000 N   0  0  0  0  0  0  0  0  0  0  0  0
   -0.7500    1.2990    0.0000 C   0  0  0  0  0  0  0  0  0  0  0  0
   -1.5000    0.0000    0.0000 C   0  0  0  0  0  0  0  0  0  0  0  0
   -0.7500   -1.2990    0.0000 C   0  0  0  0  0  0  0  0  0  0  0  0
   -1.5000   -2.5981    0.0000 C   0  0  0  0  0  0  0  0  0  0  0  0
   -0.7500   -3.8971    0.0000 C   0  0  0  0  0  0  0  0  0  0  0  0
   -3.0000   -2.5981    0.0000 S   0  0  0  0  0  0  0  0  0  0  0  0
   -3.0000   -4.0981    0.0000 O   0  0  0  0  0  0  0  0  0  0  0  0
   -3.0000   -1.0981    0.0000 O   0  0  0  0  0  0  0  0  0  0  0  0
   -4.5000   -2.5981    0.0000 N   0  0  0  0  0  0  0  0  0  0  0  0
   -5.2500   -1.2990    0.0000 C   0  0  0  0  0  0  0  0  0  0  0  0
   -6.7500   -1.2990    0.0000 C   0  0  0  0  0  0  0  0  0  0  0  0
   -7.5000   -0.0000    0.0000 N   0  0  0  0  0  0  0  0  0  0  0  0
  1  2  2  0
  2  3  1  0
  3  4  2  0
  4  5  1  0
  5  6  2  0
  6  7  1  0
  7  8  2  0
  8  9  1  0
  9 10  2  0
  9 11  1  0
 11 12  2  0
 11 13  2  0
 11 14  1  0
 14 15  1  0
 15 16  1  0
 16 17  1  0
 10  1  1  0
  8  3  1  0
M  END
>  <Structure>  (114) 
5M0B

>  <Dataset>  (114) 
PDB

>  <Chain>  (114) 
A

>  <Spatial_Label>  (114) 
DFGin

>  <Dihedral_Label>  (114) 
BLAminus

>  <C_Helix_Label>  (114) 
Chelix-in

>  <Lig_ID>  (114) 
IQU

>  <Lig_Entity_ID>  (114) 
5M0B_3

>  <Lig_Name>  (114) 
N-(2-AMINOETHYL)ISOQUINOLINE-5-SULFONAMIDE

>  <Lig_Formula>  (114) 
C11H13N3O2S

>  <Lig_SMILES>  (114) 
c1cc2cnccc2c(c1)S(=O)(=O)NCCN

>  <Lig_MW>  (114) 
251.305

>  <Lig_ChEMBL_ID>  (114) 
['CHEMBL344314']

>  <Lig_DrugBank_ID>  (114) 
nan

>  <Occurence>  (114) 
2.0

>  <Lig_SMILES_Uncharged>  (114) 
NCCNS(=O)(=O)c1cccc2cnccc12

>  <Lig_Conformer>  (114) 
['NaN']

>  <Lig_Of_Interest>  (114) 
['Y']

>  <Lig_Completeness>  (114) 
[1.0]

>  <Lig_Occupancy>  (114) 
[1.0]

>  <Lig_RSCC>  (114) 
[0.993]

>  <Lig_RSR>  (114) 
[0.062]

>  <Lig_RMSZ_Bonds>  (114) 
[0.29]

>  <Lig_RMSZ_Angles>  (114) 
[0.43]

>  <Lig_Alt_Conf>  (114) 
0.0

>  <Title>  (114) 
Cocrystal structure of cAMP-dependent Protein Kinase (PKA) in complex with a short-chained N-(2-aminoethyl)isoquinoline-5-sulfonamide) Fasudil-derivative (Ligand 03)

>  <Nonpolymer_Entity_Count>  (114) 
4.0

>  <Protein_Entity_Count>  (114) 
2.0

>  <Exp_Method>  (114) 
X-Ray Diffraction

>  <Deposit_Date>  (114) 
2016-10-04

>  <Resolution>  (114) 
1.506

>  <DOI>  (114) 
nan

>  <Source_Organism>  (114) 
Cricetulus griseus

>  <R_Free>  (114) 
0.1594

>  <Keywords>  (114) 
Transferase

>  <REMARK_280>  (114) 
 Crystal Solvent Content, Vs (%): 53.33 Matthews Coefficient, Vm (Angstroms**3/Da): 2.18 Crystallization Conditions: Drop: 10 Mg/Ml Pka (0.240 Mm) 30 Mm Mbt (Mes/Bis-Tris Puffer pH 6.9) 1 Mm Dtt 0.1 Mm Edta 75 Mm Licl 0.03 Mm Mega 8 0.07Mm Pki (Sigma: P7739) 1.2 Mm Ligand Solved In Dmso (50 Mm Stock) Reservoir: 18% Methanol 0.003 Ml Drop Volume, 0.4 Ml Reservoir Volume, Vapor Diffusion, Hanging Drop, Temperature 277.15K 

>  <REMARK_610>  (114) 
nan

>  <pH>  (114) 
6.9

>  <Cryst_Technique>  (114) 
nan

>  <Sequence>  (114) 
GHMGNAAAAKKGSEQESVKEFLAKAKEEFLKKWESPSQNTAQLDHFDRIKTLGTGSFGRVMLVKHKETGNHYAMKILDKQKVVKLKQIEHTLNEKRILQAVNFPFLVKLEFSFKDNSNLYMVMEYVPGGEMFSHLRRIGRFSEPHARFYAAQIVLTFEYLHSLDLIYRDLKPENLLIDQQGYIQVTDFGFAKRVKGRTWTLCGTPEYLAPEIILSKGYNKAVDWWALGVLIYEMAAGYPPFFADQPIQIYEKIVSGKVRFPSHFSSDLKDLLRNLLQVDLTKRFGNLKNGVNDIKNHKWFATTDWIAIYQRKVEAPFIPKFKGPGDTSNFDDYEEEEIRVSINEKCGKEFTEF

>  <Sequence_Length>  (114) 
353.0

>  <Mutation_Count>  (114) 
0.0

>  <Gene_Name>  (114) 
PKACA

>  <MW>  (114) 
41.114

>  <Name>  (114) 
cAMP-Dependent Protein Kinase Catalytic Subunit Alpha

>  <Mutations>  (114) 
nan

>  <EC_Number>  (114) 
2.7.11.11

>  <Peptidic_Inhibitor>  (114) 
True

>  <Lig_Missing_Atoms>  (114) 
['No']

>  <PDBbind_Resolution>  (114) 
nan

>  <PDBbind_Release_Year>  (114) 
nan

>  <PDBbind_Comment>  (114) 
nan

>  <PDBbind_Uniprot_Id>  (114) 
nan

>  <PDBbind_Protein_Name>  (114) 
nan

>  <PDBbind_-Logkd/Ki>  (114) 
nan

>  <PDBbind_Kd/Ki>  (114) 
nan

>  <PDBbind_Kd_Or_Ki_Or_Ic50>  (114) 
nan

>  <PDBbind_Relation>  (114) 
nan

>  <PDBbind_Value>  (114) 
nan

>  <PDBbind_Unit>  (114) 
nan

>  <PDBbind_Standard_Value>  (114) 
nan

>  <PDBbind_Standard_Unit>  (114) 
nan

>  <PDB_Chain>  (114) 
['A']

>  <Num_Ligs>  (114) 
[1.0]

>  <Orthosteric>  (114) 
[1.0]

>  <Allosteric>  (114) 
[0.0]

>  <Pockets_Assigned>  (114) 
['A']

>  <Multisite>  (114) 
[False]

>  <Same_Number>  (114) 
True

>  <Same_Binding_Site>  (114) 
True

>  <Same_Orientation>  (114) 
True

>  <Lig_Order_in_.pdb>  (114) 
Orthosteric

$$$$

     RDKit          2D

 14 15  0  0  0  0  0  0  0  0999 V2000
    0.7500   -3.8971    0.0000 C   0  0  0  0  0  0  0  0  0  0  0  0
    1.5000   -2.5981    0.0000 C   0  0  0  0  0  0  0  0  0  0  0  0
    0.7500   -1.2990    0.0000 C   0  0  0  0  0  0  0  0  0  0  0  0
    1.5000    0.0000    0.0000 C   0  0  0  0  0  0  0  0  0  0  0  0
    0.7500    1.2990    0.0000 N   0  0  0  0  0  0  0  0  0  0  0  0
   -0.7500    1.2990    0.0000 C   0  0  0  0  0  0  0  0  0  0  0  0
   -1.5000    0.0000    0.0000 C   0  0  0  0  0  0  0  0  0  0  0  0
   -0.7500   -1.2990    0.0000 C   0  0  0  0  0  0  0  0  0  0  0  0
   -1.5000   -2.5981    0.0000 C   0  0  0  0  0  0  0  0  0  0  0  0
   -0.7500   -3.8971    0.0000 C   0  0  0  0  0  0  0  0  0  0  0  0
   -3.0000   -2.5981    0.0000 S   0  0  0  0  0  0  0  0  0  0  0  0
   -3.0000   -4.0981    0.0000 O   0  0  0  0  0  0  0  0  0  0  0  0
   -3.0000   -1.0981    0.0000 O   0  0  0  0  0  0  0  0  0  0  0  0
   -4.5000   -2.5981    0.0000 N   0  0  0  0  0  0  0  0  0  0  0  0
  1  2  2  0
  2  3  1  0
  3  4  2  0
  4  5  1  0
  5  6  2  0
  6  7  1  0
  7  8  2  0
  8  9  1  0
  9 10  2  0
  9 11  1  0
 11 12  2  0
 11 13  2  0
 11 14  1  0
 10  1  1  0
  8  3  1  0
M  END
>  <Structure>  (115) 
5M0C

>  <Dataset>  (115) 
PDB

>  <Chain>  (115) 
A

>  <Spatial_Label>  (115) 
DFGin

>  <Dihedral_Label>  (115) 
BLAminus

>  <C_Helix_Label>  (115) 
Chelix-in

>  <Lig_ID>  (115) 
7CB

>  <Lig_Entity_ID>  (115) 
5M0C_3

>  <Lig_Name>  (115) 
isoquinoline-5-sulfonamide

>  <Lig_Formula>  (115) 
C9H8N2O2S

>  <Lig_SMILES>  (115) 
c1cc2cnccc2c(c1)S(=O)(=O)N

>  <Lig_MW>  (115) 
208.237

>  <Lig_ChEMBL_ID>  (115) 
nan

>  <Lig_DrugBank_ID>  (115) 
nan

>  <Occurence>  (115) 
1.0

>  <Lig_SMILES_Uncharged>  (115) 
NS(=O)(=O)c1cccc2cnccc12

>  <Lig_Conformer>  (115) 
['NaN']

>  <Lig_Of_Interest>  (115) 
['Y']

>  <Lig_Completeness>  (115) 
[1.0]

>  <Lig_Occupancy>  (115) 
[1.0]

>  <Lig_RSCC>  (115) 
[0.949]

>  <Lig_RSR>  (115) 
[0.135]

>  <Lig_RMSZ_Bonds>  (115) 
[0.3]

>  <Lig_RMSZ_Angles>  (115) 
[0.41]

>  <Lig_Alt_Conf>  (115) 
0.0

>  <Title>  (115) 
Cocrystal structure of cAMP-dependent Protein Kinase (PKA) in complex with the Fasudil-fragment isoquinoline-5-sulfonamide

>  <Nonpolymer_Entity_Count>  (115) 
3.0

>  <Protein_Entity_Count>  (115) 
2.0

>  <Exp_Method>  (115) 
X-Ray Diffraction

>  <Deposit_Date>  (115) 
2016-10-04

>  <Resolution>  (115) 
1.734

>  <DOI>  (115) 
nan

>  <Source_Organism>  (115) 
Cricetulus griseus

>  <R_Free>  (115) 
0.2004

>  <Keywords>  (115) 
Transferase

>  <REMARK_280>  (115) 
 Crystal Solvent Content, Vs (%): 51.26 Matthews Coefficient, Vm (Angstroms**3/Da): 2.18 Crystallization Conditions: Drop: 10 Mg/Ml Pka (0.240 Mm) 30 Mm Mbt (Mes/Bis-Tris Puffer pH 6.9) 1 Mm Dtt 0.1 Mm Edta 75 Mm Licl 0.03 Mm Mega 8 0.07Mm Pki (Sigma: P7739) 0.12 Mm Ligand Solved In Dmso (100 Mm Stock) Reservoir: 14% Methanol 0.003 Ml Drop Volume, 0.4 Ml Reservoir Volume, Vapor Diffusion, Hanging Drop, Temperature 277.15K 

>  <REMARK_610>  (115) 
nan

>  <pH>  (115) 
6.9

>  <Cryst_Technique>  (115) 
nan

>  <Sequence>  (115) 
GHMGNAAAAKKGSEQESVKEFLAKAKEEFLKKWESPSQNTAQLDHFDRIKTLGTGSFGRVMLVKHKETGNHYAMKILDKQKVVKLKQIEHTLNEKRILQAVNFPFLVKLEFSFKDNSNLYMVMEYVPGGEMFSHLRRIGRFSEPHARFYAAQIVLTFEYLHSLDLIYRDLKPENLLIDQQGYIQVTDFGFAKRVKGRTWTLCGTPEYLAPEIILSKGYNKAVDWWALGVLIYEMAAGYPPFFADQPIQIYEKIVSGKVRFPSHFSSDLKDLLRNLLQVDLTKRFGNLKNGVNDIKNHKWFATTDWIAIYQRKVEAPFIPKFKGPGDTSNFDDYEEEEIRVSINEKCGKEFTEF

>  <Sequence_Length>  (115) 
353.0

>  <Mutation_Count>  (115) 
0.0

>  <Gene_Name>  (115) 
PKACA

>  <MW>  (115) 
41.114

>  <Name>  (115) 
cAMP-Dependent Protein Kinase Catalytic Subunit Alpha

>  <Mutations>  (115) 
nan

>  <EC_Number>  (115) 
2.7.11.11

>  <Peptidic_Inhibitor>  (115) 
True

>  <Lig_Missing_Atoms>  (115) 
['No']

>  <PDBbind_Resolution>  (115) 
nan

>  <PDBbind_Release_Year>  (115) 
nan

>  <PDBbind_Comment>  (115) 
nan

>  <PDBbind_Uniprot_Id>  (115) 
nan

>  <PDBbind_Protein_Name>  (115) 
nan

>  <PDBbind_-Logkd/Ki>  (115) 
nan

>  <PDBbind_Kd/Ki>  (115) 
nan

>  <PDBbind_Kd_Or_Ki_Or_Ic50>  (115) 
nan

>  <PDBbind_Relation>  (115) 
nan

>  <PDBbind_Value>  (115) 
nan

>  <PDBbind_Unit>  (115) 
nan

>  <PDBbind_Standard_Value>  (115) 
nan

>  <PDBbind_Standard_Unit>  (115) 
nan

>  <PDB_Chain>  (115) 
['A']

>  <Num_Ligs>  (115) 
[1.0]

>  <Orthosteric>  (115) 
[1.0]

>  <Allosteric>  (115) 
[0.0]

>  <Pockets_Assigned>  (115) 
['A']

>  <Multisite>  (115) 
[False]

>  <Same_Number>  (115) 
True

>  <Same_Binding_Site>  (115) 
True

>  <Same_Orientation>  (115) 
True

>  <Lig_Order_in_.pdb>  (115) 
Orthosteric

$$$$

     RDKit          2D

 15 16  0  0  0  0  0  0  0  0999 V2000
    5.2500   -1.2990    0.0000 C   0  0  0  0  0  0  0  0  0  0  0  0
    4.5000   -2.5981    0.0000 N   0  0  0  0  0  0  0  0  0  0  0  0
    3.0000   -2.5981    0.0000 S   0  0  0  0  0  0  0  0  0  0  0  0
    3.0000   -4.0981    0.0000 O   0  0  0  0  0  0  0  0  0  0  0  0
    3.0000   -1.0981    0.0000 O   0  0  0  0  0  0  0  0  0  0  0  0
    1.5000   -2.5981    0.0000 C   0  0  0  0  0  0  0  0  0  0  0  0
    0.7500   -3.8971    0.0000 C   0  0  0  0  0  0  0  0  0  0  0  0
   -0.7500   -3.8971    0.0000 C   0  0  0  0  0  0  0  0  0  0  0  0
   -1.5000   -2.5981    0.0000 C   0  0  0  0  0  0  0  0  0  0  0  0
   -0.7500   -1.2990    0.0000 C   0  0  0  0  0  0  0  0  0  0  0  0
    0.7500   -1.2990    0.0000 C   0  0  0  0  0  0  0  0  0  0  0  0
    1.5000    0.0000    0.0000 C   0  0  0  0  0  0  0  0  0  0  0  0
    0.7500    1.2990    0.0000 C   0  0  0  0  0  0  0  0  0  0  0  0
   -0.7500    1.2990    0.0000 N   0  0  0  0  0  0  0  0  0  0  0  0
   -1.5000    0.0000    0.0000 C   0  0  0  0  0  0  0  0  0  0  0  0
  1  2  1  0
  2  3  1  0
  3  4  2  0
  3  5  2  0
  3  6  1  0
  6  7  2  0
  7  8  1  0
  8  9  2  0
  9 10  1  0
 10 11  2  0
 11 12  1  0
 12 13  2  0
 13 14  1  0
 14 15  2  0
 11  6  1  0
 15 10  1  0
M  END
>  <Structure>  (116) 
5M0L

>  <Dataset>  (116) 
PDB

>  <Chain>  (116) 
A

>  <Spatial_Label>  (116) 
DFGin

>  <Dihedral_Label>  (116) 
BLAminus

>  <C_Helix_Label>  (116) 
Chelix-in

>  <Lig_ID>  (116) 
7CT

>  <Lig_Entity_ID>  (116) 
5M0L_3

>  <Lig_Name>  (116) 
~{N}-methylisoquinoline-5-sulfonamide

>  <Lig_Formula>  (116) 
C10H10N2O2S

>  <Lig_SMILES>  (116) 
CNS(=O)(=O)c1cccc2c1ccnc2

>  <Lig_MW>  (116) 
222.264

>  <Lig_ChEMBL_ID>  (116) 
nan

>  <Lig_DrugBank_ID>  (116) 
nan

>  <Occurence>  (116) 
2.0

>  <Lig_SMILES_Uncharged>  (116) 
CNS(=O)(=O)c1cccc2cnccc12

>  <Lig_Conformer>  (116) 
['NaN', 'NaN']

>  <Lig_Of_Interest>  (116) 
['Y', 'Y']

>  <Lig_Completeness>  (116) 
[1.0, 1.0]

>  <Lig_Occupancy>  (116) 
[1.0, 1.0]

>  <Lig_RSCC>  (116) 
[0.984, 0.974]

>  <Lig_RSR>  (116) 
[0.097, 0.074]

>  <Lig_RMSZ_Bonds>  (116) 
[0.27, 0.34]

>  <Lig_RMSZ_Angles>  (116) 
[0.66, 0.48]

>  <Lig_Alt_Conf>  (116) 
0.0

>  <Title>  (116) 
Cocrystal structure of cAMP-dependent Protein Kinase (PKA) in complex with the methylated Fasudil-derived fragment N-methylisoquinoline-5-sulfonamide (Ligand 02)

>  <Nonpolymer_Entity_Count>  (116) 
3.0

>  <Protein_Entity_Count>  (116) 
2.0

>  <Exp_Method>  (116) 
X-Ray Diffraction

>  <Cryst_Method>  (116) 
Vapor Diffusion, Hanging Drop; Drop:
10 Mg/Ml Pka (0.240 Mm)
30 Mm Mbt (Mes/Bis-Tris Puffer pH 6.9)
1 Mm Dtt
0.1 Mm Edta
75 Mm Licl
0.03 Mm Mega 8
0.07Mm Pki (Sigma: P7739)
1.2 Mm Ligand Solved In Dmso (100 Mm Stock)
Reservoir: 16% Methanol
0.003 Ml Drop Volume, 0.4 Ml Reservoir Volume

>  <Deposit_Date>  (116) 
2016-10-05

>  <Resolution>  (116) 
1.465

>  <DOI>  (116) 
nan

>  <Source_Organism>  (116) 
Cricetulus griseus

>  <R_Free>  (116) 
0.1728

>  <Keywords>  (116) 
Transferase

>  <REMARK_280>  (116) 
 Crystal Solvent Content, Vs (%): 51.90 Matthews Coefficient, Vm (Angstroms**3/Da): 2.15 Crystallization Conditions: Drop: 10 Mg/Ml Pka (0.240 Mm) 30 Mm Mbt (Mes/Bis-Tris Puffer pH 6.9) 1 Mm Dtt 0.1 Mm Edta 75 Mm Licl 0.03 Mm Mega 8 0.07Mm Pki (Sigma: P7739) 1.2 Mm Ligand Solved In Dmso (100 Mm Stock) Reservoir: 16% Methanol 0.003 Ml Drop Volume, 0.4 Ml Reservoir Volume, Vapor Diffusion, Hanging Drop, Temperature 277.15K 

>  <REMARK_610>  (116) 
nan

>  <pH>  (116) 
6.9

>  <Cryst_Technique>  (116) 
nan

>  <Sequence>  (116) 
GHMGNAAAAKKGSEQESVKEFLAKAKEEFLKKWESPSQNTAQLDHFDRIKTLGTGSFGRVMLVKHKETGNHYAMKILDKQKVVKLKQIEHTLNEKRILQAVNFPFLVKLEFSFKDNSNLYMVMEYVPGGEMFSHLRRIGRFSEPHARFYAAQIVLTFEYLHSLDLIYRDLKPENLLIDQQGYIQVTDFGFAKRVKGRTWTLCGTPEYLAPEIILSKGYNKAVDWWALGVLIYEMAAGYPPFFADQPIQIYEKIVSGKVRFPSHFSSDLKDLLRNLLQVDLTKRFGNLKNGVNDIKNHKWFATTDWIAIYQRKVEAPFIPKFKGPGDTSNFDDYEEEEIRVSINEKCGKEFTEF

>  <Sequence_Length>  (116) 
353.0

>  <Mutation_Count>  (116) 
0.0

>  <Gene_Name>  (116) 
PKACA

>  <MW>  (116) 
41.114

>  <Name>  (116) 
cAMP-Dependent Protein Kinase Catalytic Subunit Alpha

>  <Mutations>  (116) 
nan

>  <EC_Number>  (116) 
2.7.11.11

>  <Peptidic_Inhibitor>  (116) 
True

>  <Lig_Missing_Atoms>  (116) 
['No', 'No']

>  <PDBbind_Resolution>  (116) 
nan

>  <PDBbind_Release_Year>  (116) 
nan

>  <PDBbind_Comment>  (116) 
nan

>  <PDBbind_Uniprot_Id>  (116) 
nan

>  <PDBbind_Protein_Name>  (116) 
nan

>  <PDBbind_-Logkd/Ki>  (116) 
nan

>  <PDBbind_Kd/Ki>  (116) 
nan

>  <PDBbind_Kd_Or_Ki_Or_Ic50>  (116) 
nan

>  <PDBbind_Relation>  (116) 
nan

>  <PDBbind_Value>  (116) 
nan

>  <PDBbind_Unit>  (116) 
nan

>  <PDBbind_Standard_Value>  (116) 
nan

>  <PDBbind_Standard_Unit>  (116) 
nan

>  <PDB_Chain>  (116) 
['A']

>  <Num_Ligs>  (116) 
[2.0]

>  <Orthosteric>  (116) 
[1.0]

>  <Allosteric>  (116) 
[1.0]

>  <Pockets_Assigned>  (116) 
['A, X']

>  <Multisite>  (116) 
[True]

>  <Same_Number>  (116) 
False

>  <Same_Binding_Site>  (116) 
True

>  <Same_Orientation>  (116) 
True

>  <Lig_Order_in_.pdb>  (116) 
Orthosteric, Allosteric

$$$$

     RDKit          2D

 22 24  0  0  0  0  0  0  0  0999 V2000
    3.0000    0.0000    0.0000 C   0  0  0  0  0  0  0  0  0  0  0  0
    1.5000    0.0000    0.0000 C   0  0  0  0  0  0  0  0  0  0  0  0
    0.7500   -1.2990    0.0000 C   0  0  0  0  0  0  0  0  0  0  0  0
   -0.7500   -1.2990    0.0000 N   0  0  0  0  0  0  0  0  0  0  0  0
   -1.5000    0.0000    0.0000 C   0  0  0  0  0  0  0  0  0  0  0  0
   -0.7500    1.2990    0.0000 C   0  0  0  0  0  0  0  0  0  0  0  0
    0.7500    1.2990    0.0000 C   0  0  0  0  0  0  0  0  0  0  0  0
    1.5000    2.5981    0.0000 C   0  0  0  0  0  0  0  0  0  0  0  0
    0.7500    3.8971    0.0000 C   0  0  0  0  0  0  0  0  0  0  0  0
   -0.7500    3.8971    0.0000 C   0  0  0  0  0  0  0  0  0  0  0  0
   -1.5000    2.5981    0.0000 C   0  0  0  0  0  0  0  0  0  0  0  0
    3.0000    2.5981    0.0000 S   0  0  0  0  0  0  0  0  0  0  0  0
    3.0000    4.0981    0.0000 O   0  0  0  0  0  0  0  0  0  0  0  0
    3.0000    1.0981    0.0000 O   0  0  0  0  0  0  0  0  0  0  0  0
    4.5000    2.5981    0.0000 N   0  0  0  0  0  0  0  0  0  0  0  0
    5.1508    3.9495    0.0000 C   0  0  0  0  0  0  0  0  0  0  0  0
    6.6132    4.2833    0.0000 C   0  0  0  0  0  0  0  0  0  0  0  0
    7.7860    3.3481    0.0000 C   0  0  0  0  0  0  0  0  0  0  0  0
    7.7860    1.8481    0.0000 N   0  0  0  0  0  0  0  0  0  0  0  0
    6.6132    0.9128    0.0000 C   0  0  0  0  0  0  0  0  0  0  0  0
    5.1508    1.2466    0.0000 C   0  0  0  0  0  0  0  0  0  0  0  0
    4.2156    0.0739    0.0000 C   0  0  0  0  0  0  0  0  0  0  0  0
  1  2  1  0
  2  3  2  0
  3  4  1  0
  4  5  2  0
  5  6  1  0
  6  7  2  0
  7  8  1  0
  8  9  2  0
  9 10  1  0
 10 11  2  0
  8 12  1  0
 12 13  2  0
 12 14  2  0
 12 15  1  0
 15 16  1  0
 16 17  1  0
 17 18  1  0
 18 19  1  0
 19 20  1  0
 20 21  1  0
 21 22  1  6
  7  2  1  0
 11  6  1  0
 21 15  1  0
M  END
>  <Structure>  (117) 
5M6V

>  <Dataset>  (117) 
PDB

>  <Chain>  (117) 
A

>  <Spatial_Label>  (117) 
DFGin

>  <Dihedral_Label>  (117) 
ABAminus

>  <C_Helix_Label>  (117) 
Chelix-in

>  <Lig_ID>  (117) 
H52

>  <Lig_Entity_ID>  (117) 
5M6V_3

>  <Lig_Name>  (117) 
(S)-2-METHYL-1-[(4-METHYL-5-ISOQUINOLINE)SULFONYL]-HOMOPIPERAZINE

>  <Lig_Formula>  (117) 
C16H21N3O2S

>  <Lig_SMILES>  (117) 
Cc1cncc2c1c(ccc2)S(=O)(=O)[N@]3CCCNC[C@@H]3C

>  <Lig_MW>  (117) 
319.422

>  <Lig_ChEMBL_ID>  (117) 
['CHEMBL406821']

>  <Lig_DrugBank_ID>  (117) 
['DB07876']

>  <Occurence>  (117) 
3.0

>  <Lig_SMILES_Uncharged>  (117) 
Cc1cncc2cccc(S(=O)(=O)N3CCCNC[C@@H]3C)c12

>  <Lig_Conformer>  (117) 
['A', 'B']

>  <Lig_Of_Interest>  (117) 
['Y', 'Y']

>  <Lig_Completeness>  (117) 
[1.0, 1.0]

>  <Lig_Occupancy>  (117) 
[0.59, 0.41]

>  <Lig_RSCC>  (117) 
[0.975, 0.975]

>  <Lig_RSR>  (117) 
[0.096, 0.096]

>  <Lig_RMSZ_Bonds>  (117) 
[0.53, 0.59]

>  <Lig_RMSZ_Angles>  (117) 
[0.74, 0.67]

>  <Lig_Alt_Conf>  (117) 
2.0

>  <Title>  (117) 
Cocrystal structure of cAMP-dependent Protein Kinase (PKA) in complex with a double methylated Fasudil-derivative

>  <Nonpolymer_Entity_Count>  (117) 
1.0

>  <Protein_Entity_Count>  (117) 
2.0

>  <Exp_Method>  (117) 
X-Ray Diffraction

>  <Deposit_Date>  (117) 
2016-10-26

>  <Resolution>  (117) 
1.418

>  <DOI>  (117) 
nan

>  <Source_Organism>  (117) 
Cricetulus griseus

>  <R_Free>  (117) 
0.174

>  <Keywords>  (117) 
Transferase

>  <REMARK_280>  (117) 
 Crystal Solvent Content, Vs (%): 54.27 Matthews Coefficient, Vm (Angstroms**3/Da): 2.15 Crystallization Conditions: Drop: 10 Mg/Ml Pka (0.240 Mm) 30 Mm Mbt (Mes/Bis-Tris Puffer pH 6.9) 1 Mm Dtt 0.1 Mm Edta 75 Mm Licl 0.03 Mm Mega 8 0.07Mm Pki (Sigma: P7739) 1.2 Mm Ligand Solved In Dmso (50 Mm Stock) Reservoir: 18% Methanol 0.003 Ml Drop Volume, 0.4 Ml Reservoir Volume, Vapor Diffusion, Hanging Drop, Temperature 277.15K 

>  <REMARK_610>  (117) 
nan

>  <pH>  (117) 
6.9

>  <Cryst_Technique>  (117) 
nan

>  <Sequence>  (117) 
GHMGNAAAAKKGSEQESVKEFLAKAKEEFLKKWESPSQNTAQLDHFDRIKTLGTGSFGRVMLVKHKETGNHYAMKILDKQKVVKLKQIEHTLNEKRILQAVNFPFLVKLEFSFKDNSNLYMVMEYVPGGEMFSHLRRIGRFSEPHARFYAAQIVLTFEYLHSLDLIYRDLKPENLLIDQQGYIQVTDFGFAKRVKGRTWTLCGTPEYLAPEIILSKGYNKAVDWWALGVLIYEMAAGYPPFFADQPIQIYEKIVSGKVRFPSHFSSDLKDLLRNLLQVDLTKRFGNLKNGVNDIKNHKWFATTDWIAIYQRKVEAPFIPKFKGPGDTSNFDDYEEEEIRVSINEKCGKEFTEF

>  <Sequence_Length>  (117) 
353.0

>  <Mutation_Count>  (117) 
0.0

>  <Gene_Name>  (117) 
PKACA

>  <MW>  (117) 
41.114

>  <Name>  (117) 
cAMP-Dependent Protein Kinase Catalytic Subunit Alpha

>  <Mutations>  (117) 
nan

>  <EC_Number>  (117) 
2.7.11.11

>  <Peptidic_Inhibitor>  (117) 
True

>  <Lig_Missing_Atoms>  (117) 
['No', 'No']

>  <PDBbind_Resolution>  (117) 
nan

>  <PDBbind_Release_Year>  (117) 
nan

>  <PDBbind_Comment>  (117) 
nan

>  <PDBbind_Uniprot_Id>  (117) 
nan

>  <PDBbind_Protein_Name>  (117) 
nan

>  <PDBbind_-Logkd/Ki>  (117) 
nan

>  <PDBbind_Kd/Ki>  (117) 
nan

>  <PDBbind_Kd_Or_Ki_Or_Ic50>  (117) 
nan

>  <PDBbind_Relation>  (117) 
nan

>  <PDBbind_Value>  (117) 
nan

>  <PDBbind_Unit>  (117) 
nan

>  <PDBbind_Standard_Value>  (117) 
nan

>  <PDBbind_Standard_Unit>  (117) 
nan

>  <PDB_Chain>  (117) 
['A']

>  <Num_Ligs>  (117) 
[1.0]

>  <Orthosteric>  (117) 
[1.0]

>  <Allosteric>  (117) 
[0.0]

>  <Pockets_Assigned>  (117) 
['A']

>  <Multisite>  (117) 
[True]

>  <Same_Number>  (117) 
False

>  <Same_Binding_Site>  (117) 
True

>  <Same_Orientation>  (117) 
True

>  <Lig_Order_in_.pdb>  (117) 
Orthosteric

$$$$

     RDKit          2D

 21 23  0  0  0  0  0  0  0  0999 V2000
    3.0000    0.0000    0.0000 C   0  0  0  0  0  0  0  0  0  0  0  0
    1.5000    0.0000    0.0000 C   0  0  0  0  0  0  0  0  0  0  0  0
    0.7500   -1.2990    0.0000 C   0  0  0  0  0  0  0  0  0  0  0  0
   -0.7500   -1.2990    0.0000 N   0  0  0  0  0  0  0  0  0  0  0  0
   -1.5000    0.0000    0.0000 C   0  0  0  0  0  0  0  0  0  0  0  0
   -0.7500    1.2990    0.0000 C   0  0  0  0  0  0  0  0  0  0  0  0
    0.7500    1.2990    0.0000 C   0  0  0  0  0  0  0  0  0  0  0  0
    1.5000    2.5981    0.0000 C   0  0  0  0  0  0  0  0  0  0  0  0
    0.7500    3.8971    0.0000 C   0  0  0  0  0  0  0  0  0  0  0  0
   -0.7500    3.8971    0.0000 C   0  0  0  0  0  0  0  0  0  0  0  0
   -1.5000    2.5981    0.0000 C   0  0  0  0  0  0  0  0  0  0  0  0
    3.0000    2.5981    0.0000 S   0  0  0  0  0  0  0  0  0  0  0  0
    3.0000    4.0981    0.0000 O   0  0  0  0  0  0  0  0  0  0  0  0
    3.0000    1.0981    0.0000 O   0  0  0  0  0  0  0  0  0  0  0  0
    4.5000    2.5981    0.0000 N   0  0  0  0  0  0  0  0  0  0  0  0
    5.1508    3.9495    0.0000 C   0  0  0  0  0  0  0  0  0  0  0  0
    6.6132    4.2833    0.0000 C   0  0  0  0  0  0  0  0  0  0  0  0
    7.7860    3.3481    0.0000 C   0  0  0  0  0  0  0  0  0  0  0  0
    7.7860    1.8481    0.0000 N   0  0  0  0  0  0  0  0  0  0  0  0
    6.6132    0.9128    0.0000 C   0  0  0  0  0  0  0  0  0  0  0  0
    5.1508    1.2466    0.0000 C   0  0  0  0  0  0  0  0  0  0  0  0
  1  2  1  0
  2  3  2  0
  3  4  1  0
  4  5  2  0
  5  6  1  0
  6  7  2  0
  7  8  1  0
  8  9  2  0
  9 10  1  0
 10 11  2  0
  8 12  1  0
 12 13  2  0
 12 14  2  0
 12 15  1  0
 15 16  1  0
 16 17  1  0
 17 18  1  0
 18 19  1  0
 19 20  1  0
 20 21  1  0
  7  2  1  0
 11  6  1  0
 21 15  1  0
M  END
>  <Structure>  (118) 
5M6Y

>  <Dataset>  (118) 
PDB

>  <Chain>  (118) 
A

>  <Spatial_Label>  (118) 
DFGin

>  <Dihedral_Label>  (118) 
ABAminus

>  <C_Helix_Label>  (118) 
Chelix-in

>  <Lig_ID>  (118) 
7KB

>  <Lig_Entity_ID>  (118) 
5M6Y_3

>  <Lig_Name>  (118) 
5-(1,4-diazepan-1-ylsulfonyl)-4-methyl-isoquinoline

>  <Lig_Formula>  (118) 
C15H19N3O2S

>  <Lig_SMILES>  (118) 
Cc1cncc2c1c(ccc2)S(=O)(=O)N3CCCNCC3

>  <Lig_MW>  (118) 
305.395

>  <Lig_ChEMBL_ID>  (118) 
nan

>  <Lig_DrugBank_ID>  (118) 
nan

>  <Occurence>  (118) 
2.0

>  <Lig_SMILES_Uncharged>  (118) 
Cc1cncc2cccc(S(=O)(=O)N3CCCNCC3)c12

>  <Lig_Conformer>  (118) 
['NaN']

>  <Lig_Of_Interest>  (118) 
['Y']

>  <Lig_Completeness>  (118) 
[1.0]

>  <Lig_Occupancy>  (118) 
[1.0]

>  <Lig_RSCC>  (118) 
[0.973]

>  <Lig_RSR>  (118) 
[0.079]

>  <Lig_RMSZ_Bonds>  (118) 
[0.31]

>  <Lig_RMSZ_Angles>  (118) 
[0.71]

>  <Lig_Alt_Conf>  (118) 
0.0

>  <Title>  (118) 
Cocrystal structure of cAMP-dependent Protein Kinase (PKA) in complex with a methylisoquinoline Fasudil-derivative

>  <Nonpolymer_Entity_Count>  (118) 
2.0

>  <Protein_Entity_Count>  (118) 
2.0

>  <Exp_Method>  (118) 
X-Ray Diffraction

>  <Deposit_Date>  (118) 
2016-10-26

>  <Resolution>  (118) 
1.367

>  <DOI>  (118) 
nan

>  <Source_Organism>  (118) 
Cricetulus griseus

>  <R_Free>  (118) 
0.1663

>  <Keywords>  (118) 
Transferase

>  <REMARK_280>  (118) 
 Crystal Solvent Content, Vs (%): 54.56 Matthews Coefficient, Vm (Angstroms**3/Da): 2.15 Crystallization Conditions: Drop: 10 Mg/Ml Pka (0.240 Mm) 30 Mm Mbt (Mes/Bis-Tris Puffer pH 6.9) 1 Mm Dtt 0.1 Mm Edta 75 Mm Licl 0.03 Mm Mega 8 0.07Mm Pki (Sigma: P7739) 1.2 Mm Ligand Solved In Dmso (50 Mm Stock) Reservoir: 20% Methanol 0.003 Ml Drop Volume, 0.4 Ml Reservoir Volume, Vapor Diffusion, Hanging Drop, Temperature 277.15K 

>  <REMARK_610>  (118) 
nan

>  <pH>  (118) 
6.9

>  <Cryst_Technique>  (118) 
nan

>  <Sequence>  (118) 
GHMGNAAAAKKGSEQESVKEFLAKAKEEFLKKWESPSQNTAQLDHFDRIKTLGTGSFGRVMLVKHKETGNHYAMKILDKQKVVKLKQIEHTLNEKRILQAVNFPFLVKLEFSFKDNSNLYMVMEYVPGGEMFSHLRRIGRFSEPHARFYAAQIVLTFEYLHSLDLIYRDLKPENLLIDQQGYIQVTDFGFAKRVKGRTWTLCGTPEYLAPEIILSKGYNKAVDWWALGVLIYEMAAGYPPFFADQPIQIYEKIVSGKVRFPSHFSSDLKDLLRNLLQVDLTKRFGNLKNGVNDIKNHKWFATTDWIAIYQRKVEAPFIPKFKGPGDTSNFDDYEEEEIRVSINEKCGKEFTEF

>  <Sequence_Length>  (118) 
353.0

>  <Mutation_Count>  (118) 
0.0

>  <Gene_Name>  (118) 
PKACA

>  <MW>  (118) 
41.114

>  <Name>  (118) 
cAMP-Dependent Protein Kinase Catalytic Subunit Alpha

>  <Mutations>  (118) 
nan

>  <EC_Number>  (118) 
2.7.11.11

>  <Peptidic_Inhibitor>  (118) 
True

>  <Lig_Missing_Atoms>  (118) 
['No']

>  <PDBbind_Resolution>  (118) 
nan

>  <PDBbind_Release_Year>  (118) 
nan

>  <PDBbind_Comment>  (118) 
nan

>  <PDBbind_Uniprot_Id>  (118) 
nan

>  <PDBbind_Protein_Name>  (118) 
nan

>  <PDBbind_-Logkd/Ki>  (118) 
nan

>  <PDBbind_Kd/Ki>  (118) 
nan

>  <PDBbind_Kd_Or_Ki_Or_Ic50>  (118) 
nan

>  <PDBbind_Relation>  (118) 
nan

>  <PDBbind_Value>  (118) 
nan

>  <PDBbind_Unit>  (118) 
nan

>  <PDBbind_Standard_Value>  (118) 
nan

>  <PDBbind_Standard_Unit>  (118) 
nan

>  <PDB_Chain>  (118) 
['A']

>  <Num_Ligs>  (118) 
[1.0]

>  <Orthosteric>  (118) 
[1.0]

>  <Allosteric>  (118) 
[0.0]

>  <Pockets_Assigned>  (118) 
['A']

>  <Multisite>  (118) 
[False]

>  <Same_Number>  (118) 
True

>  <Same_Binding_Site>  (118) 
True

>  <Same_Orientation>  (118) 
True

>  <Lig_Order_in_.pdb>  (118) 
Orthosteric

$$$$

     RDKit          2D

 21 23  0  0  0  0  0  0  0  0999 V2000
    4.2156   -5.1223    0.0000 C   0  0  0  0  0  0  0  0  0  0  0  0
    5.1508   -3.9495    0.0000 C   0  0  0  0  0  0  0  0  0  0  0  0
    6.6132   -4.2833    0.0000 C   0  0  0  0  0  0  0  0  0  0  0  0
    7.7860   -3.3481    0.0000 N   0  0  0  0  0  4  0  0  0  0  0  0
    7.7860   -1.8481    0.0000 C   0  0  0  0  0  0  0  0  0  0  0  0
    6.6132   -0.9128    0.0000 C   0  0  0  0  0  0  0  0  0  0  0  0
    5.1508   -1.2466    0.0000 C   0  0  0  0  0  0  0  0  0  0  0  0
    4.5000   -2.5981    0.0000 N   0  0  0  0  0  0  0  0  0  0  0  0
    3.0000   -2.5981    0.0000 S   0  0  0  0  0  0  0  0  0  0  0  0
    3.0000   -4.0981    0.0000 O   0  0  0  0  0  0  0  0  0  0  0  0
    3.0000   -1.0981    0.0000 O   0  0  0  0  0  0  0  0  0  0  0  0
    1.5000   -2.5981    0.0000 C   0  0  0  0  0  0  0  0  0  0  0  0
    0.7500   -3.8971    0.0000 C   0  0  0  0  0  0  0  0  0  0  0  0
   -0.7500   -3.8971    0.0000 C   0  0  0  0  0  0  0  0  0  0  0  0
   -1.5000   -2.5981    0.0000 C   0  0  0  0  0  0  0  0  0  0  0  0
   -0.7500   -1.2990    0.0000 C   0  0  0  0  0  0  0  0  0  0  0  0
    0.7500   -1.2990    0.0000 C   0  0  0  0  0  0  0  0  0  0  0  0
    1.5000    0.0000    0.0000 C   0  0  0  0  0  0  0  0  0  0  0  0
    0.7500    1.2990    0.0000 C   0  0  0  0  0  0  0  0  0  0  0  0
   -0.7500    1.2990    0.0000 N   0  0  0  0  0  0  0  0  0  0  0  0
   -1.5000    0.0000    0.0000 C   0  0  0  0  0  0  0  0  0  0  0  0
  2  1  1  1
  2  3  1  0
  3  4  1  0
  4  5  1  0
  5  6  1  0
  6  7  1  0
  7  8  1  0
  8  9  1  0
  9 10  2  0
  9 11  2  0
  9 12  1  0
 12 13  2  0
 13 14  1  0
 14 15  2  0
 15 16  1  0
 16 17  2  0
 17 18  1  0
 18 19  2  0
 19 20  1  0
 20 21  2  0
  8  2  1  0
 17 12  1  0
 21 16  1  0
M  CHG  1   4   1
M  END
>  <Structure>  (119) 
5M71

>  <Dataset>  (119) 
PDB

>  <Chain>  (119) 
A

>  <Spatial_Label>  (119) 
DFGin

>  <Dihedral_Label>  (119) 
ABAminus

>  <C_Helix_Label>  (119) 
Chelix-in

>  <Lig_ID>  (119) 
7K7

>  <Lig_Entity_ID>  (119) 
5M71_3

>  <Lig_Name>  (119) 
5-[[(2~{R})-2-methyl-1,4-diazepan-4-ium-1-yl]sulfonyl]isoquinoline

>  <Lig_Formula>  (119) 
C15H20N3O2S

>  <Lig_SMILES>  (119) 
C[C@@H]1C[NH2+]CCCN1S(=O)(=O)c2cccc3c2ccnc3

>  <Lig_MW>  (119) 
306.403

>  <Lig_ChEMBL_ID>  (119) 
nan

>  <Lig_DrugBank_ID>  (119) 
nan

>  <Occurence>  (119) 
1.0

>  <Lig_SMILES_Uncharged>  (119) 
C[C@@H]1CNCCCN1S(=O)(=O)c1cccc2cnccc12

>  <Lig_Conformer>  (119) 
['NaN']

>  <Lig_Of_Interest>  (119) 
['Y']

>  <Lig_Completeness>  (119) 
[1.0]

>  <Lig_Occupancy>  (119) 
[1.0]

>  <Lig_RSCC>  (119) 
[0.972]

>  <Lig_RSR>  (119) 
[0.077]

>  <Lig_RMSZ_Bonds>  (119) 
[0.62]

>  <Lig_RMSZ_Angles>  (119) 
[0.46]

>  <Lig_Alt_Conf>  (119) 
0.0

>  <Title>  (119) 
Cocrystal structure of cAMP-dependent Protein Kinase (PKA) in complex with an (R)-methyl substitued Fasudil-derivative.

>  <Nonpolymer_Entity_Count>  (119) 
2.0

>  <Protein_Entity_Count>  (119) 
2.0

>  <Exp_Method>  (119) 
X-Ray Diffraction

>  <Deposit_Date>  (119) 
2016-10-26

>  <Resolution>  (119) 
1.488

>  <DOI>  (119) 
nan

>  <Source_Organism>  (119) 
Cricetulus griseus

>  <R_Free>  (119) 
0.1761

>  <Keywords>  (119) 
Transferase

>  <REMARK_280>  (119) 
 Crystal Solvent Content, Vs (%): 54.71 Matthews Coefficient, Vm (Angstroms**3/Da): 2.15 Crystallization Conditions: Drop: 10 Mg/Ml Pka (0.240 Mm) 30 Mm Mbt (Mes/Bis-Tris Puffer pH 6.9) 1 Mm Dtt 0.1 Mm Edta 75 Mm Licl 0.03 Mm Mega 8 0.07Mm Pki (Sigma: P7739) 1.2 Mm Ligand Solved In Dmso (50 Mm Stock) Reservoir: 19% Methanol 0.003 Ml Drop Volume, 0.4 Ml Reservoir Volume, Vapor Diffusion, Hanging Drop, Temperature 277.15K 

>  <REMARK_610>  (119) 
nan

>  <pH>  (119) 
6.9

>  <Cryst_Technique>  (119) 
nan

>  <Sequence>  (119) 
GHMGNAAAAKKGSEQESVKEFLAKAKEEFLKKWESPSQNTAQLDHFDRIKTLGTGSFGRVMLVKHKETGNHYAMKILDKQKVVKLKQIEHTLNEKRILQAVNFPFLVKLEFSFKDNSNLYMVMEYVPGGEMFSHLRRIGRFSEPHARFYAAQIVLTFEYLHSLDLIYRDLKPENLLIDQQGYIQVTDFGFAKRVKGRTWTLCGTPEYLAPEIILSKGYNKAVDWWALGVLIYEMAAGYPPFFADQPIQIYEKIVSGKVRFPSHFSSDLKDLLRNLLQVDLTKRFGNLKNGVNDIKNHKWFATTDWIAIYQRKVEAPFIPKFKGPGDTSNFDDYEEEEIRVSINEKCGKEFTEF

>  <Sequence_Length>  (119) 
353.0

>  <Mutation_Count>  (119) 
0.0

>  <Gene_Name>  (119) 
PKACA

>  <MW>  (119) 
41.114

>  <Name>  (119) 
cAMP-Dependent Protein Kinase Catalytic Subunit Alpha

>  <Mutations>  (119) 
nan

>  <EC_Number>  (119) 
2.7.11.11

>  <Peptidic_Inhibitor>  (119) 
True

>  <Lig_Missing_Atoms>  (119) 
['No']

>  <PDBbind_Resolution>  (119) 
nan

>  <PDBbind_Release_Year>  (119) 
nan

>  <PDBbind_Comment>  (119) 
nan

>  <PDBbind_Uniprot_Id>  (119) 
nan

>  <PDBbind_Protein_Name>  (119) 
nan

>  <PDBbind_-Logkd/Ki>  (119) 
nan

>  <PDBbind_Kd/Ki>  (119) 
nan

>  <PDBbind_Kd_Or_Ki_Or_Ic50>  (119) 
nan

>  <PDBbind_Relation>  (119) 
nan

>  <PDBbind_Value>  (119) 
nan

>  <PDBbind_Unit>  (119) 
nan

>  <PDBbind_Standard_Value>  (119) 
nan

>  <PDBbind_Standard_Unit>  (119) 
nan

>  <PDB_Chain>  (119) 
['A']

>  <Num_Ligs>  (119) 
[1.0]

>  <Orthosteric>  (119) 
[1.0]

>  <Allosteric>  (119) 
[0.0]

>  <Pockets_Assigned>  (119) 
['A']

>  <Multisite>  (119) 
[False]

>  <Same_Number>  (119) 
True

>  <Same_Binding_Site>  (119) 
True

>  <Same_Orientation>  (119) 
True

>  <Lig_Order_in_.pdb>  (119) 
Orthosteric

$$$$

     RDKit          2D

 21 23  0  0  0  0  0  0  0  0999 V2000
    4.2156   -5.1223    0.0000 C   0  0  0  0  0  0  0  0  0  0  0  0
    5.1508   -3.9495    0.0000 C   0  0  0  0  0  0  0  0  0  0  0  0
    6.6132   -4.2833    0.0000 C   0  0  0  0  0  0  0  0  0  0  0  0
    7.7860   -3.3481    0.0000 N   0  0  0  0  0  0  0  0  0  0  0  0
    7.7860   -1.8481    0.0000 C   0  0  0  0  0  0  0  0  0  0  0  0
    6.6132   -0.9128    0.0000 C   0  0  0  0  0  0  0  0  0  0  0  0
    5.1508   -1.2466    0.0000 C   0  0  0  0  0  0  0  0  0  0  0  0
    4.5000   -2.5981    0.0000 N   0  0  0  0  0  0  0  0  0  0  0  0
    3.0000   -2.5981    0.0000 S   0  0  0  0  0  0  0  0  0  0  0  0
    3.0000   -4.0981    0.0000 O   0  0  0  0  0  0  0  0  0  0  0  0
    3.0000   -1.0981    0.0000 O   0  0  0  0  0  0  0  0  0  0  0  0
    1.5000   -2.5981    0.0000 C   0  0  0  0  0  0  0  0  0  0  0  0
    0.7500   -3.8971    0.0000 C   0  0  0  0  0  0  0  0  0  0  0  0
   -0.7500   -3.8971    0.0000 C   0  0  0  0  0  0  0  0  0  0  0  0
   -1.5000   -2.5981    0.0000 C   0  0  0  0  0  0  0  0  0  0  0  0
   -0.7500   -1.2990    0.0000 C   0  0  0  0  0  0  0  0  0  0  0  0
    0.7500   -1.2990    0.0000 C   0  0  0  0  0  0  0  0  0  0  0  0
    1.5000    0.0000    0.0000 C   0  0  0  0  0  0  0  0  0  0  0  0
    0.7500    1.2990    0.0000 C   0  0  0  0  0  0  0  0  0  0  0  0
   -0.7500    1.2990    0.0000 N   0  0  0  0  0  0  0  0  0  0  0  0
   -1.5000    0.0000    0.0000 C   0  0  0  0  0  0  0  0  0  0  0  0
  2  1  1  6
  2  3  1  0
  3  4  1  0
  4  5  1  0
  5  6  1  0
  6  7  1  0
  7  8  1  0
  8  9  1  0
  9 10  2  0
  9 11  2  0
  9 12  1  0
 12 13  2  0
 13 14  1  0
 14 15  2  0
 15 16  1  0
 16 17  2  0
 17 18  1  0
 18 19  2  0
 19 20  1  0
 20 21  2  0
  8  2  1  0
 17 12  1  0
 21 16  1  0
M  END
>  <Structure>  (120) 
5M75

>  <Dataset>  (120) 
PDB

>  <Chain>  (120) 
A

>  <Spatial_Label>  (120) 
DFGin

>  <Dihedral_Label>  (120) 
ABAminus

>  <C_Helix_Label>  (120) 
Chelix-in

>  <Lig_ID>  (120) 
9K6

>  <Lig_Entity_ID>  (120) 
5M75_4

>  <Lig_Name>  (120) 
5-[[(2~{S})-2-methyl-1,4-diazepan-1-yl]sulfonyl]isoquinoline

>  <Lig_Formula>  (120) 
C15H19N3O2S

>  <Lig_SMILES>  (120) 
C[C@H]1CNCCCN1S(=O)(=O)c2cccc3c2ccnc3

>  <Lig_MW>  (120) 
305.395

>  <Lig_ChEMBL_ID>  (120) 
nan

>  <Lig_DrugBank_ID>  (120) 
nan

>  <Occurence>  (120) 
1.0

>  <Lig_SMILES_Uncharged>  (120) 
C[C@H]1CNCCCN1S(=O)(=O)c1cccc2cnccc12

>  <Lig_Conformer>  (120) 
['NaN']

>  <Lig_Of_Interest>  (120) 
['Y']

>  <Lig_Completeness>  (120) 
[1.0]

>  <Lig_Occupancy>  (120) 
[1.0]

>  <Lig_RSCC>  (120) 
[0.986]

>  <Lig_RSR>  (120) 
[0.072]

>  <Lig_RMSZ_Bonds>  (120) 
[0.31]

>  <Lig_RMSZ_Angles>  (120) 
[0.45]

>  <Lig_Alt_Conf>  (120) 
0.0

>  <Title>  (120) 
Cocrystal structure of cAMP-dependent Protein Kinase (PKA) in complex with a (S)-methyl substitued Fasudil-derivative

>  <Nonpolymer_Entity_Count>  (120) 
2.0

>  <Protein_Entity_Count>  (120) 
2.0

>  <Exp_Method>  (120) 
X-Ray Diffraction

>  <Deposit_Date>  (120) 
2016-10-26

>  <Resolution>  (120) 
1.538

>  <DOI>  (120) 
nan

>  <Source_Organism>  (120) 
Cricetulus griseus

>  <R_Free>  (120) 
0.1739

>  <Keywords>  (120) 
Transferase

>  <REMARK_280>  (120) 
 Crystal Solvent Content, Vs (%): 53.78 Matthews Coefficient, Vm (Angstroms**3/Da): 2.18 Crystallization Conditions: Drop: 10 Mg/Ml Pka (0.240 Mm) 30 Mm Mbt (Mes/Bis-Tris Puffer pH 6.9) 1 Mm Dtt 0.1 Mm Edta 75 Mm Licl 0.03 Mm Mega 8 0.07Mm Pki (Sigma: P7739) 1.2 Mm Ligand Solved In Dmso (50 Mm Stock) Reservoir: 18% Methanol 0.003 Ml Drop Volume, 0.4 Ml Reservoir Volume, Vapor Diffusion, Hanging Drop, Temperature 277.15K 

>  <REMARK_610>  (120) 
nan

>  <pH>  (120) 
6.9

>  <Cryst_Technique>  (120) 
nan

>  <Sequence>  (120) 
GHMGNAAAAKKGSEQESVKEFLAKAKEEFLKKWESPSQNTAQLDHFDRIKTLGTGSFGRVMLVKHKETGNHYAMKILDKQKVVKLKQIEHTLNEKRILQAVNFPFLVKLEFSFKDNSNLYMVMEYVPGGEMFSHLRRIGRFSEPHARFYAAQIVLTFEYLHSLDLIYRDLKPENLLIDQQGYIQVTDFGFAKRVKGRTWTLCGTPEYLAPEIILSKGYNKAVDWWALGVLIYEMAAGYPPFFADQPIQIYEKIVSGKVRFPSHFSSDLKDLLRNLLQVDLTKRFGNLKNGVNDIKNHKWFATTDWIAIYQRKVEAPFIPKFKGPGDTSNFDDYEEEEIRVSINEKCGKEFTEF

>  <Sequence_Length>  (120) 
353.0

>  <Mutation_Count>  (120) 
0.0

>  <Gene_Name>  (120) 
PKACA

>  <MW>  (120) 
41.114

>  <Name>  (120) 
cAMP-Dependent Protein Kinase Catalytic Subunit Alpha

>  <Mutations>  (120) 
nan

>  <EC_Number>  (120) 
2.7.11.11

>  <Peptidic_Inhibitor>  (120) 
True

>  <Lig_Missing_Atoms>  (120) 
['No']

>  <PDBbind_Resolution>  (120) 
nan

>  <PDBbind_Release_Year>  (120) 
nan

>  <PDBbind_Comment>  (120) 
nan

>  <PDBbind_Uniprot_Id>  (120) 
nan

>  <PDBbind_Protein_Name>  (120) 
nan

>  <PDBbind_-Logkd/Ki>  (120) 
nan

>  <PDBbind_Kd/Ki>  (120) 
nan

>  <PDBbind_Kd_Or_Ki_Or_Ic50>  (120) 
nan

>  <PDBbind_Relation>  (120) 
nan

>  <PDBbind_Value>  (120) 
nan

>  <PDBbind_Unit>  (120) 
nan

>  <PDBbind_Standard_Value>  (120) 
nan

>  <PDBbind_Standard_Unit>  (120) 
nan

>  <PDB_Chain>  (120) 
['A']

>  <Num_Ligs>  (120) 
[1.0]

>  <Orthosteric>  (120) 
[1.0]

>  <Allosteric>  (120) 
[0.0]

>  <Pockets_Assigned>  (120) 
['A']

>  <Multisite>  (120) 
[False]

>  <Same_Number>  (120) 
True

>  <Same_Binding_Site>  (120) 
True

>  <Same_Orientation>  (120) 
True

>  <Lig_Order_in_.pdb>  (120) 
Orthosteric

$$$$

     RDKit          2D

 11 11  0  0  0  0  0  0  0  0999 V2000
    3.7500   -1.2990    0.0000 C   0  0  0  0  0  0  0  0  0  0  0  0
    3.0000    0.0000    0.0000 O   0  0  0  0  0  0  0  0  0  0  0  0
    1.5000    0.0000    0.0000 C   0  0  0  0  0  0  0  0  0  0  0  0
    0.7500   -1.2990    0.0000 C   0  0  0  0  0  0  0  0  0  0  0  0
   -0.7500   -1.2990    0.0000 C   0  0  0  0  0  0  0  0  0  0  0  0
   -1.5000    0.0000    0.0000 C   0  0  0  0  0  0  0  0  0  0  0  0
   -0.7500    1.2990    0.0000 C   0  0  0  0  0  0  0  0  0  0  0  0
    0.7500    1.2990    0.0000 C   0  0  0  0  0  0  0  0  0  0  0  0
    1.5000    2.5981    0.0000 C   0  0  0  0  0  0  0  0  0  0  0  0
    3.0000    2.5981    0.0000 N   0  0  0  0  0  4  0  0  0  0  0  0
   -3.0000    0.0000    0.0000 Cl  0  0  0  0  0  0  0  0  0  0  0  0
  1  2  1  0
  2  3  1  0
  3  4  2  0
  4  5  1  0
  5  6  2  0
  6  7  1  0
  7  8  2  0
  8  9  1  0
  9 10  1  0
  6 11  1  0
  8  3  1  0
M  CHG  1  10   1
M  END
>  <Structure>  (121) 
5MHI

>  <Dataset>  (121) 
PDB

>  <Chain>  (121) 
A

>  <Spatial_Label>  (121) 
DFGin

>  <Dihedral_Label>  (121) 
BLAminus

>  <C_Helix_Label>  (121) 
Chelix-in

>  <Lig_ID>  (121) 
7N9

>  <Lig_Entity_ID>  (121) 
5MHI_4

>  <Lig_Name>  (121) 
(5-chloranyl-2-methoxy-phenyl)methylazanium

>  <Lig_Formula>  (121) 
C8H11ClNO

>  <Lig_SMILES>  (121) 
COc1ccc(cc1C[NH3+])Cl

>  <Lig_MW>  (121) 
172.632

>  <Lig_ChEMBL_ID>  (121) 
nan

>  <Lig_DrugBank_ID>  (121) 
nan

>  <Occurence>  (121) 
1.0

>  <Lig_SMILES_Uncharged>  (121) 
COc1ccc(Cl)cc1CN

>  <Lig_Conformer>  (121) 
['NaN', 'NaN']

>  <Lig_Of_Interest>  (121) 
['Y', 'Y']

>  <Lig_Completeness>  (121) 
[1.0, 0.6364]

>  <Lig_Occupancy>  (121) 
[1.0, 0.6364]

>  <Lig_RSCC>  (121) 
[0.923, 0.942]

>  <Lig_RSR>  (121) 
[0.14, 0.082]

>  <Lig_RMSZ_Bonds>  (121) 
[0.17, 0.38]

>  <Lig_RMSZ_Angles>  (121) 
[0.51, 0.6]

>  <Lig_Alt_Conf>  (121) 
0.0

>  <Title>  (121) 
cAMP-dependent Protein Kinase A from Cricetulus griseus in complex with fragment like molecule (5-chloro-2-methoxyphenyl)methanamine

>  <Nonpolymer_Entity_Count>  (121) 
4.0

>  <Protein_Entity_Count>  (121) 
2.0

>  <Exp_Method>  (121) 
X-Ray Diffraction

>  <Cryst_Method>  (121) 
Vapor Diffusion, Sitting Drop; Mes-Bis-Tris
Mega8-Solution
Dtt
Edta
Licl
Methanol

>  <Deposit_Date>  (121) 
2016-11-24

>  <Resolution>  (121) 
1.489

>  <DOI>  (121) 
nan

>  <Source_Organism>  (121) 
Cricetulus griseus

>  <R_Free>  (121) 
0.1647

>  <Keywords>  (121) 
Transferase

>  <REMARK_280>  (121) 
 Crystal Solvent Content, Vs (%): 53.91 Matthews Coefficient, Vm (Angstroms**3/Da): 2.67 Crystallization Conditions: Mes-Bis-Tris Mega8-Solution Dtt Edta Licl Methanol, pH 6.9, Vapor Diffusion, Sitting Drop, Temperature 277K 

>  <REMARK_610>  (121) 
  7N9 A 403 

>  <pH>  (121) 
6.9

>  <Cryst_Technique>  (121) 
nan

>  <Sequence>  (121) 
GHMGNAAAAKKGSEQESVKEFLAKAKEEFLKKWESPSQNTAQLDHFDRIKTLGTGSFGRVMLVKHKETGNHYAMKILDKQKVVKLKQIEHTLNEKRILQAVNFPFLVKLEFSFKDNSNLYMVMEYVPGGEMFSHLRRIGRFSEPHARFYAAQIVLTFEYLHSLDLIYRDLKPENLLIDQQGYIQVTDFGFAKRVKGRTWTLCGTPEYLAPEIILSKGYNKAVDWWALGVLIYEMAAGYPPFFADQPIQIYEKIVSGKVRFPSHFSSDLKDLLRNLLQVDLTKRFGNLKNGVNDIKNHKWFATTDWIAIYQRKVEAPFIPKFKGPGDTSNFDDYEEEEIRVSINEKCGKEFTEF

>  <Sequence_Length>  (121) 
353.0

>  <Mutation_Count>  (121) 
0.0

>  <Gene_Name>  (121) 
PKACA

>  <MW>  (121) 
41.114

>  <Name>  (121) 
cAMP-Dependent Protein Kinase Catalytic Subunit Alpha

>  <Mutations>  (121) 
nan

>  <EC_Number>  (121) 
2.7.11.11

>  <Peptidic_Inhibitor>  (121) 
True

>  <Lig_Missing_Atoms>  (121) 
['No', 'No']

>  <PDBbind_Resolution>  (121) 
nan

>  <PDBbind_Release_Year>  (121) 
nan

>  <PDBbind_Comment>  (121) 
nan

>  <PDBbind_Uniprot_Id>  (121) 
nan

>  <PDBbind_Protein_Name>  (121) 
nan

>  <PDBbind_-Logkd/Ki>  (121) 
nan

>  <PDBbind_Kd/Ki>  (121) 
nan

>  <PDBbind_Kd_Or_Ki_Or_Ic50>  (121) 
nan

>  <PDBbind_Relation>  (121) 
nan

>  <PDBbind_Value>  (121) 
nan

>  <PDBbind_Unit>  (121) 
nan

>  <PDBbind_Standard_Value>  (121) 
nan

>  <PDBbind_Standard_Unit>  (121) 
nan

>  <PDB_Chain>  (121) 
['A']

>  <Num_Ligs>  (121) 
[2.0]

>  <Orthosteric>  (121) 
[1.0]

>  <Allosteric>  (121) 
[1.0]

>  <Pockets_Assigned>  (121) 
['A, X']

>  <Multisite>  (121) 
[True]

>  <Same_Number>  (121) 
True

>  <Same_Binding_Site>  (121) 
True

>  <Same_Orientation>  (121) 
True

>  <Lig_Order_in_.pdb>  (121) 
Orthosteric, Allosteric

$$$$

     RDKit          2D

 14 15  0  0  0  0  0  0  0  0999 V2000
    1.5000    0.0000    0.0000 C   0  0  0  0  0  0  0  0  0  0  0  0
    0.7500   -1.2990    0.0000 C   0  0  0  0  0  0  0  0  0  0  0  0
   -0.7500   -1.2990    0.0000 C   0  0  0  0  0  0  0  0  0  0  0  0
   -1.5000    0.0000    0.0000 C   0  0  0  0  0  0  0  0  0  0  0  0
   -0.7500    1.2990    0.0000 N   0  0  0  0  0  0  0  0  0  0  0  0
    0.7500    1.2990    0.0000 C   0  0  0  0  0  0  0  0  0  0  0  0
   -1.5000   -2.5981    0.0000 O   0  0  0  0  0  0  0  0  0  0  0  0
   -3.0000   -2.5981    0.0000 C   0  0  0  0  0  0  0  0  0  0  0  0
   -3.8817   -3.8116    0.0000 C   0  0  0  0  0  0  0  0  0  0  0  0
   -5.3083   -3.3481    0.0000 C   0  0  0  0  0  0  0  0  0  0  0  0
   -5.3083   -1.8481    0.0000 C   0  0  0  0  0  0  0  0  0  0  0  0
   -3.8817   -1.3846    0.0000 O   0  0  0  0  0  0  0  0  0  0  0  0
   -6.5218   -0.9664    0.0000 C   0  0  0  0  0  0  0  0  0  0  0  0
   -6.3650    0.5254    0.0000 N   0  0  0  0  0  0  0  0  0  0  0  0
  1  2  2  0
  2  3  1  0
  3  4  2  0
  4  5  1  0
  5  6  2  0
  3  7  1  0
  7  8  1  0
  8  9  2  0
  9 10  1  0
 10 11  2  0
 11 12  1  0
 11 13  1  0
 13 14  1  0
  6  1  1  0
 12  8  1  0
M  END
>  <Structure>  (122) 
5N1D

>  <Dataset>  (122) 
PDB

>  <Chain>  (122) 
A

>  <Spatial_Label>  (122) 
DFGin

>  <Dihedral_Label>  (122) 
ABAminus

>  <C_Helix_Label>  (122) 
Chelix-in

>  <Lig_ID>  (122) 
8FZ

>  <Lig_Entity_ID>  (122) 
5N1D_4

>  <Lig_Name>  (122) 
(5-pyridin-3-yloxyfuran-2-yl)methanamine

>  <Lig_Formula>  (122) 
C10H10N2O2

>  <Lig_SMILES>  (122) 
c1cc(cnc1)Oc2ccc(o2)CN

>  <Lig_MW>  (122) 
190.199

>  <Lig_ChEMBL_ID>  (122) 
nan

>  <Lig_DrugBank_ID>  (122) 
nan

>  <Occurence>  (122) 
1.0

>  <Lig_SMILES_Uncharged>  (122) 
NCc1ccc(Oc2cccnc2)o1

>  <Lig_Conformer>  (122) 
['NaN']

>  <Lig_Of_Interest>  (122) 
['Y']

>  <Lig_Completeness>  (122) 
[1.0]

>  <Lig_Occupancy>  (122) 
[1.0]

>  <Lig_RSCC>  (122) 
[0.952]

>  <Lig_RSR>  (122) 
[0.087]

>  <Lig_RMSZ_Bonds>  (122) 
[1.24]

>  <Lig_RMSZ_Angles>  (122) 
[0.97]

>  <Lig_Alt_Conf>  (122) 
0.0

>  <Title>  (122) 
cAMP-dependent Protein Kinase A from Cricetulus griseus in complex with fragment like molecule N-methyl-1-(5-pyridin-3-yloxyfuran-2-yl)methanamine

>  <Nonpolymer_Entity_Count>  (122) 
3.0

>  <Protein_Entity_Count>  (122) 
2.0

>  <Exp_Method>  (122) 
X-Ray Diffraction

>  <Cryst_Method>  (122) 
Vapor Diffusion, Sitting Drop; Mes-Bis-Tris
Mega8-Solution
Dtt
Edta
Licl
Methanol

>  <Deposit_Date>  (122) 
2017-02-06

>  <Resolution>  (122) 
1.609

>  <DOI>  (122) 
nan

>  <Source_Organism>  (122) 
Cricetulus griseus

>  <R_Free>  (122) 
0.1857

>  <Keywords>  (122) 
Transferase

>  <REMARK_280>  (122) 
 Crystal Solvent Content, Vs (%): 57.00 Matthews Coefficient, Vm (Angstroms**3/Da): 2.88 Crystallization Conditions: Mes-Bis-Tris Mega8-Solution Dtt Edta Licl Methanol, pH 6.9, Vapor Diffusion, Sitting Drop, Temperature 277K 

>  <REMARK_610>  (122) 
nan

>  <pH>  (122) 
6.9

>  <Cryst_Technique>  (122) 
nan

>  <Sequence>  (122) 
GHMGNAAAAKKGSEQESVKEFLAKAKEEFLKKWESPSQNTAQLDHFDRIKTLGTGSFGRVMLVKHKETGNHYAMKILDKQKVVKLKQIEHTLNEKRILQAVNFPFLVKLEFSFKDNSNLYMVMEYVPGGEMFSHLRRIGRFSEPHARFYAAQIVLTFEYLHSLDLIYRDLKPENLLIDQQGYIQVTDFGFAKRVKGRTWTLCGTPEYLAPEIILSKGYNKAVDWWALGVLIYEMAAGYPPFFADQPIQIYEKIVSGKVRFPSHFSSDLKDLLRNLLQVDLTKRFGNLKNGVNDIKNHKWFATTDWIAIYQRKVEAPFIPKFKGPGDTSNFDDYEEEEIRVSINEKCGKEFTEF

>  <Sequence_Length>  (122) 
353.0

>  <Mutation_Count>  (122) 
0.0

>  <Gene_Name>  (122) 
PKACA

>  <MW>  (122) 
41.114

>  <Name>  (122) 
cAMP-Dependent Protein Kinase Catalytic Subunit Alpha

>  <Mutations>  (122) 
nan

>  <EC_Number>  (122) 
2.7.11.11

>  <Peptidic_Inhibitor>  (122) 
True

>  <Lig_Missing_Atoms>  (122) 
['No']

>  <PDBbind_Resolution>  (122) 
nan

>  <PDBbind_Release_Year>  (122) 
nan

>  <PDBbind_Comment>  (122) 
nan

>  <PDBbind_Uniprot_Id>  (122) 
nan

>  <PDBbind_Protein_Name>  (122) 
nan

>  <PDBbind_-Logkd/Ki>  (122) 
nan

>  <PDBbind_Kd/Ki>  (122) 
nan

>  <PDBbind_Kd_Or_Ki_Or_Ic50>  (122) 
nan

>  <PDBbind_Relation>  (122) 
nan

>  <PDBbind_Value>  (122) 
nan

>  <PDBbind_Unit>  (122) 
nan

>  <PDBbind_Standard_Value>  (122) 
nan

>  <PDBbind_Standard_Unit>  (122) 
nan

>  <PDB_Chain>  (122) 
['A']

>  <Num_Ligs>  (122) 
[1.0]

>  <Orthosteric>  (122) 
[1.0]

>  <Allosteric>  (122) 
[0.0]

>  <Pockets_Assigned>  (122) 
['A']

>  <Multisite>  (122) 
[False]

>  <Same_Number>  (122) 
True

>  <Same_Binding_Site>  (122) 
True

>  <Same_Orientation>  (122) 
True

>  <Lig_Order_in_.pdb>  (122) 
Orthosteric

$$$$

     RDKit          2D

 19 21  0  0  0  0  0  0  0  0999 V2000
   -1.8351    3.2209    0.0000 C   0  0  0  0  0  0  0  0  0  0  0  0
   -2.1470    1.7537    0.0000 C   0  0  0  0  0  0  0  0  0  0  0  0
   -1.0323    0.7500    0.0000 C   0  0  0  0  0  0  0  0  0  0  0  0
    0.3943    1.2135    0.0000 C   0  0  0  0  0  0  0  0  0  0  0  0
    0.7062    2.6807    0.0000 C   0  0  0  0  0  0  0  0  0  0  0  0
   -0.4086    3.6844    0.0000 C   0  0  0  0  0  0  0  0  0  0  0  0
   -0.0967    5.1517    0.0000 N   0  0  0  0  0  0  0  0  0  0  0  0
    1.3299    5.6152    0.0000 C   0  0  0  0  0  0  0  0  0  0  0  0
    2.4446    4.6115    0.0000 O   0  0  0  0  0  0  0  0  0  0  0  0
    1.6418    7.0824    0.0000 C   0  0  0  0  0  0  0  0  0  0  0  0
    3.0684    7.5459    0.0000 N   0  0  0  0  0  4  0  0  0  0  0  0
    4.1831    6.5422    0.0000 C   0  0  0  0  0  0  0  0  0  0  0  0
    5.6097    7.0058    0.0000 C   0  0  0  0  0  0  0  0  0  0  0  0
    5.9215    8.4730    0.0000 C   0  0  0  0  0  0  0  0  0  0  0  0
    4.8068    9.4767    0.0000 C   0  0  0  0  0  0  0  0  0  0  0  0
    3.3802    9.0132    0.0000 C   0  0  0  0  0  0  0  0  0  0  0  0
    1.2760    0.0000    0.0000 O   0  0  0  0  0  0  0  0  0  0  0  0
    0.3943   -1.2135    0.0000 C   0  0  0  0  0  0  0  0  0  0  0  0
   -1.0323   -0.7500    0.0000 O   0  0  0  0  0  0  0  0  0  0  0  0
  1  2  2  0
  2  3  1  0
  3  4  2  0
  4  5  1  0
  5  6  2  0
  6  7  1  0
  7  8  1  0
  8  9  2  0
  8 10  1  0
 10 11  1  0
 11 12  1  0
 12 13  1  0
 13 14  1  0
 14 15  1  0
 15 16  1  0
  4 17  1  0
 17 18  1  0
 18 19  1  0
  6  1  1  0
 19  3  1  0
 16 11  1  0
M  CHG  1  11   1
M  END
>  <Structure>  (123) 
5N1E

>  <Dataset>  (123) 
PDB

>  <Chain>  (123) 
A

>  <Spatial_Label>  (123) 
DFGin

>  <Dihedral_Label>  (123) 
BLAminus

>  <C_Helix_Label>  (123) 
Chelix-in

>  <Lig_ID>  (123) 
9NT

>  <Lig_Entity_ID>  (123) 
5N1E_4

>  <Lig_Name>  (123) 
~{N}-(1,3-benzodioxol-5-yl)-2-piperidin-1-ium-1-yl-ethanamide

>  <Lig_Formula>  (123) 
C14H19N2O3

>  <Lig_SMILES>  (123) 
c1cc2c(cc1NC(=O)C[NH+]3CCCCC3)OCO2

>  <Lig_MW>  (123) 
263.312

>  <Lig_ChEMBL_ID>  (123) 
nan

>  <Lig_DrugBank_ID>  (123) 
nan

>  <Occurence>  (123) 
1.0

>  <Lig_SMILES_Uncharged>  (123) 
O=C(CN1CCCCC1)Nc1ccc2c(c1)OCO2

>  <Lig_Conformer>  (123) 
['NaN']

>  <Lig_Of_Interest>  (123) 
['Y']

>  <Lig_Completeness>  (123) 
[0.7895]

>  <Lig_Occupancy>  (123) 
[0.7342]

>  <Lig_RSCC>  (123) 
[0.875]

>  <Lig_RSR>  (123) 
[0.123]

>  <Lig_RMSZ_Bonds>  (123) 
[0.86]

>  <Lig_RMSZ_Angles>  (123) 
[0.55]

>  <Lig_Alt_Conf>  (123) 
0.0

>  <Title>  (123) 
cAMP-dependent Protein Kinase A from Cricetulus griseus in complex with fragment like molecule N-(1,3-benzodioxol-5-yl)-2-piperidin-1-ylacetamide

>  <Nonpolymer_Entity_Count>  (123) 
4.0

>  <Protein_Entity_Count>  (123) 
2.0

>  <Exp_Method>  (123) 
X-Ray Diffraction

>  <Cryst_Method>  (123) 
Vapor Diffusion, Sitting Drop; Mes-Bis-Tris
Mega8-Solution
Dtt
Edta
Licl
Methanol

>  <Deposit_Date>  (123) 
2017-02-06

>  <Resolution>  (123) 
1.529

>  <DOI>  (123) 
nan

>  <Source_Organism>  (123) 
Cricetulus griseus

>  <R_Free>  (123) 
0.1743

>  <Keywords>  (123) 
Transferase

>  <REMARK_280>  (123) 
 Crystal Solvent Content, Vs (%): 57.00 Matthews Coefficient, Vm (Angstroms**3/Da): 2.83 Crystallization Conditions: Mes-Bis-Tris Mega8-Solution Dtt Edta Licl Methanol, pH 6.9, Vapor Diffusion, Sitting Drop, Temperature 277K 

>  <REMARK_610>  (123) 
  9NT A 402 

>  <pH>  (123) 
6.9

>  <Cryst_Technique>  (123) 
nan

>  <Sequence>  (123) 
GHMGNAAAAKKGSEQESVKEFLAKAKEEFLKKWESPSQNTAQLDHFDRIKTLGTGSFGRVMLVKHKETGNHYAMKILDKQKVVKLKQIEHTLNEKRILQAVNFPFLVKLEFSFKDNSNLYMVMEYVPGGEMFSHLRRIGRFSEPHARFYAAQIVLTFEYLHSLDLIYRDLKPENLLIDQQGYIQVTDFGFAKRVKGRTWTLCGTPEYLAPEIILSKGYNKAVDWWALGVLIYEMAAGYPPFFADQPIQIYEKIVSGKVRFPSHFSSDLKDLLRNLLQVDLTKRFGNLKNGVNDIKNHKWFATTDWIAIYQRKVEAPFIPKFKGPGDTSNFDDYEEEEIRVSINEKCGKEFTEF

>  <Sequence_Length>  (123) 
353.0

>  <Mutation_Count>  (123) 
0.0

>  <Gene_Name>  (123) 
PKACA

>  <MW>  (123) 
41.114

>  <Name>  (123) 
cAMP-Dependent Protein Kinase Catalytic Subunit Alpha

>  <Mutations>  (123) 
nan

>  <EC_Number>  (123) 
2.7.11.11

>  <Peptidic_Inhibitor>  (123) 
True

>  <Lig_Missing_Atoms>  (123) 
['No']

>  <PDBbind_Resolution>  (123) 
nan

>  <PDBbind_Release_Year>  (123) 
nan

>  <PDBbind_Comment>  (123) 
nan

>  <PDBbind_Uniprot_Id>  (123) 
nan

>  <PDBbind_Protein_Name>  (123) 
nan

>  <PDBbind_-Logkd/Ki>  (123) 
nan

>  <PDBbind_Kd/Ki>  (123) 
nan

>  <PDBbind_Kd_Or_Ki_Or_Ic50>  (123) 
nan

>  <PDBbind_Relation>  (123) 
nan

>  <PDBbind_Value>  (123) 
nan

>  <PDBbind_Unit>  (123) 
nan

>  <PDBbind_Standard_Value>  (123) 
nan

>  <PDBbind_Standard_Unit>  (123) 
nan

>  <PDB_Chain>  (123) 
['A']

>  <Num_Ligs>  (123) 
[1.0]

>  <Orthosteric>  (123) 
[1.0]

>  <Allosteric>  (123) 
[0.0]

>  <Pockets_Assigned>  (123) 
['A']

>  <Multisite>  (123) 
[False]

>  <Same_Number>  (123) 
True

>  <Same_Binding_Site>  (123) 
True

>  <Same_Orientation>  (123) 
True

>  <Lig_Order_in_.pdb>  (123) 
Orthosteric

$$$$

     RDKit          2D

 19 21  0  0  0  0  0  0  0  0999 V2000
   -0.7500   -3.8971    0.0000 C   0  0  0  0  0  0  0  0  0  0  0  0
   -1.5000   -2.5981    0.0000 C   0  0  0  0  0  0  0  0  0  0  0  0
   -0.7500   -1.2990    0.0000 C   0  0  0  0  0  0  0  0  0  0  0  0
    0.7500   -1.2990    0.0000 C   0  0  0  0  0  0  0  0  0  0  0  0
    1.5000    0.0000    0.0000 C   0  0  0  0  0  0  0  0  0  0  0  0
    0.7500    1.2990    0.0000 C   0  0  0  0  0  0  0  0  0  0  0  0
   -0.7500    1.2990    0.0000 C   0  0  0  0  0  0  0  0  0  0  0  0
   -1.5000    0.0000    0.0000 N   0  0  0  0  0  0  0  0  0  0  0  0
    1.5000   -2.5981    0.0000 C   0  0  0  0  0  0  0  0  0  0  0  0
    0.7500   -3.8971    0.0000 C   0  0  0  0  0  0  0  0  0  0  0  0
    3.0000   -2.5981    0.0000 N   0  0  0  0  0  0  0  0  0  0  0  0
    3.7500   -3.8971    0.0000 C   0  0  0  0  0  0  0  0  0  0  0  0
    3.0000   -5.1962    0.0000 O   0  0  0  0  0  0  0  0  0  0  0  0
    5.2500   -3.8971    0.0000 C   0  0  0  0  0  0  0  0  0  0  0  0
    6.0000   -5.1962    0.0000 C   0  0  0  0  0  0  0  0  0  0  0  0
    7.5000   -5.1962    0.0000 C   0  0  0  0  0  0  0  0  0  0  0  0
    8.2500   -3.8971    0.0000 C   0  0  0  0  0  0  0  0  0  0  0  0
    7.5000   -2.5981    0.0000 N   0  0  0  0  0  0  0  0  0  0  0  0
    6.0000   -2.5981    0.0000 C   0  0  0  0  0  0  0  0  0  0  0  0
  1  2  2  0
  2  3  1  0
  3  4  2  0
  4  5  1  0
  5  6  2  0
  6  7  1  0
  7  8  2  0
  4  9  1  0
  9 10  2  0
  9 11  1  0
 11 12  1  0
 12 13  2  0
 12 14  1  0
 14 15  2  0
 15 16  1  0
 16 17  2  0
 17 18  1  0
 18 19  2  0
 10  1  1  0
  8  3  1  0
 19 14  1  0
M  END
>  <Structure>  (124) 
5N1F

>  <Dataset>  (124) 
PDB

>  <Chain>  (124) 
A

>  <Spatial_Label>  (124) 
DFGin

>  <Dihedral_Label>  (124) 
BLAminus

>  <C_Helix_Label>  (124) 
Chelix-in

>  <Lig_ID>  (124) 
8ET

>  <Lig_Entity_ID>  (124) 
5N1F_3

>  <Lig_Name>  (124) 
~{N}-quinolin-5-ylpyridine-3-carboxamide

>  <Lig_Formula>  (124) 
C15H11N3O

>  <Lig_SMILES>  (124) 
c1cc2c(cccn2)c(c1)NC(=O)c3cccnc3

>  <Lig_MW>  (124) 
249.267

>  <Lig_ChEMBL_ID>  (124) 
['CHEMBL1343177']

>  <Lig_DrugBank_ID>  (124) 
nan

>  <Occurence>  (124) 
1.0

>  <Lig_SMILES_Uncharged>  (124) 
O=C(Nc1cccc2ncccc12)c1cccnc1

>  <Lig_Conformer>  (124) 
['NaN']

>  <Lig_Of_Interest>  (124) 
['Y']

>  <Lig_Completeness>  (124) 
[1.0]

>  <Lig_Occupancy>  (124) 
[0.85]

>  <Lig_RSCC>  (124) 
[0.769]

>  <Lig_RSR>  (124) 
[0.227]

>  <Lig_RMSZ_Bonds>  (124) 
[0.37]

>  <Lig_RMSZ_Angles>  (124) 
[0.45]

>  <Lig_Alt_Conf>  (124) 
0.0

>  <Title>  (124) 
cAMP-dependent Protein Kinase A from Cricetulus griseus in complex with fragment like molecule N-quinolin-5-ylpyridine-3-carboxamide

>  <Nonpolymer_Entity_Count>  (124) 
3.0

>  <Protein_Entity_Count>  (124) 
1.0

>  <Exp_Method>  (124) 
X-Ray Diffraction

>  <Cryst_Method>  (124) 
Vapor Diffusion, Sitting Drop; Mes-Bis-Tris
Mega8-Solution
Dtt
Edta
Licl
Methanol

>  <Deposit_Date>  (124) 
2017-02-06

>  <Resolution>  (124) 
1.12

>  <DOI>  (124) 
nan

>  <Source_Organism>  (124) 
Cricetulus griseus

>  <R_Free>  (124) 
0.1564

>  <Keywords>  (124) 
Transferase

>  <REMARK_280>  (124) 
 Crystal Solvent Content, Vs (%): 45.00 Matthews Coefficient, Vm (Angstroms**3/Da): 2.23 Crystallization Conditions: Mes-Bis-Tris Mega8-Solution Dtt Edta Licl Methanol, pH 6.9, Vapor Diffusion, Sitting Drop, Temperature 277K 

>  <REMARK_610>  (124) 
nan

>  <pH>  (124) 
6.9

>  <Cryst_Technique>  (124) 
nan

>  <Sequence>  (124) 
GHMGNAAAAKKGSEQESVKEFLAKAKEEFLKKWESPSQNTAQLDHFDRIKTLGTGSFGRVMLVKHKETGNHYAMKILDKQKVVKLKQIEHTLNEKRILQAVNFPFLVKLEFSFKDNSNLYMVMEYVPGGEMFSHLRRIGRFSEPHARFYAAQIVLTFEYLHSLDLIYRDLKPENLLIDQQGYIQVTDFGFAKRVKGRTWTLCGTPEYLAPEIILSKGYNKAVDWWALGVLIYEMAAGYPPFFADQPIQIYEKIVSGKVRFPSHFSSDLKDLLRNLLQVDLTKRFGNLKNGVNDIKNHKWFATTDWIAIYQRKVEAPFIPKFKGPGDTSNFDDYEEEEIRVSINEKCGKEFTEF

>  <Sequence_Length>  (124) 
353.0

>  <Mutation_Count>  (124) 
0.0

>  <Gene_Name>  (124) 
PKACA

>  <MW>  (124) 
41.194

>  <Name>  (124) 
cAMP-Dependent Protein Kinase Catalytic Subunit Alpha

>  <Mutations>  (124) 
nan

>  <EC_Number>  (124) 
2.7.11.11

>  <Peptidic_Inhibitor>  (124) 
False

>  <Lig_Missing_Atoms>  (124) 
['No']

>  <PDBbind_Resolution>  (124) 
nan

>  <PDBbind_Release_Year>  (124) 
nan

>  <PDBbind_Comment>  (124) 
nan

>  <PDBbind_Uniprot_Id>  (124) 
nan

>  <PDBbind_Protein_Name>  (124) 
nan

>  <PDBbind_-Logkd/Ki>  (124) 
nan

>  <PDBbind_Kd/Ki>  (124) 
nan

>  <PDBbind_Kd_Or_Ki_Or_Ic50>  (124) 
nan

>  <PDBbind_Relation>  (124) 
nan

>  <PDBbind_Value>  (124) 
nan

>  <PDBbind_Unit>  (124) 
nan

>  <PDBbind_Standard_Value>  (124) 
nan

>  <PDBbind_Standard_Unit>  (124) 
nan

>  <PDB_Chain>  (124) 
['A']

>  <Num_Ligs>  (124) 
[1.0]

>  <Orthosteric>  (124) 
[1.0]

>  <Allosteric>  (124) 
[0.0]

>  <Pockets_Assigned>  (124) 
['A']

>  <Multisite>  (124) 
[False]

>  <Same_Number>  (124) 
True

>  <Same_Binding_Site>  (124) 
True

>  <Same_Orientation>  (124) 
True

>  <Lig_Order_in_.pdb>  (124) 
Orthosteric

$$$$

     RDKit          2D

 17 19  0  0  0  0  0  0  0  0999 V2000
    2.9336    1.1261    0.0000 C   0  0  0  0  0  0  0  0  0  0  0  0
    3.2455   -0.3411    0.0000 C   0  0  0  0  0  0  0  0  0  0  0  0
    4.7373   -0.4979    0.0000 N   0  0  0  0  0  0  0  0  0  0  0  0
    5.3474    0.8724    0.0000 C   0  0  0  0  0  0  0  0  0  0  0  0
    4.2326    1.8761    0.0000 S   0  0  0  0  0  0  0  0  0  0  0  0
    6.8146    1.1843    0.0000 N   0  0  0  0  0  0  0  0  0  0  0  0
    2.2418   -1.4558    0.0000 C   0  0  0  0  0  0  0  0  0  0  0  0
    2.5537   -2.9231    0.0000 C   0  0  0  0  0  0  0  0  0  0  0  0
    1.2546   -3.6731    0.0000 C   0  0  0  0  0  0  0  0  0  0  0  0
    1.0978   -5.1648    0.0000 O   0  0  0  0  0  0  0  0  0  0  0  0
    0.1399   -2.6694    0.0000 O   0  0  0  0  0  0  0  0  0  0  0  0
    0.7500   -1.2990    0.0000 C   0  0  0  0  0  0  0  0  0  0  0  0
    1.5000    0.0000    0.0000 C   0  0  0  0  0  0  0  0  0  0  0  0
    0.7500    1.2990    0.0000 C   0  0  0  0  0  0  0  0  0  0  0  0
   -0.7500    1.2990    0.0000 C   0  0  0  0  0  0  0  0  0  0  0  0
   -1.5000    0.0000    0.0000 C   0  0  0  0  0  0  0  0  0  0  0  0
   -0.7500   -1.2990    0.0000 C   0  0  0  0  0  0  0  0  0  0  0  0
  1  2  2  0
  2  3  1  0
  3  4  2  0
  4  5  1  0
  4  6  1  0
  7  2  1  1
  7  8  1  0
  8  9  1  0
  9 10  2  0
  9 11  1  0
 11 12  1  0
 12 13  1  0
 13 14  1  0
 14 15  1  0
 15 16  1  0
 16 17  1  0
  5  1  1  0
 12  7  1  0
 17 12  1  0
M  END
>  <Structure>  (125) 
5N1G

>  <Dataset>  (125) 
PDB

>  <Chain>  (125) 
A

>  <Spatial_Label>  (125) 
DFGin

>  <Dihedral_Label>  (125) 
BLAminus

>  <C_Helix_Label>  (125) 
Chelix-in

>  <Lig_ID>  (125) 
8G5

>  <Lig_Entity_ID>  (125) 
5N1G_4

>  <Lig_Name>  (125) 
(4R)-4-(2-amino-1,3-thiazol-4-yl)-1-oxaspiro[4.5]decan-2-one

>  <Lig_Formula>  (125) 
C12H16N2O2S

>  <Lig_SMILES>  (125) 
c1c(nc(s1)N)[C@H]2CC(=O)OC23CCCCC3

>  <Lig_MW>  (125) 
252.333

>  <Lig_ChEMBL_ID>  (125) 
nan

>  <Lig_DrugBank_ID>  (125) 
nan

>  <Occurence>  (125) 
1.0

>  <Lig_SMILES_Uncharged>  (125) 
Nc1nc([C@H]2CC(=O)OC23CCCCC3)cs1

>  <Lig_Conformer>  (125) 
['NaN']

>  <Lig_Of_Interest>  (125) 
['Y']

>  <Lig_Completeness>  (125) 
[1.0]

>  <Lig_Occupancy>  (125) 
[0.85]

>  <Lig_RSCC>  (125) 
[0.831]

>  <Lig_RSR>  (125) 
[0.14]

>  <Lig_RMSZ_Bonds>  (125) 
[1.29]

>  <Lig_RMSZ_Angles>  (125) 
[1.49]

>  <Lig_Alt_Conf>  (125) 
0.0

>  <Title>  (125) 
cAMP-dependent Protein Kinase A from Cricetulus griseus in complex with fragment like molecule 4-(2-Amino-1,3-thiazol-4-yl)-1-oxaspiro[4.5]decan-2-one

>  <Nonpolymer_Entity_Count>  (125) 
4.0

>  <Protein_Entity_Count>  (125) 
1.0

>  <Exp_Method>  (125) 
X-Ray Diffraction

>  <Cryst_Method>  (125) 
Vapor Diffusion, Sitting Drop; Mes-Bis-Tris
Mega8-Solution
Dtt
Edta
Licl
Methanol

>  <Deposit_Date>  (125) 
2017-02-06

>  <Resolution>  (125) 
1.14

>  <DOI>  (125) 
nan

>  <Source_Organism>  (125) 
Cricetulus griseus

>  <R_Free>  (125) 
0.1414

>  <Keywords>  (125) 
Transferase

>  <REMARK_280>  (125) 
 Crystal Solvent Content, Vs (%): 44.50 Matthews Coefficient, Vm (Angstroms**3/Da): 2.21 Crystallization Conditions: Mes-Bis-Tris Mega8-Solution Dtt Edta Licl Methanol, pH 6.9, Vapor Diffusion, Sitting Drop, Temperature 277K 

>  <REMARK_610>  (125) 
nan

>  <pH>  (125) 
6.9

>  <Cryst_Technique>  (125) 
nan

>  <Sequence>  (125) 
GHMGNAAAAKKGSEQESVKEFLAKAKEEFLKKWESPSQNTAQLDHFDRIKTLGTGSFGRVMLVKHKETGNHYAMKILDKQKVVKLKQIEHTLNEKRILQAVNFPFLVKLEFSFKDNSNLYMVMEYVPGGEMFSHLRRIGRFSEPHARFYAAQIVLTFEYLHSLDLIYRDLKPENLLIDQQGYIQVTDFGFAKRVKGRTWTLCGTPEYLAPEIILSKGYNKAVDWWALGVLIYEMAAGYPPFFADQPIQIYEKIVSGKVRFPSHFSSDLKDLLRNLLQVDLTKRFGNLKNGVNDIKNHKWFATTDWIAIYQRKVEAPFIPKFKGPGDTSNFDDYEEEEIRVSINEKCGKEFTEF

>  <Sequence_Length>  (125) 
353.0

>  <Mutation_Count>  (125) 
0.0

>  <Gene_Name>  (125) 
PKACA

>  <MW>  (125) 
41.194

>  <Name>  (125) 
cAMP-Dependent Protein Kinase Catalytic Subunit Alpha

>  <Mutations>  (125) 
nan

>  <EC_Number>  (125) 
2.7.11.11

>  <Peptidic_Inhibitor>  (125) 
False

>  <Lig_Missing_Atoms>  (125) 
['No']

>  <PDBbind_Resolution>  (125) 
nan

>  <PDBbind_Release_Year>  (125) 
nan

>  <PDBbind_Comment>  (125) 
nan

>  <PDBbind_Uniprot_Id>  (125) 
nan

>  <PDBbind_Protein_Name>  (125) 
nan

>  <PDBbind_-Logkd/Ki>  (125) 
nan

>  <PDBbind_Kd/Ki>  (125) 
nan

>  <PDBbind_Kd_Or_Ki_Or_Ic50>  (125) 
nan

>  <PDBbind_Relation>  (125) 
nan

>  <PDBbind_Value>  (125) 
nan

>  <PDBbind_Unit>  (125) 
nan

>  <PDBbind_Standard_Value>  (125) 
nan

>  <PDBbind_Standard_Unit>  (125) 
nan

>  <PDB_Chain>  (125) 
['A']

>  <Num_Ligs>  (125) 
[1.0]

>  <Orthosteric>  (125) 
[0.0]

>  <Allosteric>  (125) 
[1.0]

>  <Pockets_Assigned>  (125) 
['X']

>  <Multisite>  (125) 
[False]

>  <Same_Number>  (125) 
True

>  <Same_Binding_Site>  (125) 
True

>  <Same_Orientation>  (125) 
True

>  <Lig_Order_in_.pdb>  (125) 
Allosteric

$$$$

     RDKit          2D

 12 12  0  0  0  0  0  0  0  0999 V2000
    5.2500   -1.2990    0.0000 C   0  0  0  0  0  0  0  0  0  0  0  0
    3.7500   -1.2990    0.0000 O   0  0  0  0  0  0  0  0  0  0  0  0
    3.0000    0.0000    0.0000 C   0  0  0  0  0  0  0  0  0  0  0  0
    3.7500    1.2990    0.0000 O   0  0  0  0  0  0  0  0  0  0  0  0
    1.5000    0.0000    0.0000 C   0  0  0  0  0  0  0  0  0  0  0  0
    0.7500   -1.2990    0.0000 C   0  0  0  0  0  0  0  0  0  0  0  0
   -0.7500   -1.2990    0.0000 C   0  0  0  0  0  0  0  0  0  0  0  0
   -1.5000    0.0000    0.0000 C   0  0  0  0  0  0  0  0  0  0  0  0
   -0.7500    1.2990    0.0000 C   0  0  0  0  0  0  0  0  0  0  0  0
    0.7500    1.2990    0.0000 C   0  0  0  0  0  0  0  0  0  0  0  0
   -3.0000    0.0000    0.0000 C   0  0  0  0  0  0  0  0  0  0  0  0
   -3.7500    1.2990    0.0000 N   0  0  0  0  0  4  0  0  0  0  0  0
  1  2  1  0
  2  3  1  0
  3  4  2  0
  3  5  1  0
  5  6  2  0
  6  7  1  0
  7  8  2  0
  8  9  1  0
  9 10  2  0
  8 11  1  0
 11 12  1  0
 10  5  1  0
M  CHG  1  12   1
M  END
>  <Structure>  (126) 
5N1H

>  <Dataset>  (126) 
PDB

>  <Chain>  (126) 
A

>  <Spatial_Label>  (126) 
DFGin

>  <Dihedral_Label>  (126) 
BLAminus

>  <C_Helix_Label>  (126) 
Chelix-in

>  <Lig_ID>  (126) 
8G2

>  <Lig_Entity_ID>  (126) 
5N1H_3

>  <Lig_Name>  (126) 
(4-methoxycarbonylphenyl)methylazanium

>  <Lig_Formula>  (126) 
C9H12NO2

>  <Lig_SMILES>  (126) 
COC(=O)c1ccc(cc1)C[NH3+]

>  <Lig_MW>  (126) 
166.197

>  <Lig_ChEMBL_ID>  (126) 
nan

>  <Lig_DrugBank_ID>  (126) 
nan

>  <Occurence>  (126) 
1.0

>  <Lig_SMILES_Uncharged>  (126) 
COC(=O)c1ccc(CN)cc1

>  <Lig_Conformer>  (126) 
['A', 'B']

>  <Lig_Of_Interest>  (126) 
['Y', 'Y']

>  <Lig_Completeness>  (126) 
[1.0, 1.0]

>  <Lig_Occupancy>  (126) 
[0.27, 0.73]

>  <Lig_RSCC>  (126) 
[0.895, 0.895]

>  <Lig_RSR>  (126) 
[0.168, 0.168]

>  <Lig_RMSZ_Bonds>  (126) 
[0.27, 0.35]

>  <Lig_RMSZ_Angles>  (126) 
[0.27, 0.29]

>  <Lig_Alt_Conf>  (126) 
2.0

>  <Title>  (126) 
cAMP-dependent Protein Kinase A from Cricetulus griseus in complex with fragment like molecule Methyl 4-(aminomethyl)benzoate

>  <Nonpolymer_Entity_Count>  (126) 
3.0

>  <Protein_Entity_Count>  (126) 
1.0

>  <Exp_Method>  (126) 
X-Ray Diffraction

>  <Cryst_Method>  (126) 
Vapor Diffusion, Sitting Drop; Mes-Bis-Tris
Mega8-Solution
Dtt
Edta
Licl
Methanol

>  <Deposit_Date>  (126) 
2017-02-06

>  <Resolution>  (126) 
1.18

>  <DOI>  (126) 
nan

>  <Source_Organism>  (126) 
Cricetulus griseus

>  <R_Free>  (126) 
0.1582

>  <Keywords>  (126) 
Transferase

>  <REMARK_280>  (126) 
 Crystal Solvent Content, Vs (%): 44.50 Matthews Coefficient, Vm (Angstroms**3/Da): 2.21 Crystallization Conditions: Mes-Bis-Tris Mega8-Solution Dtt Edta Licl Methanol, pH 6.9, Vapor Diffusion, Sitting Drop, Temperature 277K 

>  <REMARK_610>  (126) 
nan

>  <pH>  (126) 
6.9

>  <Cryst_Technique>  (126) 
nan

>  <Sequence>  (126) 
GHMGNAAAAKKGSEQESVKEFLAKAKEEFLKKWESPSQNTAQLDHFDRIKTLGTGSFGRVMLVKHKETGNHYAMKILDKQKVVKLKQIEHTLNEKRILQAVNFPFLVKLEFSFKDNSNLYMVMEYVPGGEMFSHLRRIGRFSEPHARFYAAQIVLTFEYLHSLDLIYRDLKPENLLIDQQGYIQVTDFGFAKRVKGRTWTLCGTPEYLAPEIILSKGYNKAVDWWALGVLIYEMAAGYPPFFADQPIQIYEKIVSGKVRFPSHFSSDLKDLLRNLLQVDLTKRFGNLKNGVNDIKNHKWFATTDWIAIYQRKVEAPFIPKFKGPGDTSNFDDYEEEEIRVSINEKCGKEFTEF

>  <Sequence_Length>  (126) 
353.0

>  <Mutation_Count>  (126) 
0.0

>  <Gene_Name>  (126) 
PKACA

>  <MW>  (126) 
41.194

>  <Name>  (126) 
cAMP-Dependent Protein Kinase Catalytic Subunit Alpha

>  <Mutations>  (126) 
nan

>  <EC_Number>  (126) 
2.7.11.11

>  <Peptidic_Inhibitor>  (126) 
False

>  <Lig_Missing_Atoms>  (126) 
['No', 'No']

>  <PDBbind_Resolution>  (126) 
nan

>  <PDBbind_Release_Year>  (126) 
nan

>  <PDBbind_Comment>  (126) 
nan

>  <PDBbind_Uniprot_Id>  (126) 
nan

>  <PDBbind_Protein_Name>  (126) 
nan

>  <PDBbind_-Logkd/Ki>  (126) 
nan

>  <PDBbind_Kd/Ki>  (126) 
nan

>  <PDBbind_Kd_Or_Ki_Or_Ic50>  (126) 
nan

>  <PDBbind_Relation>  (126) 
nan

>  <PDBbind_Value>  (126) 
nan

>  <PDBbind_Unit>  (126) 
nan

>  <PDBbind_Standard_Value>  (126) 
nan

>  <PDBbind_Standard_Unit>  (126) 
nan

>  <PDB_Chain>  (126) 
['A']

>  <Num_Ligs>  (126) 
[1.0]

>  <Orthosteric>  (126) 
[1.0]

>  <Allosteric>  (126) 
[0.0]

>  <Pockets_Assigned>  (126) 
['A']

>  <Multisite>  (126) 
[False]

>  <Same_Number>  (126) 
True

>  <Same_Binding_Site>  (126) 
True

>  <Same_Orientation>  (126) 
True

>  <Lig_Order_in_.pdb>  (126) 
Orthosteric

$$$$

     RDKit          2D

 11 11  0  0  0  0  0  0  0  0999 V2000
    1.5000    0.0000    0.0000 C   0  0  0  0  0  0  0  0  0  0  0  0
    0.7500   -1.2990    0.0000 C   0  0  0  0  0  0  0  0  0  0  0  0
   -0.7500   -1.2990    0.0000 C   0  0  0  0  0  0  0  0  0  0  0  0
   -1.5000    0.0000    0.0000 C   0  0  0  0  0  0  0  0  0  0  0  0
   -0.7500    1.2990    0.0000 C   0  0  0  0  0  0  0  0  0  0  0  0
    0.7500    1.2990    0.0000 C   0  0  0  0  0  0  0  0  0  0  0  0
    1.5000    2.5981    0.0000 C   0  0  0  0  0  0  0  0  0  0  0  0
    3.0000    2.5981    0.0000 C   0  0  0  0  0  0  0  0  0  0  0  0
    3.7500    3.8971    0.0000 N   0  0  0  0  0  0  0  0  0  0  0  0
    0.7500    3.8971    0.0000 O   0  0  0  0  0  0  0  0  0  0  0  0
   -1.5000   -2.5981    0.0000 F   0  0  0  0  0  0  0  0  0  0  0  0
  1  2  2  0
  2  3  1  0
  3  4  2  0
  4  5  1  0
  5  6  2  0
  6  7  1  0
  7  8  1  0
  8  9  1  0
  7 10  1  6
  3 11  1  0
  6  1  1  0
M  END
>  <Structure>  (127) 
5N1K

>  <Dataset>  (127) 
PDB

>  <Chain>  (127) 
A

>  <Spatial_Label>  (127) 
DFGin

>  <Dihedral_Label>  (127) 
BLAminus

>  <C_Helix_Label>  (127) 
Chelix-in

>  <Lig_ID>  (127) 
489

>  <Lig_Entity_ID>  (127) 
5N1K_3

>  <Lig_Name>  (127) 
(1S)-2-amino-1-(4-fluorophenyl)ethanol

>  <Lig_Formula>  (127) 
C8H10FNO

>  <Lig_SMILES>  (127) 
c1cc(ccc1[C@@H](CN)O)F

>  <Lig_MW>  (127) 
155.17

>  <Lig_ChEMBL_ID>  (127) 
nan

>  <Lig_DrugBank_ID>  (127) 
nan

>  <Occurence>  (127) 
1.0

>  <Lig_SMILES_Uncharged>  (127) 
NC[C@@H](O)c1ccc(F)cc1

>  <Lig_Conformer>  (127) 
['NaN', 'NaN', 'NaN']

>  <Lig_Of_Interest>  (127) 
['Y', 'Y', 'Y']

>  <Lig_Completeness>  (127) 
[1.0, 0.6364, 0.6364]

>  <Lig_Occupancy>  (127) 
[1.0, 0.6364, 0.6364]

>  <Lig_RSCC>  (127) 
[0.931, 0.705, 0.9]

>  <Lig_RSR>  (127) 
[0.121, 0.239, 0.281]

>  <Lig_RMSZ_Bonds>  (127) 
[0.39, 0.49, 0.92]

>  <Lig_RMSZ_Angles>  (127) 
[0.4, 0.5, 0.48]

>  <Lig_Alt_Conf>  (127) 
0.0

>  <Title>  (127) 
cAMP-dependent Protein Kinase A from Cricetulus griseus in complex with fragment like molecule 2-amino-1-(4-fluorophenyl)ethanol

>  <Nonpolymer_Entity_Count>  (127) 
4.0

>  <Protein_Entity_Count>  (127) 
2.0

>  <Exp_Method>  (127) 
X-Ray Diffraction

>  <Cryst_Method>  (127) 
Vapor Diffusion, Sitting Drop; Mes-Bis-Tris
Mega8-Solution
Dtt
Edta
Licl
Methanol

>  <Deposit_Date>  (127) 
2017-02-06

>  <Resolution>  (127) 
1.8

>  <DOI>  (127) 
nan

>  <Source_Organism>  (127) 
Cricetulus griseus

>  <R_Free>  (127) 
0.2071

>  <Keywords>  (127) 
Transferase

>  <REMARK_280>  (127) 
 Crystal Solvent Content, Vs (%): 55.00 Matthews Coefficient, Vm (Angstroms**3/Da): 2.76 Crystallization Conditions: Mes-Bis-Tris Mega8-Solution Dtt Edta Licl Methanol, pH 6.9, Vapor Diffusion, Sitting Drop, Temperature 277K 

>  <REMARK_610>  (127) 
  489 A 402 489 B 101 

>  <pH>  (127) 
6.9

>  <Cryst_Technique>  (127) 
nan

>  <Sequence>  (127) 
GHMGNAAAAKKGSEQESVKEFLAKAKEEFLKKWESPSQNTAQLDHFDRIKTLGTGSFGRVMLVKHKETGNHYAMKILDKQKVVKLKQIEHTLNEKRILQAVNFPFLVKLEFSFKDNSNLYMVMEYVPGGEMFSHLRRIGRFSEPHARFYAAQIVLTFEYLHSLDLIYRDLKPENLLIDQQGYIQVTDFGFAKRVKGRTWTLCGTPEYLAPEIILSKGYNKAVDWWALGVLIYEMAAGYPPFFADQPIQIYEKIVSGKVRFPSHFSSDLKDLLRNLLQVDLTKRFGNLKNGVNDIKNHKWFATTDWIAIYQRKVEAPFIPKFKGPGDTSNFDDYEEEEIRVSINEKCGKEFTEF

>  <Sequence_Length>  (127) 
353.0

>  <Mutation_Count>  (127) 
0.0

>  <Gene_Name>  (127) 
PKACA

>  <MW>  (127) 
41.114

>  <Name>  (127) 
cAMP-Dependent Protein Kinase Catalytic Subunit Alpha

>  <Mutations>  (127) 
nan

>  <EC_Number>  (127) 
2.7.11.11

>  <Peptidic_Inhibitor>  (127) 
True

>  <Lig_Missing_Atoms>  (127) 
['No', 'No', 'No']

>  <PDBbind_Resolution>  (127) 
nan

>  <PDBbind_Release_Year>  (127) 
nan

>  <PDBbind_Comment>  (127) 
nan

>  <PDBbind_Uniprot_Id>  (127) 
nan

>  <PDBbind_Protein_Name>  (127) 
nan

>  <PDBbind_-Logkd/Ki>  (127) 
nan

>  <PDBbind_Kd/Ki>  (127) 
nan

>  <PDBbind_Kd_Or_Ki_Or_Ic50>  (127) 
nan

>  <PDBbind_Relation>  (127) 
nan

>  <PDBbind_Value>  (127) 
nan

>  <PDBbind_Unit>  (127) 
nan

>  <PDBbind_Standard_Value>  (127) 
nan

>  <PDBbind_Standard_Unit>  (127) 
nan

>  <PDB_Chain>  (127) 
['A', 'B']

>  <Num_Ligs>  (127) 
[2.0, 1.0]

>  <Orthosteric>  (127) 
[1.0, 0.0]

>  <Allosteric>  (127) 
[1.0, 1.0]

>  <Pockets_Assigned>  (127) 
['A, X', 'X']

>  <Multisite>  (127) 
[True, False]

>  <Same_Number>  (127) 
False

>  <Same_Binding_Site>  (127) 
False

>  <Same_Orientation>  (127) 
False

>  <Lig_Order_in_.pdb>  (127) 
Orthosteric, Allosteric; Allosteric

$$$$

     RDKit          2D

 16 17  0  0  0  0  0  0  0  0999 V2000
    4.6740   -7.4303    0.0000 C   0  0  0  0  0  0  0  0  0  0  0  0
    3.3037   -6.8202    0.0000 C   0  0  0  0  0  0  0  0  0  0  0  0
    2.9918   -5.3529    0.0000 C   0  0  0  0  0  0  0  0  0  0  0  0
    1.5000   -5.1962    0.0000 C   0  0  0  0  0  0  0  0  0  0  0  0
    0.8899   -6.5665    0.0000 C   0  0  0  0  0  0  0  0  0  0  0  0
    2.0046   -7.5702    0.0000 O   0  0  0  0  0  0  0  0  0  0  0  0
   -0.5773   -6.8783    0.0000 C   0  0  0  0  0  0  0  0  0  0  0  0
    0.7500   -3.8971    0.0000 C   0  0  0  0  0  0  0  0  0  0  0  0
   -0.7500   -3.8971    0.0000 O   0  0  0  0  0  0  0  0  0  0  0  0
    1.5000   -2.5981    0.0000 N   0  0  0  0  0  0  0  0  0  0  0  0
    0.7500   -1.2990    0.0000 C   0  0  0  0  0  0  0  0  0  0  0  0
    1.5000    0.0000    0.0000 C   0  0  0  0  0  0  0  0  0  0  0  0
    0.7500    1.2990    0.0000 C   0  0  0  0  0  0  0  0  0  0  0  0
   -0.7500    1.2990    0.0000 N   0  0  0  0  0  0  0  0  0  0  0  0
   -1.5000    0.0000    0.0000 C   0  0  0  0  0  0  0  0  0  0  0  0
   -0.7500   -1.2990    0.0000 C   0  0  0  0  0  0  0  0  0  0  0  0
  1  2  1  0
  2  3  2  0
  3  4  1  0
  4  5  2  0
  5  6  1  0
  5  7  1  0
  4  8  1  0
  8  9  2  0
  8 10  1  0
 10 11  1  0
 11 12  2  0
 12 13  1  0
 13 14  2  0
 14 15  1  0
 15 16  2  0
  6  2  1  0
 16 11  1  0
M  END
>  <Structure>  (128) 
5N1L

>  <Dataset>  (128) 
PDB

>  <Chain>  (128) 
A

>  <Spatial_Label>  (128) 
DFGin

>  <Dihedral_Label>  (128) 
BLAminus

>  <C_Helix_Label>  (128) 
Chelix-in

>  <Lig_ID>  (128) 
47V

>  <Lig_Entity_ID>  (128) 
5N1L_3

>  <Lig_Name>  (128) 
2,5-dimethyl-N-(pyridin-4-yl)furan-3-carboxamide

>  <Lig_Formula>  (128) 
C12H12N2O2

>  <Lig_SMILES>  (128) 
Cc1cc(c(o1)C)C(=O)Nc2ccncc2

>  <Lig_MW>  (128) 
216.236

>  <Lig_ChEMBL_ID>  (128) 
['CHEMBL2357735']

>  <Lig_DrugBank_ID>  (128) 
nan

>  <Occurence>  (128) 
1.0

>  <Lig_SMILES_Uncharged>  (128) 
Cc1cc(C(=O)Nc2ccncc2)c(C)o1

>  <Lig_Conformer>  (128) 
['NaN']

>  <Lig_Of_Interest>  (128) 
['Y']

>  <Lig_Completeness>  (128) 
[1.0]

>  <Lig_Occupancy>  (128) 
[0.91]

>  <Lig_RSCC>  (128) 
[0.96]

>  <Lig_RSR>  (128) 
[0.072]

>  <Lig_RMSZ_Bonds>  (128) 
[1.36]

>  <Lig_RMSZ_Angles>  (128) 
[2.23]

>  <Lig_Alt_Conf>  (128) 
0.0

>  <Title>  (128) 
cAMP-dependent Protein Kinase A from Cricetulus griseus in complex with fragment like molecule 2,5-dimethyl-N-pyridin-4-ylfuran-3-carboxamide

>  <Nonpolymer_Entity_Count>  (128) 
4.0

>  <Protein_Entity_Count>  (128) 
2.0

>  <Exp_Method>  (128) 
X-Ray Diffraction

>  <Cryst_Method>  (128) 
Vapor Diffusion, Sitting Drop; Mes-Bis-Tris
Mega8-Solution
Dtt
Edta
Licl
Methanol

>  <Deposit_Date>  (128) 
2017-02-06

>  <Resolution>  (128) 
1.489

>  <DOI>  (128) 
nan

>  <Source_Organism>  (128) 
Cricetulus griseus

>  <R_Free>  (128) 
0.1748

>  <Keywords>  (128) 
Transferase

>  <REMARK_280>  (128) 
 Crystal Solvent Content, Vs (%): 56.00 Matthews Coefficient, Vm (Angstroms**3/Da): 2.82 Crystallization Conditions: Mes-Bis-Tris Mega8-Solution Dtt Edta Licl Methanol, pH 6.9, Vapor Diffusion, Sitting Drop, Temperature 277K 

>  <REMARK_610>  (128) 
nan

>  <pH>  (128) 
6.9

>  <Cryst_Technique>  (128) 
nan

>  <Sequence>  (128) 
GHMGNAAAAKKGSEQESVKEFLAKAKEEFLKKWESPSQNTAQLDHFDRIKTLGTGSFGRVMLVKHKETGNHYAMKILDKQKVVKLKQIEHTLNEKRILQAVNFPFLVKLEFSFKDNSNLYMVMEYVPGGEMFSHLRRIGRFSEPHARFYAAQIVLTFEYLHSLDLIYRDLKPENLLIDQQGYIQVTDFGFAKRVKGRTWTLCGTPEYLAPEIILSKGYNKAVDWWALGVLIYEMAAGYPPFFADQPIQIYEKIVSGKVRFPSHFSSDLKDLLRNLLQVDLTKRFGNLKNGVNDIKNHKWFATTDWIAIYQRKVEAPFIPKFKGPGDTSNFDDYEEEEIRVSINEKCGKEFTEF

>  <Sequence_Length>  (128) 
353.0

>  <Mutation_Count>  (128) 
0.0

>  <Gene_Name>  (128) 
PKACA

>  <MW>  (128) 
41.194

>  <Name>  (128) 
cAMP-Dependent Protein Kinase Catalytic Subunit Alpha

>  <Mutations>  (128) 
nan

>  <EC_Number>  (128) 
2.7.11.11

>  <Peptidic_Inhibitor>  (128) 
True

>  <Lig_Missing_Atoms>  (128) 
['No']

>  <PDBbind_Resolution>  (128) 
nan

>  <PDBbind_Release_Year>  (128) 
nan

>  <PDBbind_Comment>  (128) 
nan

>  <PDBbind_Uniprot_Id>  (128) 
nan

>  <PDBbind_Protein_Name>  (128) 
nan

>  <PDBbind_-Logkd/Ki>  (128) 
nan

>  <PDBbind_Kd/Ki>  (128) 
nan

>  <PDBbind_Kd_Or_Ki_Or_Ic50>  (128) 
nan

>  <PDBbind_Relation>  (128) 
nan

>  <PDBbind_Value>  (128) 
nan

>  <PDBbind_Unit>  (128) 
nan

>  <PDBbind_Standard_Value>  (128) 
nan

>  <PDBbind_Standard_Unit>  (128) 
nan

>  <PDB_Chain>  (128) 
['A']

>  <Num_Ligs>  (128) 
[1.0]

>  <Orthosteric>  (128) 
[1.0]

>  <Allosteric>  (128) 
[0.0]

>  <Pockets_Assigned>  (128) 
['A']

>  <Multisite>  (128) 
[False]

>  <Same_Number>  (128) 
True

>  <Same_Binding_Site>  (128) 
True

>  <Same_Orientation>  (128) 
True

>  <Lig_Order_in_.pdb>  (128) 
Orthosteric

$$$$

     RDKit          2D

 11 11  0  0  0  0  0  0  0  0999 V2000
    3.7500   -1.2990    0.0000 C   0  0  0  0  0  0  0  0  0  0  0  0
    3.0000    0.0000    0.0000 O   0  0  0  0  0  0  0  0  0  0  0  0
    1.5000    0.0000    0.0000 C   0  0  0  0  0  0  0  0  0  0  0  0
    0.7500   -1.2990    0.0000 C   0  0  0  0  0  0  0  0  0  0  0  0
   -0.7500   -1.2990    0.0000 C   0  0  0  0  0  0  0  0  0  0  0  0
   -1.5000    0.0000    0.0000 C   0  0  0  0  0  0  0  0  0  0  0  0
   -0.7500    1.2990    0.0000 C   0  0  0  0  0  0  0  0  0  0  0  0
    0.7500    1.2990    0.0000 C   0  0  0  0  0  0  0  0  0  0  0  0
    1.5000    2.5981    0.0000 O   0  0  0  0  0  0  0  0  0  0  0  0
   -3.0000    0.0000    0.0000 C   0  0  0  0  0  0  0  0  0  0  0  0
   -3.7500    1.2990    0.0000 N   0  0  0  0  0  4  0  0  0  0  0  0
  1  2  1  0
  2  3  1  0
  3  4  2  0
  4  5  1  0
  5  6  2  0
  6  7  1  0
  7  8  2  0
  8  9  1  0
  6 10  1  0
 10 11  1  0
  8  3  1  0
M  CHG  1  11   1
M  END
>  <Structure>  (129) 
5N1M

>  <Dataset>  (129) 
PDB

>  <Chain>  (129) 
A

>  <Spatial_Label>  (129) 
DFGin

>  <Dihedral_Label>  (129) 
BLAminus

>  <C_Helix_Label>  (129) 
Chelix-in

>  <Lig_ID>  (129) 
BJK

>  <Lig_Entity_ID>  (129) 
5N1M_5

>  <Lig_Name>  (129) 
(4-methoxy-3-oxidanyl-phenyl)methylazanium

>  <Lig_Formula>  (129) 
C8H12NO2

>  <Lig_SMILES>  (129) 
COc1ccc(cc1O)C[NH3+]

>  <Lig_MW>  (129) 
154.186

>  <Lig_ChEMBL_ID>  (129) 
nan

>  <Lig_DrugBank_ID>  (129) 
nan

>  <Occurence>  (129) 
1.0

>  <Lig_SMILES_Uncharged>  (129) 
COc1ccc(CN)cc1O

>  <Lig_Conformer>  (129) 
['NaN']

>  <Lig_Of_Interest>  (129) 
['Y']

>  <Lig_Completeness>  (129) 
[1.0]

>  <Lig_Occupancy>  (129) 
[0.81]

>  <Lig_RSCC>  (129) 
[0.707]

>  <Lig_RSR>  (129) 
[0.187]

>  <Lig_RMSZ_Bonds>  (129) 
[0.15]

>  <Lig_RMSZ_Angles>  (129) 
[0.25]

>  <Lig_Alt_Conf>  (129) 
0.0

>  <Title>  (129) 
cAMP-dependent Protein Kinase A from Cricetulus griseus in complex with fragment like molecule (5-chloro-2-methoxyphenyl)methanamine

>  <Nonpolymer_Entity_Count>  (129) 
3.0

>  <Protein_Entity_Count>  (129) 
2.0

>  <Exp_Method>  (129) 
X-Ray Diffraction

>  <Cryst_Method>  (129) 
Vapor Diffusion, Sitting Drop; Mes-Bis-Tris
Mega8-Solution
Dtt
Edta
Licl
Methanol

>  <Deposit_Date>  (129) 
2017-02-06

>  <Resolution>  (129) 
1.436

>  <DOI>  (129) 
nan

>  <Source_Organism>  (129) 
Cricetulus griseus

>  <R_Free>  (129) 
0.1702

>  <Keywords>  (129) 
Transferase

>  <REMARK_280>  (129) 
 Crystal Solvent Content, Vs (%): 57.00 Matthews Coefficient, Vm (Angstroms**3/Da): 2.84 Crystallization Conditions: Mes-Bis-Tris Mega8-Solution Dtt Edta Licl Methanol, pH 6.9, Vapor Diffusion, Sitting Drop, Temperature 277K 

>  <REMARK_610>  (129) 
nan

>  <pH>  (129) 
6.9

>  <Cryst_Technique>  (129) 
nan

>  <Sequence>  (129) 
GHMGNAAAAKKGSEQESVKEFLAKAKEEFLKKWESPSQNTAQLDHFDRIKTLGTGSFGRVMLVKHKETGNHYAMKILDKQKVVKLKQIEHTLNEKRILQAVNFPFLVKLEFSFKDNSNLYMVMEYVPGGEMFSHLRRIGRFSEPHARFYAAQIVLTFEYLHSLDLIYRDLKPENLLIDQQGYIQVTDFGFAKRVKGRTWTLCGTPEYLAPEIILSKGYNKAVDWWALGVLIYEMAAGYPPFFADQPIQIYEKIVSGKVRFPSHFSSDLKDLLRNLLQVDLTKRFGNLKNGVNDIKNHKWFATTDWIAIYQRKVEAPFIPKFKGPGDTSNFDDYEEEEIRVSINEKCGKEFTEF

>  <Sequence_Length>  (129) 
353.0

>  <Mutation_Count>  (129) 
0.0

>  <Gene_Name>  (129) 
PKACA

>  <MW>  (129) 
41.194

>  <Name>  (129) 
cAMP-Dependent Protein Kinase Catalytic Subunit Alpha

>  <Mutations>  (129) 
nan

>  <EC_Number>  (129) 
2.7.11.11

>  <Peptidic_Inhibitor>  (129) 
True

>  <Lig_Missing_Atoms>  (129) 
['No']

>  <PDBbind_Resolution>  (129) 
nan

>  <PDBbind_Release_Year>  (129) 
nan

>  <PDBbind_Comment>  (129) 
nan

>  <PDBbind_Uniprot_Id>  (129) 
nan

>  <PDBbind_Protein_Name>  (129) 
nan

>  <PDBbind_-Logkd/Ki>  (129) 
nan

>  <PDBbind_Kd/Ki>  (129) 
nan

>  <PDBbind_Kd_Or_Ki_Or_Ic50>  (129) 
nan

>  <PDBbind_Relation>  (129) 
nan

>  <PDBbind_Value>  (129) 
nan

>  <PDBbind_Unit>  (129) 
nan

>  <PDBbind_Standard_Value>  (129) 
nan

>  <PDBbind_Standard_Unit>  (129) 
nan

>  <PDB_Chain>  (129) 
['A']

>  <Num_Ligs>  (129) 
[1.0]

>  <Orthosteric>  (129) 
[1.0]

>  <Allosteric>  (129) 
[0.0]

>  <Pockets_Assigned>  (129) 
['A']

>  <Multisite>  (129) 
[False]

>  <Same_Number>  (129) 
True

>  <Same_Binding_Site>  (129) 
True

>  <Same_Orientation>  (129) 
True

>  <Lig_Order_in_.pdb>  (129) 
Orthosteric

$$$$

     RDKit          2D

 11 12  0  0  0  0  0  0  0  0999 V2000
    2.6401   -3.1891    0.0000 C   0  0  0  0  0  0  0  0  0  0  0  0
    1.2135   -2.7256    0.0000 N   0  0  0  0  0  0  0  0  0  0  0  0
    0.0000   -3.6073    0.0000 C   0  0  0  0  0  0  0  0  0  0  0  0
   -1.2135   -2.7256    0.0000 N   0  0  0  0  0  0  0  0  0  0  0  0
   -0.7500   -1.2990    0.0000 C   0  0  0  0  0  0  0  0  0  0  0  0
    0.7500   -1.2990    0.0000 C   0  0  0  0  0  0  0  0  0  0  0  0
    1.5000    0.0000    0.0000 N   0  0  0  0  0  0  0  0  0  0  0  0
    0.7500    1.2990    0.0000 C   0  0  0  0  0  0  0  0  0  0  0  0
   -0.7500    1.2990    0.0000 N   0  0  0  0  0  0  0  0  0  0  0  0
   -1.5000    0.0000    0.0000 C   0  0  0  0  0  0  0  0  0  0  0  0
    1.5000    2.5981    0.0000 Cl  0  0  0  0  0  0  0  0  0  0  0  0
  1  2  1  0
  2  3  1  0
  3  4  2  0
  4  5  1  0
  5  6  2  0
  6  7  1  0
  7  8  2  0
  8  9  1  0
  9 10  2  0
  8 11  1  0
  6  2  1  0
 10  5  1  0
M  END
>  <Structure>  (130) 
5N1N

>  <Dataset>  (130) 
PDB

>  <Chain>  (130) 
A

>  <Spatial_Label>  (130) 
DFGin

>  <Dihedral_Label>  (130) 
BLAminus

>  <C_Helix_Label>  (130) 
Chelix-in

>  <Lig_ID>  (130) 
8G8

>  <Lig_Entity_ID>  (130) 
5N1N_4

>  <Lig_Name>  (130) 
2-chloranyl-9-methyl-purine

>  <Lig_Formula>  (130) 
C6H5ClN4

>  <Lig_SMILES>  (130) 
Cn1cnc2c1nc(nc2)Cl

>  <Lig_MW>  (130) 
168.584

>  <Lig_ChEMBL_ID>  (130) 
nan

>  <Lig_DrugBank_ID>  (130) 
nan

>  <Occurence>  (130) 
1.0

>  <Lig_SMILES_Uncharged>  (130) 
Cn1cnc2cnc(Cl)nc21

>  <Lig_Conformer>  (130) 
['NaN']

>  <Lig_Of_Interest>  (130) 
['Y']

>  <Lig_Completeness>  (130) 
[1.0]

>  <Lig_Occupancy>  (130) 
[0.72]

>  <Lig_RSCC>  (130) 
[0.793]

>  <Lig_RSR>  (130) 
[0.178]

>  <Lig_RMSZ_Bonds>  (130) 
[1.16]

>  <Lig_RMSZ_Angles>  (130) 
[1.29]

>  <Lig_Alt_Conf>  (130) 
0.0

>  <Title>  (130) 
cAMP-dependent Protein Kinase A from Cricetulus griseus in complex with fragment like molecule 2-chloro-9-propan-2-ylpurine

>  <Nonpolymer_Entity_Count>  (130) 
2.0

>  <Protein_Entity_Count>  (130) 
2.0

>  <Exp_Method>  (130) 
X-Ray Diffraction

>  <Cryst_Method>  (130) 
Vapor Diffusion, Sitting Drop; Mes-Bis-Tris
Mega8-Solution
Dtt
Edta
Licl
Methanol

>  <Deposit_Date>  (130) 
2017-02-06

>  <Resolution>  (130) 
1.405

>  <DOI>  (130) 
nan

>  <Source_Organism>  (130) 
Cricetulus griseus

>  <R_Free>  (130) 
0.1789

>  <Keywords>  (130) 
Transferase

>  <REMARK_280>  (130) 
 Crystal Solvent Content, Vs (%): 56.00 Matthews Coefficient, Vm (Angstroms**3/Da): 2.82 Crystallization Conditions: Mes-Bis-Tris Mega8-Solution Dtt Edta Licl Methanol, pH 6.9, Vapor Diffusion, Sitting Drop, Temperature 277K 

>  <REMARK_610>  (130) 
nan

>  <pH>  (130) 
6.9

>  <Cryst_Technique>  (130) 
nan

>  <Sequence>  (130) 
GHMGNAAAAKKGSEQESVKEFLAKAKEEFLKKWESPSQNTAQLDHFDRIKTLGTGSFGRVMLVKHKETGNHYAMKILDKQKVVKLKQIEHTLNEKRILQAVNFPFLVKLEFSFKDNSNLYMVMEYVPGGEMFSHLRRIGRFSEPHARFYAAQIVLTFEYLHSLDLIYRDLKPENLLIDQQGYIQVTDFGFAKRVKGRTWTLCGTPEYLAPEIILSKGYNKAVDWWALGVLIYEMAAGYPPFFADQPIQIYEKIVSGKVRFPSHFSSDLKDLLRNLLQVDLTKRFGNLKNGVNDIKNHKWFATTDWIAIYQRKVEAPFIPKFKGPGDTSNFDDYEEEEIRVSINEKCGKEFTEF

>  <Sequence_Length>  (130) 
353.0

>  <Mutation_Count>  (130) 
0.0

>  <Gene_Name>  (130) 
PKACA

>  <MW>  (130) 
41.194

>  <Name>  (130) 
cAMP-Dependent Protein Kinase Catalytic Subunit Alpha

>  <Mutations>  (130) 
nan

>  <EC_Number>  (130) 
2.7.11.11

>  <Peptidic_Inhibitor>  (130) 
True

>  <Lig_Missing_Atoms>  (130) 
['No']

>  <PDBbind_Resolution>  (130) 
nan

>  <PDBbind_Release_Year>  (130) 
nan

>  <PDBbind_Comment>  (130) 
nan

>  <PDBbind_Uniprot_Id>  (130) 
nan

>  <PDBbind_Protein_Name>  (130) 
nan

>  <PDBbind_-Logkd/Ki>  (130) 
nan

>  <PDBbind_Kd/Ki>  (130) 
nan

>  <PDBbind_Kd_Or_Ki_Or_Ic50>  (130) 
nan

>  <PDBbind_Relation>  (130) 
nan

>  <PDBbind_Value>  (130) 
nan

>  <PDBbind_Unit>  (130) 
nan

>  <PDBbind_Standard_Value>  (130) 
nan

>  <PDBbind_Standard_Unit>  (130) 
nan

>  <PDB_Chain>  (130) 
['A']

>  <Num_Ligs>  (130) 
[1.0]

>  <Orthosteric>  (130) 
[0.0]

>  <Allosteric>  (130) 
[1.0]

>  <Pockets_Assigned>  (130) 
['X']

>  <Multisite>  (130) 
[False]

>  <Same_Number>  (130) 
True

>  <Same_Binding_Site>  (130) 
True

>  <Same_Orientation>  (130) 
True

>  <Lig_Order_in_.pdb>  (130) 
Allosteric

$$$$

     RDKit          2D

 13 13  0  0  0  0  0  0  0  0999 V2000
    3.7500   -1.2990    0.0000 C   0  0  0  0  0  0  0  0  0  0  0  0
    3.0000    0.0000    0.0000 C   0  0  0  0  0  0  0  0  0  0  0  0
    3.7500    1.2990    0.0000 O   0  0  0  0  0  0  0  0  0  0  0  0
    1.5000    0.0000    0.0000 C   0  0  0  0  0  0  0  0  0  0  0  0
    0.7500   -1.2990    0.0000 C   0  0  0  0  0  0  0  0  0  0  0  0
   -0.7500   -1.2990    0.0000 C   0  0  0  0  0  0  0  0  0  0  0  0
   -1.5000    0.0000    0.0000 C   0  0  0  0  0  0  0  0  0  0  0  0
   -0.7500    1.2990    0.0000 C   0  0  0  0  0  0  0  0  0  0  0  0
    0.7500    1.2990    0.0000 C   0  0  0  0  0  0  0  0  0  0  0  0
    1.5000    2.5981    0.0000 O   0  0  0  0  0  0  0  0  0  0  0  0
   -1.5000    2.5981    0.0000 C   0  0  0  0  0  0  0  0  0  0  0  0
   -0.7500    3.8971    0.0000 Cl  0  0  0  0  0  0  0  0  0  0  0  0
   -1.5000   -2.5981    0.0000 Cl  0  0  0  0  0  0  0  0  0  0  0  0
  1  2  1  0
  2  3  2  0
  2  4  1  0
  4  5  2  0
  5  6  1  0
  6  7  2  0
  7  8  1  0
  8  9  2  0
  9 10  1  0
  8 11  1  0
 11 12  1  0
  6 13  1  0
  9  4  1  0
M  END
>  <Structure>  (131) 
5N1O

>  <Dataset>  (131) 
PDB

>  <Chain>  (131) 
A

>  <Spatial_Label>  (131) 
DFGin

>  <Dihedral_Label>  (131) 
BLAminus

>  <C_Helix_Label>  (131) 
Chelix-in

>  <Lig_ID>  (131) 
8GB

>  <Lig_Entity_ID>  (131) 
5N1O_4

>  <Lig_Name>  (131) 
1-[5-chloranyl-3-(chloromethyl)-2-oxidanyl-phenyl]ethanone

>  <Lig_Formula>  (131) 
C9H8Cl2O2

>  <Lig_SMILES>  (131) 
CC(=O)c1cc(cc(c1O)CCl)Cl

>  <Lig_MW>  (131) 
219.065

>  <Lig_ChEMBL_ID>  (131) 
nan

>  <Lig_DrugBank_ID>  (131) 
nan

>  <Occurence>  (131) 
1.0

>  <Lig_SMILES_Uncharged>  (131) 
CC(=O)c1cc(Cl)cc(CCl)c1O

>  <Lig_Conformer>  (131) 
['NaN']

>  <Lig_Of_Interest>  (131) 
['Y']

>  <Lig_Completeness>  (131) 
[1.0]

>  <Lig_Occupancy>  (131) 
[0.75]

>  <Lig_RSCC>  (131) 
[0.841]

>  <Lig_RSR>  (131) 
[0.165]

>  <Lig_RMSZ_Bonds>  (131) 
[0.42]

>  <Lig_RMSZ_Angles>  (131) 
[0.4]

>  <Lig_Alt_Conf>  (131) 
0.0

>  <Title>  (131) 
cAMP-dependent Protein Kinase A from Cricetulus griseus in complex with fragment like molecule 2-chloro-4-(chloromethyl)-5-hydroxyphenyl)ethan-1-one

>  <Nonpolymer_Entity_Count>  (131) 
2.0

>  <Protein_Entity_Count>  (131) 
2.0

>  <Exp_Method>  (131) 
X-Ray Diffraction

>  <Cryst_Method>  (131) 
Vapor Diffusion, Sitting Drop; Mes-Bis-Tris
Mega8-Solution
Dtt
Edta
Licl
Methanol

>  <Deposit_Date>  (131) 
2017-02-06

>  <Resolution>  (131) 
1.8

>  <DOI>  (131) 
nan

>  <Source_Organism>  (131) 
Cricetulus griseus

>  <R_Free>  (131) 
0.1911

>  <Keywords>  (131) 
Transferase

>  <REMARK_280>  (131) 
 Crystal Solvent Content, Vs (%): 57.00 Matthews Coefficient, Vm (Angstroms**3/Da): 2.85 Crystallization Conditions: Mes-Bis-Tris Mega8-Solution Dtt Edta Licl Methanol, pH 6.9, Vapor Diffusion, Sitting Drop, Temperature 277K 

>  <REMARK_610>  (131) 
nan

>  <pH>  (131) 
6.9

>  <Cryst_Technique>  (131) 
nan

>  <Sequence>  (131) 
GHMGNAAAAKKGSEQESVKEFLAKAKEEFLKKWESPSQNTAQLDHFDRIKTLGTGSFGRVMLVKHKETGNHYAMKILDKQKVVKLKQIEHTLNEKRILQAVNFPFLVKLEFSFKDNSNLYMVMEYVPGGEMFSHLRRIGRFSEPHARFYAAQIVLTFEYLHSLDLIYRDLKPENLLIDQQGYIQVTDFGFAKRVKGRTWTLCGTPEYLAPEIILSKGYNKAVDWWALGVLIYEMAAGYPPFFADQPIQIYEKIVSGKVRFPSHFSSDLKDLLRNLLQVDLTKRFGNLKNGVNDIKNHKWFATTDWIAIYQRKVEAPFIPKFKGPGDTSNFDDYEEEEIRVSINEKCGKEFTEF

>  <Sequence_Length>  (131) 
353.0

>  <Mutation_Count>  (131) 
0.0

>  <Gene_Name>  (131) 
PKACA

>  <MW>  (131) 
41.194

>  <Name>  (131) 
cAMP-Dependent Protein Kinase Catalytic Subunit Alpha

>  <Mutations>  (131) 
nan

>  <EC_Number>  (131) 
2.7.11.11

>  <Peptidic_Inhibitor>  (131) 
True

>  <Lig_Missing_Atoms>  (131) 
['No']

>  <PDBbind_Resolution>  (131) 
nan

>  <PDBbind_Release_Year>  (131) 
nan

>  <PDBbind_Comment>  (131) 
nan

>  <PDBbind_Uniprot_Id>  (131) 
nan

>  <PDBbind_Protein_Name>  (131) 
nan

>  <PDBbind_-Logkd/Ki>  (131) 
nan

>  <PDBbind_Kd/Ki>  (131) 
nan

>  <PDBbind_Kd_Or_Ki_Or_Ic50>  (131) 
nan

>  <PDBbind_Relation>  (131) 
nan

>  <PDBbind_Value>  (131) 
nan

>  <PDBbind_Unit>  (131) 
nan

>  <PDBbind_Standard_Value>  (131) 
nan

>  <PDBbind_Standard_Unit>  (131) 
nan

>  <PDB_Chain>  (131) 
['A']

>  <Num_Ligs>  (131) 
[1.0]

>  <Orthosteric>  (131) 
[1.0]

>  <Allosteric>  (131) 
[0.0]

>  <Pockets_Assigned>  (131) 
['A']

>  <Multisite>  (131) 
[False]

>  <Same_Number>  (131) 
True

>  <Same_Binding_Site>  (131) 
True

>  <Same_Orientation>  (131) 
True

>  <Lig_Order_in_.pdb>  (131) 
Orthosteric

$$$$

     RDKit          2D

 28 32  0  0  0  0  0  0  0  0999 V2000
    1.5000    0.0000    0.0000 C   0  0  0  0  0  0  0  0  0  0  0  0
    0.7500   -1.2990    0.0000 C   0  0  0  0  0  0  0  0  0  0  0  0
   -0.7500   -1.2990    0.0000 C   0  0  0  0  0  0  0  0  0  0  0  0
   -1.5000    0.0000    0.0000 C   0  0  0  0  0  0  0  0  0  0  0  0
   -0.7500    1.2990    0.0000 C   0  0  0  0  0  0  0  0  0  0  0  0
    0.7500    1.2990    0.0000 C   0  0  0  0  0  0  0  0  0  0  0  0
    1.5000    2.5981    0.0000 C   0  0  0  0  0  0  0  0  0  0  0  0
    3.0000    2.5981    0.0000 N   0  0  0  0  0  0  0  0  0  0  0  0
    3.7500    1.2990    0.0000 C   0  0  0  0  0  0  0  0  0  0  0  0
    5.2500    1.2990    0.0000 C   0  0  0  0  0  0  0  0  0  0  0  0
    6.0000    2.5981    0.0000 O   0  0  0  0  0  0  0  0  0  0  0  0
    5.2500    3.8971    0.0000 C   0  0  0  0  0  0  0  0  0  0  0  0
    3.7500    3.8971    0.0000 C   0  0  0  0  0  0  0  0  0  0  0  0
   -2.9672   -0.3119    0.0000 N   0  0  0  0  0  0  0  0  0  0  0  0
   -3.1240   -1.8037    0.0000 C   0  0  0  0  0  0  0  0  0  0  0  0
   -1.7537   -2.4138    0.0000 N   0  0  0  0  0  0  0  0  0  0  0  0
   -4.4231   -2.5537    0.0000 C   0  0  0  0  0  0  0  0  0  0  0  0
   -4.5798   -4.0454    0.0000 C   0  0  0  0  0  0  0  0  0  0  0  0
   -6.0471   -4.3573    0.0000 C   0  0  0  0  0  0  0  0  0  0  0  0
   -6.7971   -3.0583    0.0000 N   0  0  0  0  0  0  0  0  0  0  0  0
   -5.7934   -1.9435    0.0000 N   0  0  0  0  0  0  0  0  0  0  0  0
   -3.4651   -5.0491    0.0000 N   0  0  0  0  0  0  0  0  0  0  0  0
   -3.7770   -6.5164    0.0000 C   0  0  0  0  0  0  0  0  0  0  0  0
   -5.2036   -6.9799    0.0000 O   0  0  0  0  0  0  0  0  0  0  0  0
   -2.6623   -7.5200    0.0000 N   0  0  0  0  0  0  0  0  0  0  0  0
   -2.9741   -8.9873    0.0000 C   0  0  0  0  0  0  0  0  0  0  0  0
   -2.5106  -10.4139    0.0000 C   0  0  0  0  0  0  0  0  0  0  0  0
   -3.9778  -10.1020    0.0000 C   0  0  0  0  0  0  0  0  0  0  0  0
  1  2  2  0
  2  3  1  0
  3  4  2  0
  4  5  1  0
  5  6  2  0
  6  7  1  0
  7  8  1  0
  8  9  1  0
  9 10  1  0
 10 11  1  0
 11 12  1  0
 12 13  1  0
  4 14  1  0
 14 15  2  0
 15 16  1  0
 15 17  1  0
 17 18  1  0
 18 19  2  0
 19 20  1  0
 20 21  1  0
 18 22  1  0
 22 23  1  0
 23 24  2  0
 23 25  1  0
 25 26  1  0
 26 27  1  0
 27 28  1  0
  6  1  1  0
 16  3  1  0
 13  8  1  0
 21 17  2  0
 28 26  1  0
M  END
>  <Structure>  (132) 
5N23

>  <Dataset>  (132) 
PDB

>  <Chain>  (132) 
A

>  <Spatial_Label>  (132) 
DFGin

>  <Dihedral_Label>  (132) 
BLAminus

>  <C_Helix_Label>  (132) 
Chelix-in

>  <Lig_ID>  (132) 
35R

>  <Lig_Entity_ID>  (132) 
5N23_3

>  <Lig_Name>  (132) 
1-cyclopropyl-3-{3-[5-(morpholin-4-ylmethyl)-1H-benzimidazol-2-yl]-1H-pyrazol-4-yl}urea

>  <Lig_Formula>  (132) 
C19H23N7O2

>  <Lig_SMILES>  (132) 
c1cc2c(cc1CN3CCOCC3)nc([nH]2)c4c(c[nH]n4)NC(=O)NC5CC5

>  <Lig_MW>  (132) 
381.432

>  <Lig_ChEMBL_ID>  (132) 
['CHEMBL495727']

>  <Lig_DrugBank_ID>  (132) 
['DB05169']

>  <Occurence>  (132) 
1.0

>  <Lig_SMILES_Uncharged>  (132) 
O=C(Nc1c[nH]nc1-c1nc2cc(CN3CCOCC3)ccc2[nH]1)NC1CC1

>  <Lig_Conformer>  (132) 
['A', 'B']

>  <Lig_Of_Interest>  (132) 
['Y', 'Y']

>  <Lig_Completeness>  (132) 
[1.0, 1.0]

>  <Lig_Occupancy>  (132) 
[0.61, 0.39]

>  <Lig_RSCC>  (132) 
[0.887, 0.887]

>  <Lig_RSR>  (132) 
[0.172, 0.172]

>  <Lig_RMSZ_Bonds>  (132) 
[2.73, 2.82]

>  <Lig_RMSZ_Angles>  (132) 
[1.27, 1.42]

>  <Lig_Alt_Conf>  (132) 
2.0

>  <Title>  (132) 
Protein kinase A mutants as surrogate model for Aurora B with AT9283 inhibitor

>  <Nonpolymer_Entity_Count>  (132) 
1.0

>  <Protein_Entity_Count>  (132) 
2.0

>  <Exp_Method>  (132) 
X-Ray Diffraction

>  <Cryst_Method>  (132) 
Vapor Diffusion, Hanging Drop; 12-26 % (V/V) Methanol

>  <Deposit_Date>  (132) 
2017-02-07

>  <Resolution>  (132) 
2.088

>  <DOI>  (132) 
nan

>  <Source_Organism>  (132) 
Homo sapiens

>  <R_Free>  (132) 
0.239

>  <Keywords>  (132) 
Transferase

>  <REMARK_280>  (132) 
 Crystal Solvent Content, Vs (%): 50.87 Matthews Coefficient, Vm (Angstroms**3/Da): 2.50 Crystallization Conditions: 12-26 % (V/V) Methanol, pH 7.5, Vapor Diffusion, Hanging Drop, Temperature 277.15K 

>  <REMARK_610>  (132) 
nan

>  <pH>  (132) 
7.5

>  <Cryst_Technique>  (132) 
nan

>  <Sequence>  (132) 
MGNAAAAKKGSEQESVKEFLAKAKEDFLKKWESPAQNTAHLDQFERIRTLGTGSFGRVMLVKHKETGNHYAMKILDKQKVVKLKQIEHTLNEKRIQQAVNFPFLVKLEFSFKDNSNLYMVLEYAPGGEMFSHLRRIGRFSEPHARFYAAQIVLTFEYLHSLDLIYRDLKPENLLIDQQGYIKVADFGFAKRVKGRTPWTLCGTPEYLAPEIILSKGYNKAVDWWALGVLIYEMAAGYPPFFADQPIQIYEKIVSGKVRFPSHFSSDLKDLLRNLLQVDLTKRFGNLKNGVNDIKNHKWFATTDWIAIYQRKVEAPFIPKFKGPGDTSNFDDYEEEEIRVSINEKCGKEFSEF

>  <Sequence_Length>  (132) 
352.0

>  <Mutation_Count>  (132) 
6.0

>  <Gene_Name>  (132) 
PKACA

>  <MW>  (132) 
41.034

>  <Name>  (132) 
cAMP-Dependent Protein Kinase Catalytic Subunit Alpha

>  <Mutations>  (132) 
K47R, L95Q, M120L, V123A, Q181K,T183A

>  <EC_Number>  (132) 
2.7.11.11

>  <Peptidic_Inhibitor>  (132) 
True

>  <Lig_Missing_Atoms>  (132) 
['No', 'No']

>  <PDBbind_Resolution>  (132) 
nan

>  <PDBbind_Release_Year>  (132) 
nan

>  <PDBbind_Comment>  (132) 
nan

>  <PDBbind_Uniprot_Id>  (132) 
nan

>  <PDBbind_Protein_Name>  (132) 
nan

>  <PDBbind_-Logkd/Ki>  (132) 
nan

>  <PDBbind_Kd/Ki>  (132) 
nan

>  <PDBbind_Kd_Or_Ki_Or_Ic50>  (132) 
nan

>  <PDBbind_Relation>  (132) 
nan

>  <PDBbind_Value>  (132) 
nan

>  <PDBbind_Unit>  (132) 
nan

>  <PDBbind_Standard_Value>  (132) 
nan

>  <PDBbind_Standard_Unit>  (132) 
nan

>  <PDB_Chain>  (132) 
['A']

>  <Num_Ligs>  (132) 
[1.0]

>  <Orthosteric>  (132) 
[1.0]

>  <Allosteric>  (132) 
[0.0]

>  <Pockets_Assigned>  (132) 
['A']

>  <Multisite>  (132) 
[False]

>  <Same_Number>  (132) 
True

>  <Same_Binding_Site>  (132) 
True

>  <Same_Orientation>  (132) 
True

>  <Lig_Order_in_.pdb>  (132) 
Orthosteric

$$$$

     RDKit          2D

 12 12  0  0  0  0  0  0  0  0999 V2000
    1.5000    0.0000    0.0000 C   0  0  0  0  0  0  0  0  0  0  0  0
    0.7500   -1.2990    0.0000 C   0  0  0  0  0  0  0  0  0  0  0  0
   -0.7500   -1.2990    0.0000 C   0  0  0  0  0  0  0  0  0  0  0  0
   -1.5000    0.0000    0.0000 C   0  0  0  0  0  0  0  0  0  0  0  0
   -0.7500    1.2990    0.0000 C   0  0  0  0  0  0  0  0  0  0  0  0
    0.7500    1.2990    0.0000 C   0  0  0  0  0  0  0  0  0  0  0  0
    1.5000    2.5981    0.0000 C   0  0  0  0  0  0  0  0  0  0  0  0
    3.0000    2.5981    0.0000 S   0  0  0  0  0  0  0  0  0  0  0  0
    3.7500    3.8971    0.0000 C   0  0  0  0  0  0  0  0  0  0  0  0
    3.0000    5.1962    0.0000 N   0  0  0  0  0  4  0  0  0  0  0  0
    5.2500    3.8971    0.0000 N   0  0  0  0  0  0  0  0  0  0  0  0
   -1.5000   -2.5981    0.0000 Cl  0  0  0  0  0  0  0  0  0  0  0  0
  1  2  2  0
  2  3  1  0
  3  4  2  0
  4  5  1  0
  5  6  2  0
  6  7  1  0
  7  8  1  0
  8  9  1  0
  9 10  2  0
  9 11  1  0
  3 12  1  0
  6  1  1  0
M  CHG  1  10   1
M  END
>  <Structure>  (133) 
5N32

>  <Dataset>  (133) 
PDB

>  <Chain>  (133) 
A

>  <Spatial_Label>  (133) 
DFGin

>  <Dihedral_Label>  (133) 
BLAminus

>  <C_Helix_Label>  (133) 
Chelix-in

>  <Lig_ID>  (133) 
8K5

>  <Lig_Entity_ID>  (133) 
5N32_3

>  <Lig_Name>  (133) 
[azanyl-[(4-chlorophenyl)methylsulfanyl]methylidene]azanium

>  <Lig_Formula>  (133) 
C8H10ClN2S

>  <Lig_SMILES>  (133) 
c1cc(ccc1CSC(=[NH2+])N)Cl

>  <Lig_MW>  (133) 
201.696

>  <Lig_ChEMBL_ID>  (133) 
nan

>  <Lig_DrugBank_ID>  (133) 
nan

>  <Occurence>  (133) 
1.0

>  <Lig_SMILES_Uncharged>  (133) 
N=C(N)SCc1ccc(Cl)cc1

>  <Lig_Conformer>  (133) 
['NaN', 'NaN']

>  <Lig_Of_Interest>  (133) 
['Y', 'Y']

>  <Lig_Completeness>  (133) 
[1.0, 1.0]

>  <Lig_Occupancy>  (133) 
[1.0, 1.0]

>  <Lig_RSCC>  (133) 
[0.861, 0.798]

>  <Lig_RSR>  (133) 
[0.225, 0.162]

>  <Lig_RMSZ_Bonds>  (133) 
[0.57, 0.64]

>  <Lig_RMSZ_Angles>  (133) 
[0.71, 0.83]

>  <Lig_Alt_Conf>  (133) 
0.0

>  <Title>  (133) 
cAMP-dependent Protein Kinase A from Cricetulus griseus in complex with fragment like molecule 4-chlorobenzyl carbamimidothioate

>  <Nonpolymer_Entity_Count>  (133) 
3.0

>  <Protein_Entity_Count>  (133) 
2.0

>  <Exp_Method>  (133) 
X-Ray Diffraction

>  <Cryst_Method>  (133) 
Vapor Diffusion, Sitting Drop; Mes-Bis-Tris
Mega8-Solution
Dtt
Edta
Licl
Methanol

>  <Deposit_Date>  (133) 
2017-02-08

>  <Resolution>  (133) 
1.833

>  <DOI>  (133) 
nan

>  <Source_Organism>  (133) 
Cricetulus griseus

>  <R_Free>  (133) 
0.2138

>  <Keywords>  (133) 
Transferase

>  <REMARK_280>  (133) 
 Crystal Solvent Content, Vs (%): 57.00 Matthews Coefficient, Vm (Angstroms**3/Da): 2.83 Crystallization Conditions: Mes-Bis-Tris Mega8-Solution Dtt Edta Licl Methanol, pH 6.9, Vapor Diffusion, Sitting Drop, Temperature 277K 

>  <REMARK_610>  (133) 
nan

>  <pH>  (133) 
6.9

>  <Cryst_Technique>  (133) 
nan

>  <Sequence>  (133) 
GHMGNAAAAKKGSEQESVKEFLAKAKEEFLKKWESPSQNTAQLDHFDRIKTLGTGSFGRVMLVKHKETGNHYAMKILDKQKVVKLKQIEHTLNEKRILQAVNFPFLVKLEFSFKDNSNLYMVMEYVPGGEMFSHLRRIGRFSEPHARFYAAQIVLTFEYLHSLDLIYRDLKPENLLIDQQGYIQVTDFGFAKRVKGRTWTLCGTPEYLAPEIILSKGYNKAVDWWALGVLIYEMAAGYPPFFADQPIQIYEKIVSGKVRFPSHFSSDLKDLLRNLLQVDLTKRFGNLKNGVNDIKNHKWFATTDWIAIYQRKVEAPFIPKFKGPGDTSNFDDYEEEEIRVSINEKCGKEFTEF

>  <Sequence_Length>  (133) 
353.0

>  <Mutation_Count>  (133) 
0.0

>  <Gene_Name>  (133) 
PKACA

>  <MW>  (133) 
41.114

>  <Name>  (133) 
cAMP-Dependent Protein Kinase Catalytic Subunit Alpha

>  <Mutations>  (133) 
nan

>  <EC_Number>  (133) 
2.7.11.11

>  <Peptidic_Inhibitor>  (133) 
True

>  <Lig_Missing_Atoms>  (133) 
['No', 'No']

>  <PDBbind_Resolution>  (133) 
nan

>  <PDBbind_Release_Year>  (133) 
nan

>  <PDBbind_Comment>  (133) 
nan

>  <PDBbind_Uniprot_Id>  (133) 
nan

>  <PDBbind_Protein_Name>  (133) 
nan

>  <PDBbind_-Logkd/Ki>  (133) 
nan

>  <PDBbind_Kd/Ki>  (133) 
nan

>  <PDBbind_Kd_Or_Ki_Or_Ic50>  (133) 
nan

>  <PDBbind_Relation>  (133) 
nan

>  <PDBbind_Value>  (133) 
nan

>  <PDBbind_Unit>  (133) 
nan

>  <PDBbind_Standard_Value>  (133) 
nan

>  <PDBbind_Standard_Unit>  (133) 
nan

>  <PDB_Chain>  (133) 
['A']

>  <Num_Ligs>  (133) 
[2.0]

>  <Orthosteric>  (133) 
[1.0]

>  <Allosteric>  (133) 
[1.0]

>  <Pockets_Assigned>  (133) 
['A, X']

>  <Multisite>  (133) 
[True]

>  <Same_Number>  (133) 
True

>  <Same_Binding_Site>  (133) 
True

>  <Same_Orientation>  (133) 
True

>  <Lig_Order_in_.pdb>  (133) 
Orthosteric, Allosteric

$$$$

     RDKit          2D

 12 12  0  0  0  0  0  0  0  0999 V2000
    1.5000    0.0000    0.0000 C   0  0  0  0  0  0  0  0  0  0  0  0
    0.7500   -1.2990    0.0000 C   0  0  0  0  0  0  0  0  0  0  0  0
   -0.7500   -1.2990    0.0000 C   0  0  0  0  0  0  0  0  0  0  0  0
   -1.5000   -2.5981    0.0000 O   0  0  0  0  0  0  0  0  0  0  0  0
   -1.5000    0.0000    0.0000 N   0  0  0  0  0  0  0  0  0  0  0  0
   -0.7500    1.2990    0.0000 C   0  0  0  0  0  0  0  0  0  0  0  0
    0.7500    1.2990    0.0000 C   0  0  0  0  0  0  0  0  0  0  0  0
    1.5000    2.5981    0.0000 C   0  0  0  0  0  0  0  0  0  0  0  0
    2.2500    3.8971    0.0000 F   0  0  0  0  0  0  0  0  0  0  0  0
    2.7990    1.8481    0.0000 F   0  0  0  0  0  0  0  0  0  0  0  0
    0.2010    3.3481    0.0000 F   0  0  0  0  0  0  0  0  0  0  0  0
    1.5000   -2.5981    0.0000 N   0  0  0  0  0  0  0  0  0  0  0  0
  1  2  2  0
  2  3  1  0
  3  4  2  0
  3  5  1  0
  5  6  1  0
  6  7  2  0
  7  8  1  0
  8  9  1  0
  8 10  1  0
  8 11  1  0
  2 12  1  0
  7  1  1  0
M  END
>  <Structure>  (134) 
5N33

>  <Dataset>  (134) 
PDB

>  <Chain>  (134) 
A

>  <Spatial_Label>  (134) 
DFGin

>  <Dihedral_Label>  (134) 
BLAminus

>  <C_Helix_Label>  (134) 
Chelix-in

>  <Lig_ID>  (134) 
8JW

>  <Lig_Entity_ID>  (134) 
5N33_3

>  <Lig_Name>  (134) 
3-azanyl-5-(trifluoromethyl)-1~{H}-pyridin-2-one

>  <Lig_Formula>  (134) 
C6H5F3N2O

>  <Lig_SMILES>  (134) 
C1=C(C(=O)NC=C1C(F)(F)F)N

>  <Lig_MW>  (134) 
178.112

>  <Lig_ChEMBL_ID>  (134) 
nan

>  <Lig_DrugBank_ID>  (134) 
nan

>  <Occurence>  (134) 
1.0

>  <Lig_SMILES_Uncharged>  (134) 
Nc1cc(C(F)(F)F)c[nH]c1=O

>  <Lig_Conformer>  (134) 
['NaN']

>  <Lig_Of_Interest>  (134) 
['Y']

>  <Lig_Completeness>  (134) 
[1.0]

>  <Lig_Occupancy>  (134) 
[1.0]

>  <Lig_RSCC>  (134) 
[0.972]

>  <Lig_RSR>  (134) 
[0.061]

>  <Lig_RMSZ_Bonds>  (134) 
[0.36]

>  <Lig_RMSZ_Angles>  (134) 
[1.49]

>  <Lig_Alt_Conf>  (134) 
0.0

>  <Title>  (134) 
cAMP-dependent Protein Kinase A from Cricetulus griseus in complex with fragment like molecule 3-amino-5-(trifluoromethyl)-1H-pyridin-2-one

>  <Nonpolymer_Entity_Count>  (134) 
3.0

>  <Protein_Entity_Count>  (134) 
2.0

>  <Exp_Method>  (134) 
X-Ray Diffraction

>  <Cryst_Method>  (134) 
Vapor Diffusion, Sitting Drop; Mes-Bis-Tris
Mega8-Solution
Dtt
Edta
Licl
Methanol

>  <Deposit_Date>  (134) 
2017-02-08

>  <Resolution>  (134) 
1.434

>  <DOI>  (134) 
https://doi.org/10.1002/anie.202011295

>  <Source_Organism>  (134) 
Cricetulus griseus

>  <R_Free>  (134) 
0.1737

>  <Keywords>  (134) 
Transferase

>  <REMARK_280>  (134) 
 Crystal Solvent Content, Vs (%): 57.00 Matthews Coefficient, Vm (Angstroms**3/Da): 2.83 Crystallization Conditions: Mes-Bis-Tris Mega8-Solution Dtt Edta Licl Methanol, pH 6.9, Vapor Diffusion, Sitting Drop, Temperature 277K 

>  <REMARK_610>  (134) 
nan

>  <pH>  (134) 
6.9

>  <Cryst_Technique>  (134) 
soaked

>  <Sequence>  (134) 
GHMGNAAAAKKGSEQESVKEFLAKAKEEFLKKWESPSQNTAQLDHFDRIKTLGTGSFGRVMLVKHKETGNHYAMKILDKQKVVKLKQIEHTLNEKRILQAVNFPFLVKLEFSFKDNSNLYMVMEYVPGGEMFSHLRRIGRFSEPHARFYAAQIVLTFEYLHSLDLIYRDLKPENLLIDQQGYIQVTDFGFAKRVKGRTWTLCGTPEYLAPEIILSKGYNKAVDWWALGVLIYEMAAGYPPFFADQPIQIYEKIVSGKVRFPSHFSSDLKDLLRNLLQVDLTKRFGNLKNGVNDIKNHKWFATTDWIAIYQRKVEAPFIPKFKGPGDTSNFDDYEEEEIRVSINEKCGKEFTEF

>  <Sequence_Length>  (134) 
353.0

>  <Mutation_Count>  (134) 
0.0

>  <Gene_Name>  (134) 
PKACA

>  <MW>  (134) 
41.194

>  <Name>  (134) 
cAMP-Dependent Protein Kinase Catalytic Subunit Alpha

>  <Mutations>  (134) 
nan

>  <EC_Number>  (134) 
2.7.11.11

>  <Peptidic_Inhibitor>  (134) 
True

>  <Lig_Missing_Atoms>  (134) 
['No']

>  <PDBbind_Resolution>  (134) 
nan

>  <PDBbind_Release_Year>  (134) 
nan

>  <PDBbind_Comment>  (134) 
nan

>  <PDBbind_Uniprot_Id>  (134) 
nan

>  <PDBbind_Protein_Name>  (134) 
nan

>  <PDBbind_-Logkd/Ki>  (134) 
nan

>  <PDBbind_Kd/Ki>  (134) 
nan

>  <PDBbind_Kd_Or_Ki_Or_Ic50>  (134) 
nan

>  <PDBbind_Relation>  (134) 
nan

>  <PDBbind_Value>  (134) 
nan

>  <PDBbind_Unit>  (134) 
nan

>  <PDBbind_Standard_Value>  (134) 
nan

>  <PDBbind_Standard_Unit>  (134) 
nan

>  <PDB_Chain>  (134) 
['A']

>  <Num_Ligs>  (134) 
[1.0]

>  <Orthosteric>  (134) 
[1.0]

>  <Allosteric>  (134) 
[0.0]

>  <Pockets_Assigned>  (134) 
['A']

>  <Multisite>  (134) 
[False]

>  <Same_Number>  (134) 
True

>  <Same_Binding_Site>  (134) 
True

>  <Same_Orientation>  (134) 
True

>  <Lig_Order_in_.pdb>  (134) 
Orthosteric

$$$$

     RDKit          2D

 10 11  0  0  0  0  0  0  0  0999 V2000
    1.5000    0.0000    0.0000 C   0  0  0  0  0  0  0  0  0  0  0  0
    0.7500   -1.2990    0.0000 C   0  0  0  0  0  0  0  0  0  0  0  0
   -0.7500   -1.2990    0.0000 C   0  0  0  0  0  0  0  0  0  0  0  0
   -1.5000    0.0000    0.0000 C   0  0  0  0  0  0  0  0  0  0  0  0
   -0.7500    1.2990    0.0000 C   0  0  0  0  0  0  0  0  0  0  0  0
    0.7500    1.2990    0.0000 C   0  0  0  0  0  0  0  0  0  0  0  0
   -1.7537    2.4138    0.0000 C   0  0  0  0  0  0  0  0  0  0  0  0
   -3.1240    1.8037    0.0000 N   0  0  0  0  0  0  0  0  0  0  0  0
   -2.9672    0.3119    0.0000 C   0  0  0  0  0  0  0  0  0  0  0  0
   -4.0819   -0.6918    0.0000 N   0  0  0  0  0  0  0  0  0  0  0  0
  1  2  2  0
  2  3  1  0
  3  4  2  0
  4  5  1  0
  5  6  2  0
  5  7  1  0
  7  8  1  0
  8  9  2  0
  9 10  1  0
  6  1  1  0
  9  4  1  0
M  END
>  <Structure>  (135) 
5N36

>  <Dataset>  (135) 
PDB

>  <Chain>  (135) 
A

>  <Spatial_Label>  (135) 
DFGin

>  <Dihedral_Label>  (135) 
BLAminus

>  <C_Helix_Label>  (135) 
Chelix-in

>  <Lig_ID>  (135) 
F05

>  <Lig_Entity_ID>  (135) 
5N36_4

>  <Lig_Name>  (135) 
1H-isoindol-3-amine

>  <Lig_Formula>  (135) 
C8H8N2

>  <Lig_SMILES>  (135) 
c1ccc2c(c1)CN=C2N

>  <Lig_MW>  (135) 
132.163

>  <Lig_ChEMBL_ID>  (135) 
['CHEMBL1617729']

>  <Lig_DrugBank_ID>  (135) 
nan

>  <Occurence>  (135) 
1.0

>  <Lig_SMILES_Uncharged>  (135) 
NC1=NCc2ccccc21

>  <Lig_Conformer>  (135) 
['NaN']

>  <Lig_Of_Interest>  (135) 
['N']

>  <Lig_Completeness>  (135) 
[1.0]

>  <Lig_Occupancy>  (135) 
[1.0]

>  <Lig_RSCC>  (135) 
[0.861]

>  <Lig_RSR>  (135) 
[0.129]

>  <Lig_RMSZ_Bonds>  (135) 
[1.47]

>  <Lig_RMSZ_Angles>  (135) 
[1.61]

>  <Lig_Alt_Conf>  (135) 
0.0

>  <Title>  (135) 
cAMP-dependent Protein Kinase A from Cricetulus griseus in complex with fragment like molecule 3H-isoindol-2-ium-1-amine

>  <Nonpolymer_Entity_Count>  (135) 
2.0

>  <Protein_Entity_Count>  (135) 
2.0

>  <Exp_Method>  (135) 
X-Ray Diffraction

>  <Cryst_Method>  (135) 
Vapor Diffusion, Sitting Drop; Mes-Bis-Tris
Mega8-Solution
Dtt
Edta
Licl
Methanol

>  <Deposit_Date>  (135) 
2017-02-08

>  <Resolution>  (135) 
1.58

>  <DOI>  (135) 
nan

>  <Source_Organism>  (135) 
Cricetulus griseus

>  <R_Free>  (135) 
0.1863

>  <Keywords>  (135) 
Transferase

>  <REMARK_280>  (135) 
 Crystal Solvent Content, Vs (%): 56.00 Matthews Coefficient, Vm (Angstroms**3/Da): 2.85 Crystallization Conditions: Mes-Bis-Tris Mega8-Solution Dtt Edta Licl Methanol, pH 6.9, Vapor Diffusion, Sitting Drop, Temperature 277K 

>  <REMARK_610>  (135) 
nan

>  <pH>  (135) 
6.9

>  <Cryst_Technique>  (135) 
nan

>  <Sequence>  (135) 
GHMGNAAAAKKGSEQESVKEFLAKAKEEFLKKWESPSQNTAQLDHFDRIKTLGTGSFGRVMLVKHKETGNHYAMKILDKQKVVKLKQIEHTLNEKRILQAVNFPFLVKLEFSFKDNSNLYMVMEYVPGGEMFSHLRRIGRFSEPHARFYAAQIVLTFEYLHSLDLIYRDLKPENLLIDQQGYIQVTDFGFAKRVKGRTWTLCGTPEYLAPEIILSKGYNKAVDWWALGVLIYEMAAGYPPFFADQPIQIYEKIVSGKVRFPSHFSSDLKDLLRNLLQVDLTKRFGNLKNGVNDIKNHKWFATTDWIAIYQRKVEAPFIPKFKGPGDTSNFDDYEEEEIRVSINEKCGKEFTEF

>  <Sequence_Length>  (135) 
353.0

>  <Mutation_Count>  (135) 
0.0

>  <Gene_Name>  (135) 
PKACA

>  <MW>  (135) 
41.194

>  <Name>  (135) 
cAMP-Dependent Protein Kinase Catalytic Subunit Alpha

>  <Mutations>  (135) 
nan

>  <EC_Number>  (135) 
2.7.11.11

>  <Peptidic_Inhibitor>  (135) 
True

>  <Lig_Missing_Atoms>  (135) 
['No']

>  <PDBbind_Resolution>  (135) 
nan

>  <PDBbind_Release_Year>  (135) 
nan

>  <PDBbind_Comment>  (135) 
nan

>  <PDBbind_Uniprot_Id>  (135) 
nan

>  <PDBbind_Protein_Name>  (135) 
nan

>  <PDBbind_-Logkd/Ki>  (135) 
nan

>  <PDBbind_Kd/Ki>  (135) 
nan

>  <PDBbind_Kd_Or_Ki_Or_Ic50>  (135) 
nan

>  <PDBbind_Relation>  (135) 
nan

>  <PDBbind_Value>  (135) 
nan

>  <PDBbind_Unit>  (135) 
nan

>  <PDBbind_Standard_Value>  (135) 
nan

>  <PDBbind_Standard_Unit>  (135) 
nan

>  <PDB_Chain>  (135) 
['A']

>  <Num_Ligs>  (135) 
[1.0]

>  <Orthosteric>  (135) 
[1.0]

>  <Allosteric>  (135) 
[0.0]

>  <Pockets_Assigned>  (135) 
['A']

>  <Multisite>  (135) 
[False]

>  <Same_Number>  (135) 
True

>  <Same_Binding_Site>  (135) 
True

>  <Same_Orientation>  (135) 
True

>  <Lig_Order_in_.pdb>  (135) 
Orthosteric

$$$$

     RDKit          2D

 16 18  0  0  0  0  0  0  0  0999 V2000
   -1.8351    3.2209    0.0000 C   0  0  0  0  0  0  0  0  0  0  0  0
   -2.1470    1.7537    0.0000 C   0  0  0  0  0  0  0  0  0  0  0  0
   -1.0323    0.7500    0.0000 C   0  0  0  0  0  0  0  0  0  0  0  0
    0.3943    1.2135    0.0000 C   0  0  0  0  0  0  0  0  0  0  0  0
    0.7062    2.6807    0.0000 C   0  0  0  0  0  0  0  0  0  0  0  0
   -0.4086    3.6844    0.0000 C   0  0  0  0  0  0  0  0  0  0  0  0
   -0.0967    5.1517    0.0000 C   0  0  0  0  0  0  0  0  0  0  0  0
    1.3299    5.6152    0.0000 N   0  0  0  0  0  4  0  0  0  0  0  0
    1.6418    7.0824    0.0000 C   0  0  0  0  0  0  0  0  0  0  0  0
    0.6381    8.1971    0.0000 C   0  0  0  0  0  0  0  0  0  0  0  0
    1.3881    9.4962    0.0000 C   0  0  0  0  0  0  0  0  0  0  0  0
    2.8553    9.1843    0.0000 C   0  0  0  0  0  0  0  0  0  0  0  0
    3.0121    7.6925    0.0000 C   0  0  0  0  0  0  0  0  0  0  0  0
    1.2760    0.0000    0.0000 O   0  0  0  0  0  0  0  0  0  0  0  0
    0.3943   -1.2135    0.0000 C   0  0  0  0  0  0  0  0  0  0  0  0
   -1.0323   -0.7500    0.0000 O   0  0  0  0  0  0  0  0  0  0  0  0
  1  2  2  0
  2  3  1  0
  3  4  2  0
  4  5  1  0
  5  6  2  0
  6  7  1  0
  7  8  1  0
  8  9  1  0
  9 10  1  0
 10 11  1  0
 11 12  1  0
 12 13  1  0
  4 14  1  0
 14 15  1  0
 15 16  1  0
  6  1  1  0
 16  3  1  0
 13  9  1  0
M  CHG  1   8   1
M  END
>  <Structure>  (136) 
5N37

>  <Dataset>  (136) 
PDB

>  <Chain>  (136) 
A

>  <Spatial_Label>  (136) 
DFGin

>  <Dihedral_Label>  (136) 
BLAminus

>  <C_Helix_Label>  (136) 
Chelix-in

>  <Lig_ID>  (136) 
8JT

>  <Lig_Entity_ID>  (136) 
5N37_4

>  <Lig_Name>  (136) 
1,3-benzodioxol-5-ylmethyl(cyclopentyl)azanium

>  <Lig_Formula>  (136) 
C13H18NO2

>  <Lig_SMILES>  (136) 
c1cc2c(cc1C[NH2+]C3CCCC3)OCO2

>  <Lig_MW>  (136) 
220.288

>  <Lig_ChEMBL_ID>  (136) 
nan

>  <Lig_DrugBank_ID>  (136) 
nan

>  <Occurence>  (136) 
1.0

>  <Lig_SMILES_Uncharged>  (136) 
c1cc2c(cc1CNC1CCCC1)OCO2

>  <Lig_Conformer>  (136) 
['NaN', 'NaN']

>  <Lig_Of_Interest>  (136) 
['Y', 'Y']

>  <Lig_Completeness>  (136) 
[1.0, 0.375]

>  <Lig_Occupancy>  (136) 
[0.82, 0.375]

>  <Lig_RSCC>  (136) 
[0.954, 0.484]

>  <Lig_RSR>  (136) 
[0.091, 0.219]

>  <Lig_RMSZ_Bonds>  (136) 
[0.54, 0.75]

>  <Lig_RMSZ_Angles>  (136) 
[0.48, 0.64]

>  <Lig_Alt_Conf>  (136) 
0.0

>  <Title>  (136) 
cAMP-dependent Protein Kinase A from Cricetulus griseus in complex with fragment like molecule N-(1,3-benzodioxol-5-ylmethyl)cyclopentanamine

>  <Nonpolymer_Entity_Count>  (136) 
6.0

>  <Protein_Entity_Count>  (136) 
2.0

>  <Exp_Method>  (136) 
X-Ray Diffraction

>  <Cryst_Method>  (136) 
Vapor Diffusion, Sitting Drop; Mes-Bis-Tris
Mega8-Solution
Dtt
Edta
Licl
Methanol

>  <Deposit_Date>  (136) 
2017-02-08

>  <Resolution>  (136) 
1.589

>  <DOI>  (136) 
nan

>  <Source_Organism>  (136) 
Cricetulus griseus

>  <R_Free>  (136) 
0.1668

>  <Keywords>  (136) 
Transferase

>  <REMARK_280>  (136) 
 Crystal Solvent Content, Vs (%): 57.00 Matthews Coefficient, Vm (Angstroms**3/Da): 2.85 Crystallization Conditions: Mes-Bis-Tris Mega8-Solution Dtt Edta Licl Methanol, pH 6.9, Vapor Diffusion, Sitting Drop, Temperature 277K 

>  <REMARK_610>  (136) 
  8JT A 403 

>  <pH>  (136) 
6.9

>  <Cryst_Technique>  (136) 
nan

>  <Sequence>  (136) 
GHMGNAAAAKKGSEQESVKEFLAKAKEEFLKKWESPSQNTAQLDHFDRIKTLGTGSFGRVMLVKHKETGNHYAMKILDKQKVVKLKQIEHTLNEKRILQAVNFPFLVKLEFSFKDNSNLYMVMEYVPGGEMFSHLRRIGRFSEPHARFYAAQIVLTFEYLHSLDLIYRDLKPENLLIDQQGYIQVTDFGFAKRVKGRTWTLCGTPEYLAPEIILSKGYNKAVDWWALGVLIYEMAAGYPPFFADQPIQIYEKIVSGKVRFPSHFSSDLKDLLRNLLQVDLTKRFGNLKNGVNDIKNHKWFATTDWIAIYQRKVEAPFIPKFKGPGDTSNFDDYEEEEIRVSINEKCGKEFTEF

>  <Sequence_Length>  (136) 
353.0

>  <Mutation_Count>  (136) 
0.0

>  <Gene_Name>  (136) 
PKACA

>  <MW>  (136) 
41.194

>  <Name>  (136) 
cAMP-Dependent Protein Kinase Catalytic Subunit Alpha

>  <Mutations>  (136) 
nan

>  <EC_Number>  (136) 
2.7.11.11

>  <Peptidic_Inhibitor>  (136) 
True

>  <Lig_Missing_Atoms>  (136) 
['No', 'No']

>  <PDBbind_Resolution>  (136) 
nan

>  <PDBbind_Release_Year>  (136) 
nan

>  <PDBbind_Comment>  (136) 
nan

>  <PDBbind_Uniprot_Id>  (136) 
nan

>  <PDBbind_Protein_Name>  (136) 
nan

>  <PDBbind_-Logkd/Ki>  (136) 
nan

>  <PDBbind_Kd/Ki>  (136) 
nan

>  <PDBbind_Kd_Or_Ki_Or_Ic50>  (136) 
nan

>  <PDBbind_Relation>  (136) 
nan

>  <PDBbind_Value>  (136) 
nan

>  <PDBbind_Unit>  (136) 
nan

>  <PDBbind_Standard_Value>  (136) 
nan

>  <PDBbind_Standard_Unit>  (136) 
nan

>  <PDB_Chain>  (136) 
['A']

>  <Num_Ligs>  (136) 
[2.0]

>  <Orthosteric>  (136) 
[1.0]

>  <Allosteric>  (136) 
[1.0]

>  <Pockets_Assigned>  (136) 
['A, X']

>  <Multisite>  (136) 
[True]

>  <Same_Number>  (136) 
True

>  <Same_Binding_Site>  (136) 
True

>  <Same_Orientation>  (136) 
True

>  <Lig_Order_in_.pdb>  (136) 
Orthosteric, Allosteric

$$$$

     RDKit          2D

 15 17  0  0  0  0  0  0  0  0999 V2000
   -0.7500   -3.8971    0.0000 C   0  0  0  0  0  0  0  0  0  0  0  0
   -1.5000   -2.5981    0.0000 C   0  0  0  0  0  0  0  0  0  0  0  0
   -0.7500   -1.2990    0.0000 C   0  0  0  0  0  0  0  0  0  0  0  0
    0.7500   -1.2990    0.0000 C   0  0  0  0  0  0  0  0  0  0  0  0
    1.5000   -2.5981    0.0000 C   0  0  0  0  0  0  0  0  0  0  0  0
    0.7500   -3.8971    0.0000 C   0  0  0  0  0  0  0  0  0  0  0  0
    1.5000   -5.1962    0.0000 C   0  0  0  0  0  0  0  0  0  0  0  0
    2.9918   -5.3529    0.0000 C   0  0  0  0  0  0  0  0  0  0  0  0
    3.3037   -6.8202    0.0000 C   0  0  0  0  0  0  0  0  0  0  0  0
    2.0046   -7.5702    0.0000 C   0  0  0  0  0  0  0  0  0  0  0  0
    0.8899   -6.5665    0.0000 N   0  0  0  0  0  4  0  0  0  0  0  0
    1.5000    0.0000    0.0000 O   0  0  0  0  0  0  0  0  0  0  0  0
    0.7500    1.2990    0.0000 C   0  0  0  0  0  0  0  0  0  0  0  0
   -0.7500    1.2990    0.0000 C   0  0  0  0  0  0  0  0  0  0  0  0
   -1.5000    0.0000    0.0000 O   0  0  0  0  0  0  0  0  0  0  0  0
  1  2  2  0
  2  3  1  0
  3  4  2  0
  4  5  1  0
  5  6  2  0
  7  6  1  6
  7  8  1  0
  8  9  1  0
  9 10  1  0
 10 11  1  0
  4 12  1  0
 12 13  1  0
 13 14  1  0
 14 15  1  0
  6  1  1  0
 15  3  1  0
 11  7  1  0
M  CHG  1  11   1
M  END
>  <Structure>  (137) 
5N39

>  <Dataset>  (137) 
PDB

>  <Chain>  (137) 
A

>  <Spatial_Label>  (137) 
DFGin

>  <Dihedral_Label>  (137) 
BLAminus

>  <C_Helix_Label>  (137) 
Chelix-in

>  <Lig_ID>  (137) 
8LZ

>  <Lig_Entity_ID>  (137) 
5N39_3

>  <Lig_Name>  (137) 
(2~{S})-2-(2,3-dihydro-1,4-benzodioxin-6-yl)pyrrolidin-1-ium

>  <Lig_Formula>  (137) 
C12H16NO2

>  <Lig_SMILES>  (137) 
c1cc2c(cc1[C@@H]3CCC[NH2+]3)OCCO2

>  <Lig_MW>  (137) 
206.261

>  <Lig_ChEMBL_ID>  (137) 
nan

>  <Lig_DrugBank_ID>  (137) 
nan

>  <Occurence>  (137) 
1.0

>  <Lig_SMILES_Uncharged>  (137) 
c1cc2c(cc1[C@@H]1CCCN1)OCCO2

>  <Lig_Conformer>  (137) 
['NaN']

>  <Lig_Of_Interest>  (137) 
['Y']

>  <Lig_Completeness>  (137) 
[1.0]

>  <Lig_Occupancy>  (137) 
[1.0]

>  <Lig_RSCC>  (137) 
[0.851]

>  <Lig_RSR>  (137) 
[0.121]

>  <Lig_RMSZ_Bonds>  (137) 
[0.47]

>  <Lig_RMSZ_Angles>  (137) 
[0.55]

>  <Lig_Alt_Conf>  (137) 
0.0

>  <Title>  (137) 
cAMP-dependent Protein Kinase A from Cricetulus griseus in complex with fragment like molecule 2-(2,3-dihydrobenzo[b][1,4]dioxin-6-yl)pyrrolidine

>  <Nonpolymer_Entity_Count>  (137) 
5.0

>  <Protein_Entity_Count>  (137) 
2.0

>  <Exp_Method>  (137) 
X-Ray Diffraction

>  <Cryst_Method>  (137) 
Vapor Diffusion, Sitting Drop; Mes-Bis-Tris
Mega8-Solution
Dtt
Edta
Licl
Methanol

>  <Deposit_Date>  (137) 
2017-02-08

>  <Resolution>  (137) 
1.45

>  <DOI>  (137) 
nan

>  <Source_Organism>  (137) 
Cricetulus griseus

>  <R_Free>  (137) 
0.1688

>  <Keywords>  (137) 
Transferase

>  <REMARK_280>  (137) 
 Crystal Solvent Content, Vs (%): 56.00 Matthews Coefficient, Vm (Angstroms**3/Da): 2.83 Crystallization Conditions: Mes-Bis-Tris Mega8-Solution Dtt Edta Licl Methanol, pH 6.9, Vapor Diffusion, Sitting Drop, Temperature 277K 

>  <REMARK_610>  (137) 
nan

>  <pH>  (137) 
6.9

>  <Cryst_Technique>  (137) 
nan

>  <Sequence>  (137) 
GHMGNAAAAKKGSEQESVKEFLAKAKEEFLKKWESPSQNTAQLDHFDRIKTLGTGSFGRVMLVKHKETGNHYAMKILDKQKVVKLKQIEHTLNEKRILQAVNFPFLVKLEFSFKDNSNLYMVMEYVPGGEMFSHLRRIGRFSEPHARFYAAQIVLTFEYLHSLDLIYRDLKPENLLIDQQGYIQVTDFGFAKRVKGRTWTLCGTPEYLAPEIILSKGYNKAVDWWALGVLIYEMAAGYPPFFADQPIQIYEKIVSGKVRFPSHFSSDLKDLLRNLLQVDLTKRFGNLKNGVNDIKNHKWFATTDWIAIYQRKVEAPFIPKFKGPGDTSNFDDYEEEEIRVSINEKCGKEFTEF

>  <Sequence_Length>  (137) 
353.0

>  <Mutation_Count>  (137) 
0.0

>  <Gene_Name>  (137) 
PKACA

>  <MW>  (137) 
41.194

>  <Name>  (137) 
cAMP-Dependent Protein Kinase Catalytic Subunit Alpha

>  <Mutations>  (137) 
nan

>  <EC_Number>  (137) 
2.7.11.11

>  <Peptidic_Inhibitor>  (137) 
True

>  <Lig_Missing_Atoms>  (137) 
['No']

>  <PDBbind_Resolution>  (137) 
nan

>  <PDBbind_Release_Year>  (137) 
nan

>  <PDBbind_Comment>  (137) 
nan

>  <PDBbind_Uniprot_Id>  (137) 
nan

>  <PDBbind_Protein_Name>  (137) 
nan

>  <PDBbind_-Logkd/Ki>  (137) 
nan

>  <PDBbind_Kd/Ki>  (137) 
nan

>  <PDBbind_Kd_Or_Ki_Or_Ic50>  (137) 
nan

>  <PDBbind_Relation>  (137) 
nan

>  <PDBbind_Value>  (137) 
nan

>  <PDBbind_Unit>  (137) 
nan

>  <PDBbind_Standard_Value>  (137) 
nan

>  <PDBbind_Standard_Unit>  (137) 
nan

>  <PDB_Chain>  (137) 
['A']

>  <Num_Ligs>  (137) 
[1.0]

>  <Orthosteric>  (137) 
[1.0]

>  <Allosteric>  (137) 
[0.0]

>  <Pockets_Assigned>  (137) 
['A']

>  <Multisite>  (137) 
[False]

>  <Same_Number>  (137) 
True

>  <Same_Binding_Site>  (137) 
True

>  <Same_Orientation>  (137) 
True

>  <Lig_Order_in_.pdb>  (137) 
Orthosteric

$$$$

     RDKit          2D

 13 14  0  0  0  0  0  0  0  0999 V2000
    2.7760    0.0000    0.0000 C   0  0  0  0  0  0  0  0  0  0  0  0
    1.2760    0.0000    0.0000 C   0  0  0  0  0  0  0  0  0  0  0  0
    0.3943    1.2135    0.0000 C   0  0  0  0  0  0  0  0  0  0  0  0
   -1.0323    0.7500    0.0000 S   0  0  0  0  0  0  0  0  0  0  0  0
   -1.0323   -0.7500    0.0000 C   0  0  0  0  0  0  0  0  0  0  0  0
    0.3943   -1.2135    0.0000 N   0  0  0  0  0  0  0  0  0  0  0  0
   -2.2458   -1.6317    0.0000 N   0  0  0  0  0  0  0  0  0  0  0  0
    0.8578    2.6401    0.0000 C   0  0  0  0  0  0  0  0  0  0  0  0
   -0.0239    3.8536    0.0000 N   0  0  0  0  0  0  0  0  0  0  0  0
    0.8578    5.0672    0.0000 C   0  0  0  0  0  0  0  0  0  0  0  0
    2.2844    4.6036    0.0000 C   0  0  0  0  0  0  0  0  0  0  0  0
    2.2844    3.1036    0.0000 N   0  0  0  0  0  0  0  0  0  0  0  0
    3.4979    2.2220    0.0000 C   0  0  0  0  0  0  0  0  0  0  0  0
  1  2  1  0
  2  3  2  0
  3  4  1  0
  4  5  1  0
  5  6  2  0
  5  7  1  0
  3  8  1  0
  8  9  2  0
  9 10  1  0
 10 11  2  0
 11 12  1  0
 12 13  1  0
  6  2  1  0
 12  8  1  0
M  END
>  <Structure>  (138) 
5N3A

>  <Dataset>  (138) 
PDB

>  <Chain>  (138) 
A

>  <Spatial_Label>  (138) 
DFGin

>  <Dihedral_Label>  (138) 
BLAminus

>  <C_Helix_Label>  (138) 
Chelix-in

>  <Lig_ID>  (138) 
46P

>  <Lig_Entity_ID>  (138) 
5N3A_5

>  <Lig_Name>  (138) 
4-methyl-5-(1-methyl-1H-imidazol-2-yl)-1,3-thiazol-2-amine

>  <Lig_Formula>  (138) 
C8H10N4S

>  <Lig_SMILES>  (138) 
Cc1c(sc(n1)N)c2nccn2C

>  <Lig_MW>  (138) 
194.257

>  <Lig_ChEMBL_ID>  (138) 
nan

>  <Lig_DrugBank_ID>  (138) 
nan

>  <Occurence>  (138) 
1.0

>  <Lig_SMILES_Uncharged>  (138) 
Cc1nc(N)sc1-c1nccn1C

>  <Lig_Conformer>  (138) 
['NaN']

>  <Lig_Of_Interest>  (138) 
['Y']

>  <Lig_Completeness>  (138) 
[0.7692]

>  <Lig_Occupancy>  (138) 
[0.5385]

>  <Lig_RSCC>  (138) 
[0.839]

>  <Lig_RSR>  (138) 
[0.153]

>  <Lig_RMSZ_Bonds>  (138) 
[0.89]

>  <Lig_RMSZ_Angles>  (138) 
[2.21]

>  <Lig_Alt_Conf>  (138) 
0.0

>  <Title>  (138) 
cAMP-dependent Protein Kinase A from Cricetulus griseus in complex with fragment like molecule 4-methyl-5-(1-methylimidazol-2-yl)-1,3-thiazol-2-amine

>  <Nonpolymer_Entity_Count>  (138) 
4.0

>  <Protein_Entity_Count>  (138) 
2.0

>  <Exp_Method>  (138) 
X-Ray Diffraction

>  <Cryst_Method>  (138) 
Vapor Diffusion, Sitting Drop; Mes-Bis-Tris
Mega8-Solution
Dtt
Edta
Licl
Methanol

>  <Deposit_Date>  (138) 
2017-02-08

>  <Resolution>  (138) 
1.404

>  <DOI>  (138) 
nan

>  <Source_Organism>  (138) 
Cricetulus griseus

>  <R_Free>  (138) 
0.184

>  <Keywords>  (138) 
Transferase

>  <REMARK_280>  (138) 
 Crystal Solvent Content, Vs (%): 56.00 Matthews Coefficient, Vm (Angstroms**3/Da): 2.82 Crystallization Conditions: Mes-Bis-Tris Mega8-Solution Dtt Edta Licl Methanol, pH 6.9, Vapor Diffusion, Sitting Drop, Temperature 277K 

>  <REMARK_610>  (138) 
  46P A 404 

>  <pH>  (138) 
6.9

>  <Cryst_Technique>  (138) 
nan

>  <Sequence>  (138) 
GHMGNAAAAKKGSEQESVKEFLAKAKEEFLKKWESPSQNTAQLDHFDRIKTLGTGSFGRVMLVKHKETGNHYAMKILDKQKVVKLKQIEHTLNEKRILQAVNFPFLVKLEFSFKDNSNLYMVMEYVPGGEMFSHLRRIGRFSEPHARFYAAQIVLTFEYLHSLDLIYRDLKPENLLIDQQGYIQVTDFGFAKRVKGRTWTLCGTPEYLAPEIILSKGYNKAVDWWALGVLIYEMAAGYPPFFADQPIQIYEKIVSGKVRFPSHFSSDLKDLLRNLLQVDLTKRFGNLKNGVNDIKNHKWFATTDWIAIYQRKVEAPFIPKFKGPGDTSNFDDYEEEEIRVSINEKCGKEFTEF

>  <Sequence_Length>  (138) 
353.0

>  <Mutation_Count>  (138) 
0.0

>  <Gene_Name>  (138) 
PKACA

>  <MW>  (138) 
41.194

>  <Name>  (138) 
cAMP-Dependent Protein Kinase Catalytic Subunit Alpha

>  <Mutations>  (138) 
nan

>  <EC_Number>  (138) 
2.7.11.11

>  <Peptidic_Inhibitor>  (138) 
True

>  <Lig_Missing_Atoms>  (138) 
['No']

>  <PDBbind_Resolution>  (138) 
nan

>  <PDBbind_Release_Year>  (138) 
nan

>  <PDBbind_Comment>  (138) 
nan

>  <PDBbind_Uniprot_Id>  (138) 
nan

>  <PDBbind_Protein_Name>  (138) 
nan

>  <PDBbind_-Logkd/Ki>  (138) 
nan

>  <PDBbind_Kd/Ki>  (138) 
nan

>  <PDBbind_Kd_Or_Ki_Or_Ic50>  (138) 
nan

>  <PDBbind_Relation>  (138) 
nan

>  <PDBbind_Value>  (138) 
nan

>  <PDBbind_Unit>  (138) 
nan

>  <PDBbind_Standard_Value>  (138) 
nan

>  <PDBbind_Standard_Unit>  (138) 
nan

>  <PDB_Chain>  (138) 
['A']

>  <Num_Ligs>  (138) 
[1.0]

>  <Orthosteric>  (138) 
[1.0]

>  <Allosteric>  (138) 
[0.0]

>  <Pockets_Assigned>  (138) 
['A']

>  <Multisite>  (138) 
[False]

>  <Same_Number>  (138) 
True

>  <Same_Binding_Site>  (138) 
True

>  <Same_Orientation>  (138) 
True

>  <Lig_Order_in_.pdb>  (138) 
Orthosteric

$$$$

     RDKit          2D

  9  9  0  0  0  0  0  0  0  0999 V2000
    1.5000    0.0000    0.0000 C   0  0  0  0  0  0  0  0  0  0  0  0
    0.7500   -1.2990    0.0000 C   0  0  0  0  0  0  0  0  0  0  0  0
   -0.7500   -1.2990    0.0000 C   0  0  0  0  0  0  0  0  0  0  0  0
   -1.5000    0.0000    0.0000 C   0  0  0  0  0  0  0  0  0  0  0  0
   -0.7500    1.2990    0.0000 N   0  0  0  0  0  0  0  0  0  0  0  0
    0.7500    1.2990    0.0000 C   0  0  0  0  0  0  0  0  0  0  0  0
   -1.5000   -2.5981    0.0000 C   0  0  0  0  0  0  0  0  0  0  0  0
   -3.0000   -2.5981    0.0000 C   0  0  0  0  0  0  0  0  0  0  0  0
   -3.7500   -3.8971    0.0000 N   0  0  0  0  0  4  0  0  0  0  0  0
  1  2  2  0
  2  3  1  0
  3  4  2  0
  4  5  1  0
  5  6  2  0
  3  7  1  0
  7  8  1  0
  8  9  1  0
  6  1  1  0
M  CHG  1   9   1
M  END
>  <Structure>  (139) 
5N3B

>  <Dataset>  (139) 
PDB

>  <Chain>  (139) 
A

>  <Spatial_Label>  (139) 
DFGin

>  <Dihedral_Label>  (139) 
BLAminus

>  <C_Helix_Label>  (139) 
Chelix-in

>  <Lig_ID>  (139) 
BJN

>  <Lig_Entity_ID>  (139) 
5N3B_4

>  <Lig_Name>  (139) 
2-pyridin-3-ylethylazanium

>  <Lig_Formula>  (139) 
C7H11N2

>  <Lig_SMILES>  (139) 
c1cc(cnc1)CC[NH3+]

>  <Lig_MW>  (139) 
123.176

>  <Lig_ChEMBL_ID>  (139) 
nan

>  <Lig_DrugBank_ID>  (139) 
nan

>  <Occurence>  (139) 
1.0

>  <Lig_SMILES_Uncharged>  (139) 
NCCc1cccnc1

>  <Lig_Conformer>  (139) 
['NaN']

>  <Lig_Of_Interest>  (139) 
['N']

>  <Lig_Completeness>  (139) 
[1.0]

>  <Lig_Occupancy>  (139) 
[0.83]

>  <Lig_RSCC>  (139) 
[0.818]

>  <Lig_RSR>  (139) 
[0.131]

>  <Lig_RMSZ_Bonds>  (139) 
[0.2]

>  <Lig_RMSZ_Angles>  (139) 
[0.28]

>  <Lig_Alt_Conf>  (139) 
0.0

>  <Title>  (139) 
cAMP-dependent Protein Kinase A from Cricetulus griseus in complex with fragment like molecule 2-(pyridin-3-yl)ethanamine

>  <Nonpolymer_Entity_Count>  (139) 
2.0

>  <Protein_Entity_Count>  (139) 
2.0

>  <Exp_Method>  (139) 
X-Ray Diffraction

>  <Cryst_Method>  (139) 
Vapor Diffusion, Sitting Drop; Mes-Bis-Tris
Mega8-Solution
Dtt
Edta
Licl
Methanol

>  <Deposit_Date>  (139) 
2017-02-08

>  <Resolution>  (139) 
1.64

>  <DOI>  (139) 
nan

>  <Source_Organism>  (139) 
Cricetulus griseus

>  <R_Free>  (139) 
0.1901

>  <Keywords>  (139) 
Transferase

>  <REMARK_280>  (139) 
 Crystal Solvent Content, Vs (%): 57.00 Matthews Coefficient, Vm (Angstroms**3/Da): 2.87 Crystallization Conditions: Mes-Bis-Tris Mega8-Solution Dtt Edta Licl Methanol, pH 6.9, Vapor Diffusion, Sitting Drop, Temperature 277K 

>  <REMARK_610>  (139) 
nan

>  <pH>  (139) 
6.9

>  <Cryst_Technique>  (139) 
nan

>  <Sequence>  (139) 
GHMGNAAAAKKGSEQESVKEFLAKAKEEFLKKWESPSQNTAQLDHFDRIKTLGTGSFGRVMLVKHKETGNHYAMKILDKQKVVKLKQIEHTLNEKRILQAVNFPFLVKLEFSFKDNSNLYMVMEYVPGGEMFSHLRRIGRFSEPHARFYAAQIVLTFEYLHSLDLIYRDLKPENLLIDQQGYIQVTDFGFAKRVKGRTWTLCGTPEYLAPEIILSKGYNKAVDWWALGVLIYEMAAGYPPFFADQPIQIYEKIVSGKVRFPSHFSSDLKDLLRNLLQVDLTKRFGNLKNGVNDIKNHKWFATTDWIAIYQRKVEAPFIPKFKGPGDTSNFDDYEEEEIRVSINEKCGKEFTEF

>  <Sequence_Length>  (139) 
353.0

>  <Mutation_Count>  (139) 
0.0

>  <Gene_Name>  (139) 
PKACA

>  <MW>  (139) 
41.194

>  <Name>  (139) 
cAMP-Dependent Protein Kinase Catalytic Subunit Alpha

>  <Mutations>  (139) 
nan

>  <EC_Number>  (139) 
2.7.11.11

>  <Peptidic_Inhibitor>  (139) 
True

>  <Lig_Missing_Atoms>  (139) 
['No']

>  <PDBbind_Resolution>  (139) 
nan

>  <PDBbind_Release_Year>  (139) 
nan

>  <PDBbind_Comment>  (139) 
nan

>  <PDBbind_Uniprot_Id>  (139) 
nan

>  <PDBbind_Protein_Name>  (139) 
nan

>  <PDBbind_-Logkd/Ki>  (139) 
nan

>  <PDBbind_Kd/Ki>  (139) 
nan

>  <PDBbind_Kd_Or_Ki_Or_Ic50>  (139) 
nan

>  <PDBbind_Relation>  (139) 
nan

>  <PDBbind_Value>  (139) 
nan

>  <PDBbind_Unit>  (139) 
nan

>  <PDBbind_Standard_Value>  (139) 
nan

>  <PDBbind_Standard_Unit>  (139) 
nan

>  <PDB_Chain>  (139) 
['A']

>  <Num_Ligs>  (139) 
[1.0]

>  <Orthosteric>  (139) 
[1.0]

>  <Allosteric>  (139) 
[0.0]

>  <Pockets_Assigned>  (139) 
['A']

>  <Multisite>  (139) 
[False]

>  <Same_Number>  (139) 
True

>  <Same_Binding_Site>  (139) 
True

>  <Same_Orientation>  (139) 
True

>  <Lig_Order_in_.pdb>  (139) 
Orthosteric

$$$$

     RDKit          2D

  8  8  0  0  0  0  0  0  0  0999 V2000
    1.2760    0.0000    0.0000 C   0  0  0  0  0  0  0  0  0  0  0  0
    0.3943    1.2135    0.0000 C   0  0  0  0  0  0  0  0  0  0  0  0
   -1.0323    0.7500    0.0000 S   0  0  0  0  0  0  0  0  0  0  0  0
   -1.0323   -0.7500    0.0000 C   0  0  0  0  0  0  0  0  0  0  0  0
    0.3943   -1.2135    0.0000 C   0  0  0  0  0  0  0  0  0  0  0  0
    0.8578   -2.6401    0.0000 C   0  0  0  0  0  0  0  0  0  0  0  0
    2.3250   -2.9520    0.0000 N   0  0  0  0  0  4  0  0  0  0  0  0
   -0.1459   -3.7548    0.0000 N   0  0  0  0  0  0  0  0  0  0  0  0
  1  2  2  0
  2  3  1  0
  3  4  1  0
  4  5  2  0
  5  6  1  0
  6  7  2  0
  6  8  1  0
  5  1  1  0
M  CHG  1   7   1
M  END
>  <Structure>  (140) 
5N3C

>  <Dataset>  (140) 
PDB

>  <Chain>  (140) 
A

>  <Spatial_Label>  (140) 
DFGin

>  <Dihedral_Label>  (140) 
BLAminus

>  <C_Helix_Label>  (140) 
Chelix-in

>  <Lig_ID>  (140) 
8M2

>  <Lig_Entity_ID>  (140) 
5N3C_3

>  <Lig_Name>  (140) 
[azanyl(thiophen-3-yl)methylidene]azanium

>  <Lig_Formula>  (140) 
C5H7N2S

>  <Lig_SMILES>  (140) 
c1cscc1C(=[NH2+])N

>  <Lig_MW>  (140) 
127.187

>  <Lig_ChEMBL_ID>  (140) 
nan

>  <Lig_DrugBank_ID>  (140) 
nan

>  <Occurence>  (140) 
1.0

>  <Lig_SMILES_Uncharged>  (140) 
N=C(N)c1ccsc1

>  <Lig_Conformer>  (140) 
['NaN']

>  <Lig_Of_Interest>  (140) 
['N']

>  <Lig_Completeness>  (140) 
[1.0]

>  <Lig_Occupancy>  (140) 
[0.69]

>  <Lig_RSCC>  (140) 
[0.725]

>  <Lig_RSR>  (140) 
[0.216]

>  <Lig_RMSZ_Bonds>  (140) 
[0.93]

>  <Lig_RMSZ_Angles>  (140) 
[0.45]

>  <Lig_Alt_Conf>  (140) 
0.0

>  <Title>  (140) 
cAMP-dependent Protein Kinase A from Cricetulus griseus in complex with fragment like molecule Thiophene-3-Carboximidamide

>  <Nonpolymer_Entity_Count>  (140) 
2.0

>  <Protein_Entity_Count>  (140) 
2.0

>  <Exp_Method>  (140) 
X-Ray Diffraction

>  <Cryst_Method>  (140) 
Vapor Diffusion, Sitting Drop; Mes-Bis-Tris
Mega8-Solution
Dtt
Edta
Licl
Methanol

>  <Deposit_Date>  (140) 
2017-02-08

>  <Resolution>  (140) 
1.772

>  <DOI>  (140) 
https://doi.org/10.1002/anie.202011295

>  <Source_Organism>  (140) 
Cricetulus griseus

>  <R_Free>  (140) 
0.1958

>  <Keywords>  (140) 
Transferase

>  <REMARK_280>  (140) 
 Crystal Solvent Content, Vs (%): 57.00 Matthews Coefficient, Vm (Angstroms**3/Da): 2.84 Crystallization Conditions: Mes-Bis-Tris Mega8-Solution Dtt Edta Licl Methanol, pH 6.9, Vapor Diffusion, Sitting Drop, Temperature 277K 

>  <REMARK_610>  (140) 
nan

>  <pH>  (140) 
6.9

>  <Cryst_Technique>  (140) 
soaked

>  <Sequence>  (140) 
GHMGNAAAAKKGSEQESVKEFLAKAKEEFLKKWESPSQNTAQLDHFDRIKTLGTGSFGRVMLVKHKETGNHYAMKILDKQKVVKLKQIEHTLNEKRILQAVNFPFLVKLEFSFKDNSNLYMVMEYVPGGEMFSHLRRIGRFSEPHARFYAAQIVLTFEYLHSLDLIYRDLKPENLLIDQQGYIQVTDFGFAKRVKGRTWTLCGTPEYLAPEIILSKGYNKAVDWWALGVLIYEMAAGYPPFFADQPIQIYEKIVSGKVRFPSHFSSDLKDLLRNLLQVDLTKRFGNLKNGVNDIKNHKWFATTDWIAIYQRKVEAPFIPKFKGPGDTSNFDDYEEEEIRVSINEKCGKEFTEF

>  <Sequence_Length>  (140) 
353.0

>  <Mutation_Count>  (140) 
0.0

>  <Gene_Name>  (140) 
PKACA

>  <MW>  (140) 
41.194

>  <Name>  (140) 
cAMP-Dependent Protein Kinase Catalytic Subunit Alpha

>  <Mutations>  (140) 
nan

>  <EC_Number>  (140) 
2.7.11.11

>  <Peptidic_Inhibitor>  (140) 
True

>  <Lig_Missing_Atoms>  (140) 
['No']

>  <PDBbind_Resolution>  (140) 
nan

>  <PDBbind_Release_Year>  (140) 
nan

>  <PDBbind_Comment>  (140) 
nan

>  <PDBbind_Uniprot_Id>  (140) 
nan

>  <PDBbind_Protein_Name>  (140) 
nan

>  <PDBbind_-Logkd/Ki>  (140) 
nan

>  <PDBbind_Kd/Ki>  (140) 
nan

>  <PDBbind_Kd_Or_Ki_Or_Ic50>  (140) 
nan

>  <PDBbind_Relation>  (140) 
nan

>  <PDBbind_Value>  (140) 
nan

>  <PDBbind_Unit>  (140) 
nan

>  <PDBbind_Standard_Value>  (140) 
nan

>  <PDBbind_Standard_Unit>  (140) 
nan

>  <PDB_Chain>  (140) 
['A']

>  <Num_Ligs>  (140) 
[1.0]

>  <Orthosteric>  (140) 
[1.0]

>  <Allosteric>  (140) 
[0.0]

>  <Pockets_Assigned>  (140) 
['A']

>  <Multisite>  (140) 
[False]

>  <Same_Number>  (140) 
True

>  <Same_Binding_Site>  (140) 
True

>  <Same_Orientation>  (140) 
True

>  <Lig_Order_in_.pdb>  (140) 
Orthosteric

$$$$

     RDKit          2D

 13 13  0  0  0  0  0  0  0  0999 V2000
    1.5000    0.0000    0.0000 C   0  0  0  0  0  0  0  0  0  0  0  0
    0.7500   -1.2990    0.0000 C   0  0  0  0  0  0  0  0  0  0  0  0
   -0.7500   -1.2990    0.0000 C   0  0  0  0  0  0  0  0  0  0  0  0
   -1.5000    0.0000    0.0000 C   0  0  0  0  0  0  0  0  0  0  0  0
   -0.7500    1.2990    0.0000 C   0  0  0  0  0  0  0  0  0  0  0  0
    0.7500    1.2990    0.0000 C   0  0  0  0  0  0  0  0  0  0  0  0
    1.5000    2.5981    0.0000 C   0  0  0  0  0  0  0  0  0  0  0  0
    0.7500    3.8971    0.0000 N   0  0  0  0  0  4  0  0  0  0  0  0
    3.0000    2.5981    0.0000 N   0  0  0  0  0  0  0  0  0  0  0  0
   -1.5000   -2.5981    0.0000 C   0  0  0  0  0  0  0  0  0  0  0  0
   -2.2500   -3.8971    0.0000 F   0  0  0  0  0  0  0  0  0  0  0  0
   -2.7990   -1.8481    0.0000 F   0  0  0  0  0  0  0  0  0  0  0  0
   -0.2010   -3.3481    0.0000 F   0  0  0  0  0  0  0  0  0  0  0  0
  1  2  2  0
  2  3  1  0
  3  4  2  0
  4  5  1  0
  5  6  2  0
  6  7  1  0
  7  8  2  0
  7  9  1  0
  3 10  1  0
 10 11  1  0
 10 12  1  0
 10 13  1  0
  6  1  1  0
M  CHG  1   8   1
M  END
>  <Structure>  (141) 
5N3D

>  <Dataset>  (141) 
PDB

>  <Chain>  (141) 
A

>  <Spatial_Label>  (141) 
DFGin

>  <Dihedral_Label>  (141) 
ABAminus

>  <C_Helix_Label>  (141) 
Chelix-in

>  <Lig_ID>  (141) 
8NE

>  <Lig_Entity_ID>  (141) 
5N3D_3

>  <Lig_Name>  (141) 
[azanyl-[4-(trifluoromethyl)phenyl]methylidene]azanium

>  <Lig_Formula>  (141) 
C8H8F3N2

>  <Lig_SMILES>  (141) 
c1cc(ccc1C(=[NH2+])N)C(F)(F)F

>  <Lig_MW>  (141) 
189.158

>  <Lig_ChEMBL_ID>  (141) 
nan

>  <Lig_DrugBank_ID>  (141) 
nan

>  <Occurence>  (141) 
1.0

>  <Lig_SMILES_Uncharged>  (141) 
N=C(N)c1ccc(C(F)(F)F)cc1

>  <Lig_Conformer>  (141) 
['NaN']

>  <Lig_Of_Interest>  (141) 
['Y']

>  <Lig_Completeness>  (141) 
[1.0]

>  <Lig_Occupancy>  (141) 
[0.88]

>  <Lig_RSCC>  (141) 
[0.851]

>  <Lig_RSR>  (141) 
[0.168]

>  <Lig_RMSZ_Bonds>  (141) 
[0.41]

>  <Lig_RMSZ_Angles>  (141) 
[0.38]

>  <Lig_Alt_Conf>  (141) 
0.0

>  <Title>  (141) 
cAMP-dependent Protein Kinase A from Cricetulus griseus in complex with fragment like molecule 4-(trifluoromethyl)benzenecarboximidamide

>  <Nonpolymer_Entity_Count>  (141) 
2.0

>  <Protein_Entity_Count>  (141) 
2.0

>  <Exp_Method>  (141) 
X-Ray Diffraction

>  <Cryst_Method>  (141) 
Vapor Diffusion, Sitting Drop; Mes-Bis-Tris
Mega8-Solution
Dtt
Edta
Licl
Methanol

>  <Deposit_Date>  (141) 
2017-02-08

>  <Resolution>  (141) 
1.77

>  <DOI>  (141) 
https://doi.org/10.1002/anie.202011295

>  <Source_Organism>  (141) 
Cricetulus griseus

>  <R_Free>  (141) 
0.1931

>  <Keywords>  (141) 
Transferase

>  <REMARK_280>  (141) 
 Crystal Solvent Content, Vs (%): 56.00 Matthews Coefficient, Vm (Angstroms**3/Da): 2.82 Crystallization Conditions: Mes-Bis-Tris Mega8-Solution Dtt Edta Licl Methanol, pH 6.9, Vapor Diffusion, Sitting Drop, Temperature 277K 

>  <REMARK_610>  (141) 
nan

>  <pH>  (141) 
6.9

>  <Cryst_Technique>  (141) 
soaked

>  <Sequence>  (141) 
GHMGNAAAAKKGSEQESVKEFLAKAKEEFLKKWESPSQNTAQLDHFDRIKTLGTGSFGRVMLVKHKETGNHYAMKILDKQKVVKLKQIEHTLNEKRILQAVNFPFLVKLEFSFKDNSNLYMVMEYVPGGEMFSHLRRIGRFSEPHARFYAAQIVLTFEYLHSLDLIYRDLKPENLLIDQQGYIQVTDFGFAKRVKGRTWTLCGTPEYLAPEIILSKGYNKAVDWWALGVLIYEMAAGYPPFFADQPIQIYEKIVSGKVRFPSHFSSDLKDLLRNLLQVDLTKRFGNLKNGVNDIKNHKWFATTDWIAIYQRKVEAPFIPKFKGPGDTSNFDDYEEEEIRVSINEKCGKEFTEF

>  <Sequence_Length>  (141) 
353.0

>  <Mutation_Count>  (141) 
0.0

>  <Gene_Name>  (141) 
PKACA

>  <MW>  (141) 
41.194

>  <Name>  (141) 
cAMP-Dependent Protein Kinase Catalytic Subunit Alpha

>  <Mutations>  (141) 
nan

>  <EC_Number>  (141) 
2.7.11.11

>  <Peptidic_Inhibitor>  (141) 
True

>  <Lig_Missing_Atoms>  (141) 
['No']

>  <PDBbind_Resolution>  (141) 
nan

>  <PDBbind_Release_Year>  (141) 
nan

>  <PDBbind_Comment>  (141) 
nan

>  <PDBbind_Uniprot_Id>  (141) 
nan

>  <PDBbind_Protein_Name>  (141) 
nan

>  <PDBbind_-Logkd/Ki>  (141) 
nan

>  <PDBbind_Kd/Ki>  (141) 
nan

>  <PDBbind_Kd_Or_Ki_Or_Ic50>  (141) 
nan

>  <PDBbind_Relation>  (141) 
nan

>  <PDBbind_Value>  (141) 
nan

>  <PDBbind_Unit>  (141) 
nan

>  <PDBbind_Standard_Value>  (141) 
nan

>  <PDBbind_Standard_Unit>  (141) 
nan

>  <PDB_Chain>  (141) 
['A']

>  <Num_Ligs>  (141) 
[1.0]

>  <Orthosteric>  (141) 
[1.0]

>  <Allosteric>  (141) 
[0.0]

>  <Pockets_Assigned>  (141) 
['A']

>  <Multisite>  (141) 
[False]

>  <Same_Number>  (141) 
True

>  <Same_Binding_Site>  (141) 
True

>  <Same_Orientation>  (141) 
True

>  <Lig_Order_in_.pdb>  (141) 
Orthosteric

$$$$

     RDKit          2D

 12 12  0  0  0  0  0  0  0  0999 V2000
    3.7500   -1.2990    0.0000 C   0  0  0  0  0  0  0  0  0  0  0  0
    3.0000    0.0000    0.0000 N   0  0  0  0  0  0  0  0  0  0  0  0
    3.7500    1.2990    0.0000 C   0  0  0  0  0  0  0  0  0  0  0  0
    1.5000    0.0000    0.0000 C   0  0  0  0  0  0  0  0  0  0  0  0
    0.7500   -1.2990    0.0000 C   0  0  0  0  0  0  0  0  0  0  0  0
   -0.7500   -1.2990    0.0000 C   0  0  0  0  0  0  0  0  0  0  0  0
   -1.5000    0.0000    0.0000 C   0  0  0  0  0  0  0  0  0  0  0  0
   -0.7500    1.2990    0.0000 C   0  0  0  0  0  0  0  0  0  0  0  0
    0.7500    1.2990    0.0000 N   0  0  0  0  0  0  0  0  0  0  0  0
   -3.0000    0.0000    0.0000 C   0  0  0  0  0  0  0  0  0  0  0  0
   -3.7500   -1.2990    0.0000 O   0  0  0  0  0  0  0  0  0  0  0  0
   -3.7500    1.2990    0.0000 O   0  0  0  0  0  0  0  0  0  0  0  0
  1  2  1  0
  2  3  1  0
  2  4  1  0
  4  5  2  0
  5  6  1  0
  6  7  2  0
  7  8  1  0
  8  9  2  0
  7 10  1  0
 10 11  2  0
 10 12  1  0
  9  4  1  0
M  END
>  <Structure>  (142) 
5N3E

>  <Dataset>  (142) 
PDB

>  <Chain>  (142) 
A

>  <Spatial_Label>  (142) 
DFGin

>  <Dihedral_Label>  (142) 
BLAminus

>  <C_Helix_Label>  (142) 
Chelix-in

>  <Lig_ID>  (142) 
46L

>  <Lig_Entity_ID>  (142) 
5N3E_3

>  <Lig_Name>  (142) 
6-(dimethylamino)pyridine-3-carboxylic acid

>  <Lig_Formula>  (142) 
C8H10N2O2

>  <Lig_SMILES>  (142) 
CN(C)c1ccc(cn1)C(=O)O

>  <Lig_MW>  (142) 
166.177

>  <Lig_ChEMBL_ID>  (142) 
['CHEMBL394288']

>  <Lig_DrugBank_ID>  (142) 
nan

>  <Occurence>  (142) 
1.0

>  <Lig_SMILES_Uncharged>  (142) 
CN(C)c1ccc(C(=O)O)cn1

>  <Lig_Conformer>  (142) 
['NaN']

>  <Lig_Of_Interest>  (142) 
['Y']

>  <Lig_Completeness>  (142) 
[1.0]

>  <Lig_Occupancy>  (142) 
[1.0]

>  <Lig_RSCC>  (142) 
[0.98]

>  <Lig_RSR>  (142) 
[0.063]

>  <Lig_RMSZ_Bonds>  (142) 
[1.24]

>  <Lig_RMSZ_Angles>  (142) 
[0.76]

>  <Lig_Alt_Conf>  (142) 
0.0

>  <Title>  (142) 
cAMP-dependent Protein Kinase A from Cricetulus griseus in complex with fragment like molecule 6-dimethylaminopyridine-3-carboxylic acid

>  <Nonpolymer_Entity_Count>  (142) 
3.0

>  <Protein_Entity_Count>  (142) 
2.0

>  <Exp_Method>  (142) 
X-Ray Diffraction

>  <Cryst_Method>  (142) 
Vapor Diffusion, Sitting Drop; Mes-Bis-Tris
Mega8-Solution
Dtt
Edta
Licl
Methanol

>  <Deposit_Date>  (142) 
2017-02-08

>  <Resolution>  (142) 
1.529

>  <DOI>  (142) 
https://doi.org/10.1002/anie.202011295

>  <Source_Organism>  (142) 
Cricetulus griseus

>  <R_Free>  (142) 
0.1846

>  <Keywords>  (142) 
Transferase

>  <REMARK_280>  (142) 
 Crystal Solvent Content, Vs (%): 57.00 Matthews Coefficient, Vm (Angstroms**3/Da): 2.83 Crystallization Conditions: Mes-Bis-Tris Mega8-Solution Dtt Edta Licl Methanol, pH 6.9, Vapor Diffusion, Sitting Drop, Temperature 277K 

>  <REMARK_610>  (142) 
nan

>  <pH>  (142) 
6.9

>  <Cryst_Technique>  (142) 
soaked

>  <Sequence>  (142) 
GHMGNAAAAKKGSEQESVKEFLAKAKEEFLKKWESPSQNTAQLDHFDRIKTLGTGSFGRVMLVKHKETGNHYAMKILDKQKVVKLKQIEHTLNEKRILQAVNFPFLVKLEFSFKDNSNLYMVMEYVPGGEMFSHLRRIGRFSEPHARFYAAQIVLTFEYLHSLDLIYRDLKPENLLIDQQGYIQVTDFGFAKRVKGRTWTLCGTPEYLAPEIILSKGYNKAVDWWALGVLIYEMAAGYPPFFADQPIQIYEKIVSGKVRFPSHFSSDLKDLLRNLLQVDLTKRFGNLKNGVNDIKNHKWFATTDWIAIYQRKVEAPFIPKFKGPGDTSNFDDYEEEEIRVSINEKCGKEFTEF

>  <Sequence_Length>  (142) 
353.0

>  <Mutation_Count>  (142) 
0.0

>  <Gene_Name>  (142) 
PKACA

>  <MW>  (142) 
41.194

>  <Name>  (142) 
cAMP-Dependent Protein Kinase Catalytic Subunit Alpha

>  <Mutations>  (142) 
nan

>  <EC_Number>  (142) 
2.7.11.11

>  <Peptidic_Inhibitor>  (142) 
True

>  <Lig_Missing_Atoms>  (142) 
['No']

>  <PDBbind_Resolution>  (142) 
nan

>  <PDBbind_Release_Year>  (142) 
nan

>  <PDBbind_Comment>  (142) 
nan

>  <PDBbind_Uniprot_Id>  (142) 
nan

>  <PDBbind_Protein_Name>  (142) 
nan

>  <PDBbind_-Logkd/Ki>  (142) 
nan

>  <PDBbind_Kd/Ki>  (142) 
nan

>  <PDBbind_Kd_Or_Ki_Or_Ic50>  (142) 
nan

>  <PDBbind_Relation>  (142) 
nan

>  <PDBbind_Value>  (142) 
nan

>  <PDBbind_Unit>  (142) 
nan

>  <PDBbind_Standard_Value>  (142) 
nan

>  <PDBbind_Standard_Unit>  (142) 
nan

>  <PDB_Chain>  (142) 
['A']

>  <Num_Ligs>  (142) 
[1.0]

>  <Orthosteric>  (142) 
[1.0]

>  <Allosteric>  (142) 
[0.0]

>  <Pockets_Assigned>  (142) 
['A']

>  <Multisite>  (142) 
[False]

>  <Same_Number>  (142) 
True

>  <Same_Binding_Site>  (142) 
True

>  <Same_Orientation>  (142) 
True

>  <Lig_Order_in_.pdb>  (142) 
Orthosteric

$$$$

     RDKit          2D

 12 12  0  0  0  0  0  0  0  0999 V2000
    5.2500   -1.2990    0.0000 C   0  0  0  0  0  0  0  0  0  0  0  0
    3.7500   -1.2990    0.0000 C   0  0  0  0  0  0  0  0  0  0  0  0
    3.0000   -2.5981    0.0000 O   0  0  0  0  0  0  0  0  0  0  0  0
    3.0000    0.0000    0.0000 N   0  0  0  0  0  0  0  0  0  0  0  0
    1.5000    0.0000    0.0000 C   0  0  0  0  0  0  0  0  0  0  0  0
    0.7500   -1.2990    0.0000 C   0  0  0  0  0  0  0  0  0  0  0  0
   -0.7500   -1.2990    0.0000 C   0  0  0  0  0  0  0  0  0  0  0  0
   -1.5000    0.0000    0.0000 C   0  0  0  0  0  0  0  0  0  0  0  0
   -0.7500    1.2990    0.0000 C   0  0  0  0  0  0  0  0  0  0  0  0
    0.7500    1.2990    0.0000 C   0  0  0  0  0  0  0  0  0  0  0  0
   -1.5000    2.5981    0.0000 C   0  0  0  0  0  0  0  0  0  0  0  0
   -0.7500    3.8971    0.0000 N   0  0  0  0  0  0  0  0  0  0  0  0
  1  2  1  0
  2  3  2  0
  2  4  1  0
  4  5  1  0
  5  6  2  0
  6  7  1  0
  7  8  2  0
  8  9  1  0
  9 10  2  0
  9 11  1  0
 11 12  1  0
 10  5  1  0
M  END
>  <Structure>  (143) 
5N3F

>  <Dataset>  (143) 
PDB

>  <Chain>  (143) 
A

>  <Spatial_Label>  (143) 
DFGin

>  <Dihedral_Label>  (143) 
BLAminus

>  <C_Helix_Label>  (143) 
Chelix-in

>  <Lig_ID>  (143) 
463

>  <Lig_Entity_ID>  (143) 
5N3F_4

>  <Lig_Name>  (143) 
N-[3-(aminomethyl)phenyl]acetamide

>  <Lig_Formula>  (143) 
C9H12N2O

>  <Lig_SMILES>  (143) 
CC(=O)Nc1cccc(c1)CN

>  <Lig_MW>  (143) 
164.204

>  <Lig_ChEMBL_ID>  (143) 
nan

>  <Lig_DrugBank_ID>  (143) 
nan

>  <Occurence>  (143) 
1.0

>  <Lig_SMILES_Uncharged>  (143) 
CC(=O)Nc1cccc(CN)c1

>  <Lig_Conformer>  (143) 
['NaN', 'NaN']

>  <Lig_Of_Interest>  (143) 
['Y', 'Y']

>  <Lig_Completeness>  (143) 
[1.0, 1.0]

>  <Lig_Occupancy>  (143) 
[1.0, 1.0]

>  <Lig_RSCC>  (143) 
[0.937, 0.764]

>  <Lig_RSR>  (143) 
[0.126, 0.235]

>  <Lig_RMSZ_Bonds>  (143) 
[0.2, 0.4]

>  <Lig_RMSZ_Angles>  (143) 
[0.25, 0.49]

>  <Lig_Alt_Conf>  (143) 
0.0

>  <Title>  (143) 
cAMP-dependent Protein Kinase A from Cricetulus griseus in complex with fragment like molecule N-[3-(aminomethyl)phenyl]acetamide

>  <Nonpolymer_Entity_Count>  (143) 
4.0

>  <Protein_Entity_Count>  (143) 
2.0

>  <Exp_Method>  (143) 
X-Ray Diffraction

>  <Cryst_Method>  (143) 
Vapor Diffusion, Sitting Drop; Mes-Bis-Tris
Mega8-Solution
Dtt
Edta
Licl
Methanol

>  <Deposit_Date>  (143) 
2017-02-08

>  <Resolution>  (143) 
1.68

>  <DOI>  (143) 
nan

>  <Source_Organism>  (143) 
Cricetulus griseus

>  <R_Free>  (143) 
0.1929

>  <Keywords>  (143) 
Transferase

>  <REMARK_280>  (143) 
 Crystal Solvent Content, Vs (%): 57.00 Matthews Coefficient, Vm (Angstroms**3/Da): 2.84 Crystallization Conditions: Mes-Bis-Tris Mega8-Solution Dtt Edta Licl Methanol, pH 6.9, Vapor Diffusion, Sitting Drop, Temperature 277K 

>  <REMARK_610>  (143) 
nan

>  <pH>  (143) 
6.9

>  <Cryst_Technique>  (143) 
nan

>  <Sequence>  (143) 
GHMGNAAAAKKGSEQESVKEFLAKAKEEFLKKWESPSQNTAQLDHFDRIKTLGTGSFGRVMLVKHKETGNHYAMKILDKQKVVKLKQIEHTLNEKRILQAVNFPFLVKLEFSFKDNSNLYMVMEYVPGGEMFSHLRRIGRFSEPHARFYAAQIVLTFEYLHSLDLIYRDLKPENLLIDQQGYIQVTDFGFAKRVKGRTWTLCGTPEYLAPEIILSKGYNKAVDWWALGVLIYEMAAGYPPFFADQPIQIYEKIVSGKVRFPSHFSSDLKDLLRNLLQVDLTKRFGNLKNGVNDIKNHKWFATTDWIAIYQRKVEAPFIPKFKGPGDTSNFDDYEEEEIRVSINEKCGKEFTEF

>  <Sequence_Length>  (143) 
353.0

>  <Mutation_Count>  (143) 
0.0

>  <Gene_Name>  (143) 
PKACA

>  <MW>  (143) 
41.194

>  <Name>  (143) 
cAMP-Dependent Protein Kinase Catalytic Subunit Alpha

>  <Mutations>  (143) 
nan

>  <EC_Number>  (143) 
2.7.11.11

>  <Peptidic_Inhibitor>  (143) 
True

>  <Lig_Missing_Atoms>  (143) 
['No', 'No']

>  <PDBbind_Resolution>  (143) 
nan

>  <PDBbind_Release_Year>  (143) 
nan

>  <PDBbind_Comment>  (143) 
nan

>  <PDBbind_Uniprot_Id>  (143) 
nan

>  <PDBbind_Protein_Name>  (143) 
nan

>  <PDBbind_-Logkd/Ki>  (143) 
nan

>  <PDBbind_Kd/Ki>  (143) 
nan

>  <PDBbind_Kd_Or_Ki_Or_Ic50>  (143) 
nan

>  <PDBbind_Relation>  (143) 
nan

>  <PDBbind_Value>  (143) 
nan

>  <PDBbind_Unit>  (143) 
nan

>  <PDBbind_Standard_Value>  (143) 
nan

>  <PDBbind_Standard_Unit>  (143) 
nan

>  <PDB_Chain>  (143) 
['A']

>  <Num_Ligs>  (143) 
[2.0]

>  <Orthosteric>  (143) 
[1.0]

>  <Allosteric>  (143) 
[1.0]

>  <Pockets_Assigned>  (143) 
['A, X']

>  <Multisite>  (143) 
[True]

>  <Same_Number>  (143) 
True

>  <Same_Binding_Site>  (143) 
True

>  <Same_Orientation>  (143) 
True

>  <Lig_Order_in_.pdb>  (143) 
Orthosteric, Allosteric

$$$$

     RDKit          2D

  8  8  0  0  0  0  0  0  0  0999 V2000
    1.7286    0.0000    0.0000 C   0  0  0  0  0  0  0  0  0  0  0  0
    1.0777    1.3515    0.0000 C   0  0  0  0  0  0  0  0  0  0  0  0
   -0.3846    1.6852    0.0000 O   0  0  0  0  0  0  0  0  0  0  0  0
   -1.5574    0.7500    0.0000 C   0  0  0  0  0  0  0  0  0  0  0  0
   -1.5574   -0.7500    0.0000 C   0  0  0  0  0  0  0  0  0  0  0  0
   -0.3846   -1.6852    0.0000 C   0  0  0  0  0  0  0  0  0  0  0  0
    1.0777   -1.3515    0.0000 N   0  0  0  0  0  0  0  0  0  0  0  0
   -2.9088   -1.4008    0.0000 O   0  0  0  0  0  0  0  0  0  0  0  0
  1  2  1  0
  2  3  1  0
  3  4  1  0
  4  5  1  0
  5  6  1  0
  6  7  1  0
  5  8  1  1
  7  1  1  0
M  END
>  <Structure>  (144) 
5N3G

>  <Dataset>  (144) 
PDB

>  <Chain>  (144) 
A

>  <Spatial_Label>  (144) 
DFGin

>  <Dihedral_Label>  (144) 
BLAminus

>  <C_Helix_Label>  (144) 
Chelix-in

>  <Lig_ID>  (144) 
8KB

>  <Lig_Entity_ID>  (144) 
5N3G_2

>  <Lig_Name>  (144) 
(6~{R})-1,4-oxazepan-6-ol

>  <Lig_Formula>  (144) 
C5H11NO2

>  <Lig_SMILES>  (144) 
C1COC[C@@H](CN1)O

>  <Lig_MW>  (144) 
117.146

>  <Lig_ChEMBL_ID>  (144) 
nan

>  <Lig_DrugBank_ID>  (144) 
nan

>  <Occurence>  (144) 
1.0

>  <Lig_SMILES_Uncharged>  (144) 
O[C@@H]1CNCCOC1

>  <Lig_Conformer>  (144) 
['NaN', 'NaN']

>  <Lig_Of_Interest>  (144) 
['N', 'N']

>  <Lig_Completeness>  (144) 
[1.0, 1.0]

>  <Lig_Occupancy>  (144) 
[1.0, 1.0]

>  <Lig_RSCC>  (144) 
[0.842, 0.694]

>  <Lig_RSR>  (144) 
[0.241, 0.152]

>  <Lig_RMSZ_Bonds>  (144) 
[0.36, 0.34]

>  <Lig_RMSZ_Angles>  (144) 
[1.33, 0.96]

>  <Lig_Alt_Conf>  (144) 
0.0

>  <Title>  (144) 
cAMP-dependent Protein Kinase A from Cricetulus griseus in complex with fragment like molecule (R)-1,4-oxazepan-6-ol

>  <Nonpolymer_Entity_Count>  (144) 
4.0

>  <Protein_Entity_Count>  (144) 
1.0

>  <Exp_Method>  (144) 
X-Ray Diffraction

>  <Cryst_Method>  (144) 
Vapor Diffusion, Sitting Drop; Mes-Bis-Tris
Mega8-Solution
Dtt
Edta
Licl
Methanol

>  <Deposit_Date>  (144) 
2017-02-08

>  <Resolution>  (144) 
1.16

>  <DOI>  (144) 
nan

>  <Source_Organism>  (144) 
Cricetulus griseus

>  <R_Free>  (144) 
0.1567

>  <Keywords>  (144) 
Transferase

>  <REMARK_280>  (144) 
 Crystal Solvent Content, Vs (%): 45.00 Matthews Coefficient, Vm (Angstroms**3/Da): 2.22 Crystallization Conditions: Mes-Bis-Tris Mega8-Solution Dtt Edta Licl Methanol, pH 6.9, Vapor Diffusion, Sitting Drop, Temperature 277K 

>  <REMARK_610>  (144) 
nan

>  <pH>  (144) 
6.9

>  <Cryst_Technique>  (144) 
nan

>  <Sequence>  (144) 
GHMGNAAAAKKGSEQESVKEFLAKAKEEFLKKWESPSQNTAQLDHFDRIKTLGTGSFGRVMLVKHKETGNHYAMKILDKQKVVKLKQIEHTLNEKRILQAVNFPFLVKLEFSFKDNSNLYMVMEYVPGGEMFSHLRRIGRFSEPHARFYAAQIVLTFEYLHSLDLIYRDLKPENLLIDQQGYIQVTDFGFAKRVKGRTWTLCGTPEYLAPEIILSKGYNKAVDWWALGVLIYEMAAGYPPFFADQPIQIYEKIVSGKVRFPSHFSSDLKDLLRNLLQVDLTKRFGNLKNGVNDIKNHKWFATTDWIAIYQRKVEAPFIPKFKGPGDTSNFDDYEEEEIRVSINEKCGKEFTEF

>  <Sequence_Length>  (144) 
353.0

>  <Mutation_Count>  (144) 
0.0

>  <Gene_Name>  (144) 
PKACA

>  <MW>  (144) 
41.194

>  <Name>  (144) 
cAMP-Dependent Protein Kinase Catalytic Subunit Alpha

>  <Mutations>  (144) 
nan

>  <EC_Number>  (144) 
2.7.11.11

>  <Peptidic_Inhibitor>  (144) 
False

>  <Lig_Missing_Atoms>  (144) 
['No', 'No']

>  <PDBbind_Resolution>  (144) 
nan

>  <PDBbind_Release_Year>  (144) 
nan

>  <PDBbind_Comment>  (144) 
nan

>  <PDBbind_Uniprot_Id>  (144) 
nan

>  <PDBbind_Protein_Name>  (144) 
nan

>  <PDBbind_-Logkd/Ki>  (144) 
nan

>  <PDBbind_Kd/Ki>  (144) 
nan

>  <PDBbind_Kd_Or_Ki_Or_Ic50>  (144) 
nan

>  <PDBbind_Relation>  (144) 
nan

>  <PDBbind_Value>  (144) 
nan

>  <PDBbind_Unit>  (144) 
nan

>  <PDBbind_Standard_Value>  (144) 
nan

>  <PDBbind_Standard_Unit>  (144) 
nan

>  <PDB_Chain>  (144) 
['A']

>  <Num_Ligs>  (144) 
[2.0]

>  <Orthosteric>  (144) 
[1.0]

>  <Allosteric>  (144) 
[1.0]

>  <Pockets_Assigned>  (144) 
['A, X']

>  <Multisite>  (144) 
[True]

>  <Same_Number>  (144) 
True

>  <Same_Binding_Site>  (144) 
True

>  <Same_Orientation>  (144) 
True

>  <Lig_Order_in_.pdb>  (144) 
Orthosteric, Allosteric

$$$$

     RDKit          2D

  9  9  0  0  0  0  0  0  0  0999 V2000
    1.5000    0.0000    0.0000 C   0  0  0  0  0  0  0  0  0  0  0  0
    0.7500   -1.2990    0.0000 C   0  0  0  0  0  0  0  0  0  0  0  0
   -0.7500   -1.2990    0.0000 C   0  0  0  0  0  0  0  0  0  0  0  0
   -1.5000    0.0000    0.0000 C   0  0  0  0  0  0  0  0  0  0  0  0
   -0.7500    1.2990    0.0000 N   0  0  0  0  0  0  0  0  0  0  0  0
    0.7500    1.2990    0.0000 C   0  0  0  0  0  0  0  0  0  0  0  0
   -1.5000   -2.5981    0.0000 C   0  0  0  0  0  0  0  0  0  0  0  0
   -0.7500   -3.8971    0.0000 O   0  0  0  0  0  0  0  0  0  0  0  0
   -3.0000   -2.5981    0.0000 N   0  0  0  0  0  0  0  0  0  0  0  0
  1  2  2  0
  2  3  1  0
  3  4  2  0
  4  5  1  0
  5  6  2  0
  3  7  1  0
  7  8  2  0
  7  9  1  0
  6  1  1  0
M  END
>  <Structure>  (145) 
5N3H

>  <Dataset>  (145) 
PDB

>  <Chain>  (145) 
A

>  <Spatial_Label>  (145) 
DFGin

>  <Dihedral_Label>  (145) 
BLAminus

>  <C_Helix_Label>  (145) 
Chelix-in

>  <Lig_ID>  (145) 
NCA

>  <Lig_Entity_ID>  (145) 
5N3H_2

>  <Lig_Name>  (145) 
NICOTINAMIDE

>  <Lig_Formula>  (145) 
C6H6N2O

>  <Lig_SMILES>  (145) 
c1cc(cnc1)C(=O)N

>  <Lig_MW>  (145) 
122.125

>  <Lig_ChEMBL_ID>  (145) 
['CHEMBL1140']

>  <Lig_DrugBank_ID>  (145) 
['DB02701']

>  <Occurence>  (145) 
1.0

>  <Lig_SMILES_Uncharged>  (145) 
NC(=O)c1cccnc1

>  <Lig_Conformer>  (145) 
['NaN']

>  <Lig_Of_Interest>  (145) 
['N']

>  <Lig_Completeness>  (145) 
[1.0]

>  <Lig_Occupancy>  (145) 
[1.0]

>  <Lig_RSCC>  (145) 
[0.915]

>  <Lig_RSR>  (145) 
[0.098]

>  <Lig_RMSZ_Bonds>  (145) 
[0.23]

>  <Lig_RMSZ_Angles>  (145) 
[0.35]

>  <Lig_Alt_Conf>  (145) 
0.0

>  <Title>  (145) 
cAMP-dependent Protein Kinase A from Cricetulus griseus in complex with fragment like molecule pyridine-3-carboxamide

>  <Nonpolymer_Entity_Count>  (145) 
4.0

>  <Protein_Entity_Count>  (145) 
1.0

>  <Exp_Method>  (145) 
X-Ray Diffraction

>  <Cryst_Method>  (145) 
Vapor Diffusion, Sitting Drop; Mes-Bis-Tris
Mega8-Solution
Dtt
Edta
Licl
Methanol

>  <Deposit_Date>  (145) 
2017-02-08

>  <Resolution>  (145) 
1.36

>  <DOI>  (145) 
https://doi.org/10.1002/anie.202011295

>  <Source_Organism>  (145) 
Cricetulus griseus

>  <R_Free>  (145) 
0.1742

>  <Keywords>  (145) 
Transferase

>  <REMARK_280>  (145) 
 Crystal Solvent Content, Vs (%): 45.00 Matthews Coefficient, Vm (Angstroms**3/Da): 2.22 Crystallization Conditions: Mes-Bis-Tris Mega8-Solution Dtt Edta Licl Methanol, pH 6.9, Vapor Diffusion, Sitting Drop, Temperature 277K 

>  <REMARK_610>  (145) 
nan

>  <pH>  (145) 
6.9

>  <Cryst_Technique>  (145) 
soaked

>  <Sequence>  (145) 
GHMGNAAAAKKGSEQESVKEFLAKAKEEFLKKWESPSQNTAQLDHFDRIKTLGTGSFGRVMLVKHKETGNHYAMKILDKQKVVKLKQIEHTLNEKRILQAVNFPFLVKLEFSFKDNSNLYMVMEYVPGGEMFSHLRRIGRFSEPHARFYAAQIVLTFEYLHSLDLIYRDLKPENLLIDQQGYIQVTDFGFAKRVKGRTWTLCGTPEYLAPEIILSKGYNKAVDWWALGVLIYEMAAGYPPFFADQPIQIYEKIVSGKVRFPSHFSSDLKDLLRNLLQVDLTKRFGNLKNGVNDIKNHKWFATTDWIAIYQRKVEAPFIPKFKGPGDTSNFDDYEEEEIRVSINEKCGKEFTEF

>  <Sequence_Length>  (145) 
353.0

>  <Mutation_Count>  (145) 
0.0

>  <Gene_Name>  (145) 
PKACA

>  <MW>  (145) 
41.194

>  <Name>  (145) 
cAMP-Dependent Protein Kinase Catalytic Subunit Alpha

>  <Mutations>  (145) 
nan

>  <EC_Number>  (145) 
2.7.11.11

>  <Peptidic_Inhibitor>  (145) 
False

>  <Lig_Missing_Atoms>  (145) 
['No']

>  <PDBbind_Resolution>  (145) 
nan

>  <PDBbind_Release_Year>  (145) 
nan

>  <PDBbind_Comment>  (145) 
nan

>  <PDBbind_Uniprot_Id>  (145) 
nan

>  <PDBbind_Protein_Name>  (145) 
nan

>  <PDBbind_-Logkd/Ki>  (145) 
nan

>  <PDBbind_Kd/Ki>  (145) 
nan

>  <PDBbind_Kd_Or_Ki_Or_Ic50>  (145) 
nan

>  <PDBbind_Relation>  (145) 
nan

>  <PDBbind_Value>  (145) 
nan

>  <PDBbind_Unit>  (145) 
nan

>  <PDBbind_Standard_Value>  (145) 
nan

>  <PDBbind_Standard_Unit>  (145) 
nan

>  <PDB_Chain>  (145) 
['A']

>  <Num_Ligs>  (145) 
[1.0]

>  <Orthosteric>  (145) 
[1.0]

>  <Allosteric>  (145) 
[0.0]

>  <Pockets_Assigned>  (145) 
['A']

>  <Multisite>  (145) 
[False]

>  <Same_Number>  (145) 
True

>  <Same_Binding_Site>  (145) 
True

>  <Same_Orientation>  (145) 
True

>  <Lig_Order_in_.pdb>  (145) 
Orthosteric

$$$$

     RDKit          2D

 13 13  0  0  0  0  0  0  0  0999 V2000
    7.5000   -2.5981    0.0000 C   0  0  0  0  0  0  0  0  0  0  0  0
    6.0000   -2.5981    0.0000 O   0  0  0  0  0  0  0  0  0  0  0  0
    5.2500   -1.2990    0.0000 C   0  0  0  0  0  0  0  0  0  0  0  0
    6.0000    0.0000    0.0000 O   0  0  0  0  0  0  0  0  0  0  0  0
    3.7500   -1.2990    0.0000 C   0  0  0  0  0  0  0  0  0  0  0  0
    3.0000    0.0000    0.0000 C   0  0  0  0  0  0  0  0  0  0  0  0
    1.5000    0.0000    0.0000 C   0  0  0  0  0  0  0  0  0  0  0  0
    0.7500   -1.2990    0.0000 C   0  0  0  0  0  0  0  0  0  0  0  0
   -0.7500   -1.2990    0.0000 C   0  0  0  0  0  0  0  0  0  0  0  0
   -1.5000    0.0000    0.0000 C   0  0  0  0  0  0  0  0  0  0  0  0
   -0.7500    1.2990    0.0000 C   0  0  0  0  0  0  0  0  0  0  0  0
    0.7500    1.2990    0.0000 C   0  0  0  0  0  0  0  0  0  0  0  0
    3.0000   -2.5981    0.0000 N   0  0  0  0  0  4  0  0  0  0  0  0
  1  2  1  0
  2  3  1  0
  3  4  2  0
  3  5  1  0
  5  6  1  0
  6  7  1  0
  7  8  2  0
  8  9  1  0
  9 10  2  0
 10 11  1  0
 11 12  2  0
  5 13  1  1
 12  7  1  0
M  CHG  1  13   1
M  END
>  <Structure>  (146) 
5N3I

>  <Dataset>  (146) 
PDB

>  <Chain>  (146) 
A

>  <Spatial_Label>  (146) 
DFGin

>  <Dihedral_Label>  (146) 
BLAminus

>  <C_Helix_Label>  (146) 
Chelix-in

>  <Lig_ID>  (146) 
BJQ

>  <Lig_Entity_ID>  (146) 
5N3I_3

>  <Lig_Name>  (146) 
[(2~{S})-1-methoxy-1-oxidanylidene-3-phenyl-propan-2-yl]azanium

>  <Lig_Formula>  (146) 
C10H14NO2

>  <Lig_SMILES>  (146) 
COC(=O)[C@H](Cc1ccccc1)[NH3+]

>  <Lig_MW>  (146) 
180.224

>  <Lig_ChEMBL_ID>  (146) 
nan

>  <Lig_DrugBank_ID>  (146) 
nan

>  <Occurence>  (146) 
1.0

>  <Lig_SMILES_Uncharged>  (146) 
COC(=O)[C@@H](N)Cc1ccccc1

>  <Lig_Conformer>  (146) 
['NaN']

>  <Lig_Of_Interest>  (146) 
['Y']

>  <Lig_Completeness>  (146) 
[1.0]

>  <Lig_Occupancy>  (146) 
[1.0]

>  <Lig_RSCC>  (146) 
[0.984]

>  <Lig_RSR>  (146) 
[0.048]

>  <Lig_RMSZ_Bonds>  (146) 
[0.19]

>  <Lig_RMSZ_Angles>  (146) 
[0.39]

>  <Lig_Alt_Conf>  (146) 
0.0

>  <Title>  (146) 
cAMP-dependent Protein Kinase A from Cricetulus griseus in complex with fragment like molecule methyl (2S)-2-amino-3-phenylpropanoate

>  <Nonpolymer_Entity_Count>  (146) 
4.0

>  <Protein_Entity_Count>  (146) 
1.0

>  <Exp_Method>  (146) 
X-Ray Diffraction

>  <Cryst_Method>  (146) 
Vapor Diffusion, Sitting Drop; Mes-Bis-Tris
Mega8-Solution
Dtt
Edta
Licl
Methanol

>  <Deposit_Date>  (146) 
2017-02-08

>  <Resolution>  (146) 
1.14

>  <DOI>  (146) 
nan

>  <Source_Organism>  (146) 
Cricetulus griseus

>  <R_Free>  (146) 
0.1506

>  <Keywords>  (146) 
Transferase

>  <REMARK_280>  (146) 
 Crystal Solvent Content, Vs (%): 45.00 Matthews Coefficient, Vm (Angstroms**3/Da): 2.22 Crystallization Conditions: Mes-Bis-Tris Mega8-Solution Dtt Edta Licl Methanol, pH 6.9, Vapor Diffusion, Sitting Drop, Temperature 277K 

>  <REMARK_610>  (146) 
nan

>  <pH>  (146) 
6.9

>  <Cryst_Technique>  (146) 
nan

>  <Sequence>  (146) 
GHMGNAAAAKKGSEQESVKEFLAKAKEEFLKKWESPSQNTAQLDHFDRIKTLGTGSFGRVMLVKHKETGNHYAMKILDKQKVVKLKQIEHTLNEKRILQAVNFPFLVKLEFSFKDNSNLYMVMEYVPGGEMFSHLRRIGRFSEPHARFYAAQIVLTFEYLHSLDLIYRDLKPENLLIDQQGYIQVTDFGFAKRVKGRTWTLCGTPEYLAPEIILSKGYNKAVDWWALGVLIYEMAAGYPPFFADQPIQIYEKIVSGKVRFPSHFSSDLKDLLRNLLQVDLTKRFGNLKNGVNDIKNHKWFATTDWIAIYQRKVEAPFIPKFKGPGDTSNFDDYEEEEIRVSINEKCGKEFTEF

>  <Sequence_Length>  (146) 
353.0

>  <Mutation_Count>  (146) 
0.0

>  <Gene_Name>  (146) 
PKACA

>  <MW>  (146) 
41.194

>  <Name>  (146) 
cAMP-Dependent Protein Kinase Catalytic Subunit Alpha

>  <Mutations>  (146) 
nan

>  <EC_Number>  (146) 
2.7.11.11

>  <Peptidic_Inhibitor>  (146) 
False

>  <Lig_Missing_Atoms>  (146) 
['No']

>  <PDBbind_Resolution>  (146) 
nan

>  <PDBbind_Release_Year>  (146) 
nan

>  <PDBbind_Comment>  (146) 
nan

>  <PDBbind_Uniprot_Id>  (146) 
nan

>  <PDBbind_Protein_Name>  (146) 
nan

>  <PDBbind_-Logkd/Ki>  (146) 
nan

>  <PDBbind_Kd/Ki>  (146) 
nan

>  <PDBbind_Kd_Or_Ki_Or_Ic50>  (146) 
nan

>  <PDBbind_Relation>  (146) 
nan

>  <PDBbind_Value>  (146) 
nan

>  <PDBbind_Unit>  (146) 
nan

>  <PDBbind_Standard_Value>  (146) 
nan

>  <PDBbind_Standard_Unit>  (146) 
nan

>  <PDB_Chain>  (146) 
['A']

>  <Num_Ligs>  (146) 
[1.0]

>  <Orthosteric>  (146) 
[0.0]

>  <Allosteric>  (146) 
[1.0]

>  <Pockets_Assigned>  (146) 
['X']

>  <Multisite>  (146) 
[False]

>  <Same_Number>  (146) 
True

>  <Same_Binding_Site>  (146) 
True

>  <Same_Orientation>  (146) 
True

>  <Lig_Order_in_.pdb>  (146) 
Allosteric

$$$$

     RDKit          2D

 12 12  0  0  0  0  0  0  0  0999 V2000
    1.5000    0.0000    0.0000 C   0  0  0  0  0  0  0  0  0  0  0  0
    0.7500   -1.2990    0.0000 C   0  0  0  0  0  0  0  0  0  0  0  0
   -0.7500   -1.2990    0.0000 C   0  0  0  0  0  0  0  0  0  0  0  0
   -1.5000    0.0000    0.0000 C   0  0  0  0  0  0  0  0  0  0  0  0
   -0.7500    1.2990    0.0000 C   0  0  0  0  0  0  0  0  0  0  0  0
    0.7500    1.2990    0.0000 C   0  0  0  0  0  0  0  0  0  0  0  0
    1.5000    2.5981    0.0000 C   0  0  0  0  0  0  0  0  0  0  0  0
    0.7500    3.8971    0.0000 O   0  0  0  0  0  0  0  0  0  0  0  0
    3.0000    2.5981    0.0000 O   0  0  0  0  0  0  0  0  0  0  0  0
   -1.5000   -2.5981    0.0000 N   0  0  0  0  0  4  0  0  0  0  0  0
   -0.7500   -3.8971    0.0000 O   0  0  0  0  0  0  0  0  0  0  0  0
   -3.0000   -2.5981    0.0000 O   0  0  0  0  0  1  0  0  0  0  0  0
  1  2  2  0
  2  3  1  0
  3  4  2  0
  4  5  1  0
  5  6  2  0
  6  7  1  0
  7  8  2  0
  7  9  1  0
  3 10  1  0
 10 11  2  0
 10 12  1  0
  6  1  1  0
M  CHG  2  10   1  12  -1
M  END
>  <Structure>  (147) 
5N3J

>  <Dataset>  (147) 
PDB

>  <Chain>  (147) 
A

>  <Spatial_Label>  (147) 
DFGin

>  <Dihedral_Label>  (147) 
BLAminus

>  <C_Helix_Label>  (147) 
Chelix-in

>  <Lig_ID>  (147) 
4NB

>  <Lig_Entity_ID>  (147) 
5N3J_3

>  <Lig_Name>  (147) 
4-NITROBENZOIC ACID

>  <Lig_Formula>  (147) 
C7H5NO4

>  <Lig_SMILES>  (147) 
c1cc(ccc1C(=O)O)[N+](=O)[O-]

>  <Lig_MW>  (147) 
167.119

>  <Lig_ChEMBL_ID>  (147) 
['CHEMBL101263']

>  <Lig_DrugBank_ID>  (147) 
nan

>  <Occurence>  (147) 
1.0

>  <Lig_SMILES_Uncharged>  (147) 
O=C(O)c1ccc([N+](=O)[O-])cc1

>  <Lig_Conformer>  (147) 
['NaN']

>  <Lig_Of_Interest>  (147) 
['Y']

>  <Lig_Completeness>  (147) 
[1.0]

>  <Lig_Occupancy>  (147) 
[1.0]

>  <Lig_RSCC>  (147) 
[0.975]

>  <Lig_RSR>  (147) 
[0.088]

>  <Lig_RMSZ_Bonds>  (147) 
[0.83]

>  <Lig_RMSZ_Angles>  (147) 
[0.76]

>  <Lig_Alt_Conf>  (147) 
0.0

>  <Title>  (147) 
cAMP-dependent Protein Kinase A from Cricetulus griseus in complex with fragment like molecule 4-Nitrobenzoic acid

>  <Nonpolymer_Entity_Count>  (147) 
4.0

>  <Protein_Entity_Count>  (147) 
1.0

>  <Exp_Method>  (147) 
X-Ray Diffraction

>  <Cryst_Method>  (147) 
Vapor Diffusion, Sitting Drop; Mes-Bis-Tris
Mega8-Solution
Dtt
Edta
Licl
Methanol

>  <Deposit_Date>  (147) 
2017-02-08

>  <Resolution>  (147) 
1.12

>  <DOI>  (147) 
https://doi.org/10.1002/anie.202011295

>  <Source_Organism>  (147) 
Cricetulus griseus

>  <R_Free>  (147) 
0.1476

>  <Keywords>  (147) 
Transferase

>  <REMARK_280>  (147) 
 Crystal Solvent Content, Vs (%): 45.00 Matthews Coefficient, Vm (Angstroms**3/Da): 2.22 Crystallization Conditions: Mes-Bis-Tris Mega8-Solution Dtt Edta Licl Methanol, pH 6.9, Vapor Diffusion, Sitting Drop, Temperature 277K 

>  <REMARK_610>  (147) 
nan

>  <pH>  (147) 
6.9

>  <Cryst_Technique>  (147) 
soaked

>  <Sequence>  (147) 
GHMGNAAAAKKGSEQESVKEFLAKAKEEFLKKWESPSQNTAQLDHFDRIKTLGTGSFGRVMLVKHKETGNHYAMKILDKQKVVKLKQIEHTLNEKRILQAVNFPFLVKLEFSFKDNSNLYMVMEYVPGGEMFSHLRRIGRFSEPHARFYAAQIVLTFEYLHSLDLIYRDLKPENLLIDQQGYIQVTDFGFAKRVKGRTWTLCGTPEYLAPEIILSKGYNKAVDWWALGVLIYEMAAGYPPFFADQPIQIYEKIVSGKVRFPSHFSSDLKDLLRNLLQVDLTKRFGNLKNGVNDIKNHKWFATTDWIAIYQRKVEAPFIPKFKGPGDTSNFDDYEEEEIRVSINEKCGKEFTEF

>  <Sequence_Length>  (147) 
353.0

>  <Mutation_Count>  (147) 
0.0

>  <Gene_Name>  (147) 
PKACA

>  <MW>  (147) 
41.194

>  <Name>  (147) 
cAMP-Dependent Protein Kinase Catalytic Subunit Alpha

>  <Mutations>  (147) 
nan

>  <EC_Number>  (147) 
2.7.11.11

>  <Peptidic_Inhibitor>  (147) 
False

>  <Lig_Missing_Atoms>  (147) 
['No']

>  <PDBbind_Resolution>  (147) 
nan

>  <PDBbind_Release_Year>  (147) 
nan

>  <PDBbind_Comment>  (147) 
nan

>  <PDBbind_Uniprot_Id>  (147) 
nan

>  <PDBbind_Protein_Name>  (147) 
nan

>  <PDBbind_-Logkd/Ki>  (147) 
nan

>  <PDBbind_Kd/Ki>  (147) 
nan

>  <PDBbind_Kd_Or_Ki_Or_Ic50>  (147) 
nan

>  <PDBbind_Relation>  (147) 
nan

>  <PDBbind_Value>  (147) 
nan

>  <PDBbind_Unit>  (147) 
nan

>  <PDBbind_Standard_Value>  (147) 
nan

>  <PDBbind_Standard_Unit>  (147) 
nan

>  <PDB_Chain>  (147) 
['A']

>  <Num_Ligs>  (147) 
[1.0]

>  <Orthosteric>  (147) 
[1.0]

>  <Allosteric>  (147) 
[0.0]

>  <Pockets_Assigned>  (147) 
['A']

>  <Multisite>  (147) 
[False]

>  <Same_Number>  (147) 
True

>  <Same_Binding_Site>  (147) 
True

>  <Same_Orientation>  (147) 
True

>  <Lig_Order_in_.pdb>  (147) 
Orthosteric

$$$$

     RDKit          2D

 13 12  0  0  0  0  0  0  0  0999 V2000
   -0.7500   -1.2990    0.0000 H   0  0  0  0  0  0  0  0  0  0  0  0
    0.0000    0.0000    0.0000 N   0  0  0  0  0  0  0  0  0  0  0  0
    1.5000    0.0000    0.0000 C   0  0  0  0  0  0  0  0  0  0  0  0
    2.2500   -1.2990    0.0000 N   0  0  0  0  0  0  0  0  0  0  0  0
    2.2500    1.2990    0.0000 N   0  0  0  0  0  0  0  0  0  0  0  0
    3.7500    1.2990    0.0000 O   0  0  0  0  0  0  0  0  0  0  0  0
    4.5000    2.5981    0.0000 C   0  0  0  0  0  0  0  0  0  0  0  0
    6.0000    2.5981    0.0000 C   0  0  0  0  0  0  0  0  0  0  0  0
    6.7500    3.8971    0.0000 C   0  0  0  0  0  0  0  0  0  0  0  0
    8.2500    3.8971    0.0000 C   0  0  0  0  0  0  0  0  0  0  0  0
    9.0000    2.5981    0.0000 O   0  0  0  0  0  0  0  0  0  0  0  0
    9.0000    5.1962    0.0000 O   0  0  0  0  0  0  0  0  0  0  0  0
    6.0000    5.1962    0.0000 N   0  0  0  0  0  0  0  0  0  0  0  0
  1  2  1  0
  2  3  2  0
  3  4  1  0
  3  5  1  0
  5  6  1  0
  6  7  1  0
  7  8  1  0
  8  9  1  0
  9 10  1  0
 10 11  2  0
 10 12  1  0
  9 13  1  6
M  END
>  <Structure>  (148) 
5N3K

>  <Dataset>  (148) 
PDB

>  <Chain>  (148) 
A

>  <Spatial_Label>  (148) 
DFGin

>  <Dihedral_Label>  (148) 
BLAminus

>  <C_Helix_Label>  (148) 
Chelix-in

>  <Lig_ID>  (148) 
GGB

>  <Lig_Entity_ID>  (148) 
5N3K_2

>  <Lig_Name>  (148) 
L-CANAVANINE

>  <Lig_Formula>  (148) 
C5H12N4O3

>  <Lig_SMILES>  (148) 
[H]/N=C(\N)/NOCC[C@@H](C(=O)O)N

>  <Lig_MW>  (148) 
176.174

>  <Lig_ChEMBL_ID>  (148) 
['CHEMBL443732']

>  <Lig_DrugBank_ID>  (148) 
['DB01833']

>  <Occurence>  (148) 
1.0

>  <Lig_SMILES_Uncharged>  (148) 
[H]/N=C(\N)NOCC[C@H](N)C(=O)O

>  <Lig_Conformer>  (148) 
['NaN']

>  <Lig_Of_Interest>  (148) 
['Y']

>  <Lig_Completeness>  (148) 
[0.5]

>  <Lig_Occupancy>  (148) 
[0.5]

>  <Lig_RSCC>  (148) 
[0.965]

>  <Lig_RSR>  (148) 
[0.069]

>  <Lig_RMSZ_Bonds>  (148) 
[1.53]

>  <Lig_RMSZ_Angles>  (148) 
[0.69]

>  <Lig_Alt_Conf>  (148) 
0.0

>  <Title>  (148) 
cAMP-dependent Protein Kinase A from Cricetulus griseus in complex with fragment like molecule O-guanidino-L-homoserine

>  <Nonpolymer_Entity_Count>  (148) 
5.0

>  <Protein_Entity_Count>  (148) 
1.0

>  <Exp_Method>  (148) 
X-Ray Diffraction

>  <Cryst_Method>  (148) 
Vapor Diffusion, Sitting Drop; Mes-Bis-Tris
Mega8-Solution
Dtt
Edta
Licl
Methanol

>  <Deposit_Date>  (148) 
2017-02-08

>  <Resolution>  (148) 
1.33

>  <DOI>  (148) 
nan

>  <Source_Organism>  (148) 
Cricetulus griseus

>  <R_Free>  (148) 
0.1717

>  <Keywords>  (148) 
Transferase

>  <REMARK_280>  (148) 
 Crystal Solvent Content, Vs (%): 45.00 Matthews Coefficient, Vm (Angstroms**3/Da): 2.22 Crystallization Conditions: Mes-Bis-Tris Mega8-Solution Dtt Edta Licl Methanol, pH 6.9, Vapor Diffusion, Sitting Drop, Temperature 277K 

>  <REMARK_610>  (148) 
  GGB A 401 

>  <pH>  (148) 
6.9

>  <Cryst_Technique>  (148) 
nan

>  <Sequence>  (148) 
GHMGNAAAAKKGSEQESVKEFLAKAKEEFLKKWESPSQNTAQLDHFDRIKTLGTGSFGRVMLVKHKETGNHYAMKILDKQKVVKLKQIEHTLNEKRILQAVNFPFLVKLEFSFKDNSNLYMVMEYVPGGEMFSHLRRIGRFSEPHARFYAAQIVLTFEYLHSLDLIYRDLKPENLLIDQQGYIQVTDFGFAKRVKGRTWTLCGTPEYLAPEIILSKGYNKAVDWWALGVLIYEMAAGYPPFFADQPIQIYEKIVSGKVRFPSHFSSDLKDLLRNLLQVDLTKRFGNLKNGVNDIKNHKWFATTDWIAIYQRKVEAPFIPKFKGPGDTSNFDDYEEEEIRVSINEKCGKEFTEF

>  <Sequence_Length>  (148) 
353.0

>  <Mutation_Count>  (148) 
0.0

>  <Gene_Name>  (148) 
PKACA

>  <MW>  (148) 
41.194

>  <Name>  (148) 
cAMP-Dependent Protein Kinase Catalytic Subunit Alpha

>  <Mutations>  (148) 
nan

>  <EC_Number>  (148) 
2.7.11.11

>  <Peptidic_Inhibitor>  (148) 
False

>  <Lig_Missing_Atoms>  (148) 
['No']

>  <PDBbind_Resolution>  (148) 
nan

>  <PDBbind_Release_Year>  (148) 
nan

>  <PDBbind_Comment>  (148) 
nan

>  <PDBbind_Uniprot_Id>  (148) 
nan

>  <PDBbind_Protein_Name>  (148) 
nan

>  <PDBbind_-Logkd/Ki>  (148) 
nan

>  <PDBbind_Kd/Ki>  (148) 
nan

>  <PDBbind_Kd_Or_Ki_Or_Ic50>  (148) 
nan

>  <PDBbind_Relation>  (148) 
nan

>  <PDBbind_Value>  (148) 
nan

>  <PDBbind_Unit>  (148) 
nan

>  <PDBbind_Standard_Value>  (148) 
nan

>  <PDBbind_Standard_Unit>  (148) 
nan

>  <PDB_Chain>  (148) 
['A']

>  <Num_Ligs>  (148) 
[1.0]

>  <Orthosteric>  (148) 
[1.0]

>  <Allosteric>  (148) 
[0.0]

>  <Pockets_Assigned>  (148) 
['X']

>  <Multisite>  (148) 
[False]

>  <Same_Number>  (148) 
True

>  <Same_Binding_Site>  (148) 
True

>  <Same_Orientation>  (148) 
True

>  <Lig_Order_in_.pdb>  (148) 
Allosteric

$$$$

     RDKit          2D

 12 12  0  0  0  0  0  0  0  0999 V2000
    1.5000    0.0000    0.0000 C   0  0  0  0  0  0  0  0  0  0  0  0
    0.7500   -1.2990    0.0000 C   0  0  0  0  0  0  0  0  0  0  0  0
   -0.7500   -1.2990    0.0000 C   0  0  0  0  0  0  0  0  0  0  0  0
   -1.5000    0.0000    0.0000 C   0  0  0  0  0  0  0  0  0  0  0  0
   -0.7500    1.2990    0.0000 C   0  0  0  0  0  0  0  0  0  0  0  0
    0.7500    1.2990    0.0000 C   0  0  0  0  0  0  0  0  0  0  0  0
    1.5000    2.5981    0.0000 C   0  0  0  0  0  0  0  0  0  0  0  0
    3.0000    2.5981    0.0000 C   0  0  0  0  0  0  0  0  0  0  0  0
    3.7500    3.8971    0.0000 N   0  0  0  0  0  4  0  0  0  0  0  0
    0.7500    3.8971    0.0000 O   0  0  0  0  0  0  0  0  0  0  0  0
   -3.0000    0.0000    0.0000 O   0  0  0  0  0  0  0  0  0  0  0  0
   -1.5000   -2.5981    0.0000 O   0  0  0  0  0  0  0  0  0  0  0  0
  1  2  2  0
  2  3  1  0
  3  4  2  0
  4  5  1  0
  5  6  2  0
  6  7  1  0
  7  8  1  0
  8  9  1  0
  7 10  1  1
  4 11  1  0
  3 12  1  0
  6  1  1  0
M  CHG  1   9   1
M  END
>  <Structure>  (149) 
5N3L

>  <Dataset>  (149) 
PDB

>  <Chain>  (149) 
A

>  <Spatial_Label>  (149) 
DFGin

>  <Dihedral_Label>  (149) 
BLAminus

>  <C_Helix_Label>  (149) 
Chelix-in

>  <Lig_ID>  (149) 
E5E

>  <Lig_Entity_ID>  (149) 
5N3L_3

>  <Lig_Name>  (149) 
Noradrenaline

>  <Lig_Formula>  (149) 
C8H12NO3

>  <Lig_SMILES>  (149) 
c1cc(c(cc1[C@H](C[NH3+])O)O)O

>  <Lig_MW>  (149) 
170.186

>  <Lig_ChEMBL_ID>  (149) 
nan

>  <Lig_DrugBank_ID>  (149) 
nan

>  <Occurence>  (149) 
1.0

>  <Lig_SMILES_Uncharged>  (149) 
NC[C@H](O)c1ccc(O)c(O)c1

>  <Lig_Conformer>  (149) 
['NaN']

>  <Lig_Of_Interest>  (149) 
['Y']

>  <Lig_Completeness>  (149) 
[1.0]

>  <Lig_Occupancy>  (149) 
[1.0]

>  <Lig_RSCC>  (149) 
[0.976]

>  <Lig_RSR>  (149) 
[0.063]

>  <Lig_RMSZ_Bonds>  (149) 
[0.43]

>  <Lig_RMSZ_Angles>  (149) 
[0.52]

>  <Lig_Alt_Conf>  (149) 
0.0

>  <Title>  (149) 
cAMP-dependent Protein Kinase A from Cricetulus griseus in complex with fragment like molecule 4-[(1R)-2-amino-1-hydroxyethyl]benzene-1,2-diol

>  <Nonpolymer_Entity_Count>  (149) 
4.0

>  <Protein_Entity_Count>  (149) 
1.0

>  <Exp_Method>  (149) 
X-Ray Diffraction

>  <Cryst_Method>  (149) 
Vapor Diffusion, Sitting Drop; Mes-Bis-Tris
Mega8-Solution
Dtt
Edta
Licl
Methanol

>  <Deposit_Date>  (149) 
2017-02-08

>  <Resolution>  (149) 
1.38

>  <DOI>  (149) 
nan

>  <Source_Organism>  (149) 
Cricetulus griseus

>  <R_Free>  (149) 
0.1598

>  <Keywords>  (149) 
Transferase

>  <REMARK_280>  (149) 
 Crystal Solvent Content, Vs (%): 45.00 Matthews Coefficient, Vm (Angstroms**3/Da): 2.22 Crystallization Conditions: Mes-Bis-Tris Mega8-Solution Dtt Edta Licl Methanol, pH 6.9, Vapor Diffusion, Sitting Drop, Temperature 277K 

>  <REMARK_610>  (149) 
nan

>  <pH>  (149) 
6.9

>  <Cryst_Technique>  (149) 
nan

>  <Sequence>  (149) 
GHMGNAAAAKKGSEQESVKEFLAKAKEEFLKKWESPSQNTAQLDHFDRIKTLGTGSFGRVMLVKHKETGNHYAMKILDKQKVVKLKQIEHTLNEKRILQAVNFPFLVKLEFSFKDNSNLYMVMEYVPGGEMFSHLRRIGRFSEPHARFYAAQIVLTFEYLHSLDLIYRDLKPENLLIDQQGYIQVTDFGFAKRVKGRTWTLCGTPEYLAPEIILSKGYNKAVDWWALGVLIYEMAAGYPPFFADQPIQIYEKIVSGKVRFPSHFSSDLKDLLRNLLQVDLTKRFGNLKNGVNDIKNHKWFATTDWIAIYQRKVEAPFIPKFKGPGDTSNFDDYEEEEIRVSINEKCGKEFTEF

>  <Sequence_Length>  (149) 
353.0

>  <Mutation_Count>  (149) 
0.0

>  <Gene_Name>  (149) 
PKACA

>  <MW>  (149) 
41.194

>  <Name>  (149) 
cAMP-Dependent Protein Kinase Catalytic Subunit Alpha

>  <Mutations>  (149) 
nan

>  <EC_Number>  (149) 
2.7.11.11

>  <Peptidic_Inhibitor>  (149) 
False

>  <Lig_Missing_Atoms>  (149) 
['No']

>  <PDBbind_Resolution>  (149) 
nan

>  <PDBbind_Release_Year>  (149) 
nan

>  <PDBbind_Comment>  (149) 
nan

>  <PDBbind_Uniprot_Id>  (149) 
nan

>  <PDBbind_Protein_Name>  (149) 
nan

>  <PDBbind_-Logkd/Ki>  (149) 
nan

>  <PDBbind_Kd/Ki>  (149) 
nan

>  <PDBbind_Kd_Or_Ki_Or_Ic50>  (149) 
nan

>  <PDBbind_Relation>  (149) 
nan

>  <PDBbind_Value>  (149) 
nan

>  <PDBbind_Unit>  (149) 
nan

>  <PDBbind_Standard_Value>  (149) 
nan

>  <PDBbind_Standard_Unit>  (149) 
nan

>  <PDB_Chain>  (149) 
['A']

>  <Num_Ligs>  (149) 
[1.0]

>  <Orthosteric>  (149) 
[1.0]

>  <Allosteric>  (149) 
[0.0]

>  <Pockets_Assigned>  (149) 
['A']

>  <Multisite>  (149) 
[False]

>  <Same_Number>  (149) 
True

>  <Same_Binding_Site>  (149) 
True

>  <Same_Orientation>  (149) 
True

>  <Lig_Order_in_.pdb>  (149) 
Orthosteric

$$$$

     RDKit          2D

 11 10  0  0  0  0  0  0  0  0999 V2000
    0.0000    0.0000    0.0000 C   0  0  0  0  0  0  0  0  0  0  0  0
    1.2990    0.7500    0.0000 N   0  0  0  0  0  4  0  0  0  0  0  0
    2.5981    1.5000    0.0000 C   0  0  0  0  0  0  0  0  0  0  0  0
    2.0490   -0.5490    0.0000 C   0  0  0  0  0  0  0  0  0  0  0  0
    0.5490    2.0490    0.0000 C   0  0  0  0  0  0  0  0  0  0  0  0
    1.2990    3.3481    0.0000 C   0  0  0  0  0  0  0  0  0  0  0  0
    0.5490    4.6471    0.0000 C   0  0  0  0  0  0  0  0  0  0  0  0
    1.2990    5.9462    0.0000 C   0  0  0  0  0  0  0  0  0  0  0  0
    2.7990    5.9462    0.0000 O   0  0  0  0  0  0  0  0  0  0  0  0
    0.5490    7.2452    0.0000 O   0  0  0  0  0  0  0  0  0  0  0  0
    2.7990    3.3481    0.0000 O   0  0  0  0  0  0  0  0  0  0  0  0
  1  2  1  0
  2  3  1  0
  2  4  1  0
  2  5  1  0
  5  6  1  0
  6  7  1  0
  7  8  1  0
  8  9  2  0
  8 10  1  0
  6 11  1  1
M  CHG  1   2   1
M  END
>  <Structure>  (150) 
5N3N

>  <Dataset>  (150) 
PDB

>  <Chain>  (150) 
A

>  <Spatial_Label>  (150) 
DFGin

>  <Dihedral_Label>  (150) 
BLAminus

>  <C_Helix_Label>  (150) 
Chelix-in

>  <Lig_ID>  (150) 
152

>  <Lig_Entity_ID>  (150) 
5N3N_3

>  <Lig_Name>  (150) 
CARNITINE

>  <Lig_Formula>  (150) 
C7H16NO3

>  <Lig_SMILES>  (150) 
C[N+](C)(C)C[C@@H](CC(=O)O)O

>  <Lig_MW>  (150) 
162.207

>  <Lig_ChEMBL_ID>  (150) 
['CHEMBL1229656']

>  <Lig_DrugBank_ID>  (150) 
['DB02648']

>  <Occurence>  (150) 
1.0

>  <Lig_SMILES_Uncharged>  (150) 
C[N+](C)(C)C[C@H](O)CC(=O)O

>  <Lig_Conformer>  (150) 
['NaN']

>  <Lig_Of_Interest>  (150) 
['Y']

>  <Lig_Completeness>  (150) 
[1.0]

>  <Lig_Occupancy>  (150) 
[1.0]

>  <Lig_RSCC>  (150) 
[0.963]

>  <Lig_RSR>  (150) 
[0.139]

>  <Lig_RMSZ_Bonds>  (150) 
[0.77]

>  <Lig_RMSZ_Angles>  (150) 
[0.76]

>  <Lig_Alt_Conf>  (150) 
0.0

>  <Title>  (150) 
cAMP-dependent Protein Kinase A from Cricetulus griseus in complex with fragment like molecule [(2R)-2,4-dihydroxy-4-oxobutyl]-trimethylazanium

>  <Nonpolymer_Entity_Count>  (150) 
4.0

>  <Protein_Entity_Count>  (150) 
1.0

>  <Exp_Method>  (150) 
X-Ray Diffraction

>  <Cryst_Method>  (150) 
Vapor Diffusion, Sitting Drop; Mes-Bis-Tris
Mega8-Solution
Dtt
Edta
Licl
Methanol

>  <Deposit_Date>  (150) 
2017-02-08

>  <Resolution>  (150) 
1.224

>  <DOI>  (150) 
nan

>  <Source_Organism>  (150) 
Cricetulus griseus

>  <R_Free>  (150) 
0.1529

>  <Keywords>  (150) 
Transferase

>  <REMARK_280>  (150) 
 Crystal Solvent Content, Vs (%): 45.00 Matthews Coefficient, Vm (Angstroms**3/Da): 2.22 Crystallization Conditions: Mes-Bis-Tris Mega8-Solution Dtt Edta Licl Methanol, pH 6.9, Vapor Diffusion, Sitting Drop, Temperature 277K 

>  <REMARK_610>  (150) 
nan

>  <pH>  (150) 
6.9

>  <Cryst_Technique>  (150) 
nan

>  <Sequence>  (150) 
MGNAAAAKKGSEQESVKEFLAKAKEEFLKKWESPSQNTAQLDHFDRIKTLGTGSFGRVMLVKHKETGNHYAMKILDKQKVVKLKQIEHTLNEKRILQAVNFPFLVKLEFSFKDNSNLYMVMEYVPGGEMFSHLRRIGRFSEPHARFYAAQIVLTFEYLHSLDLIYRDLKPENLLIDQQGYIQVTDFGFAKRVKGRTWTLCGTPEYLAPEIILSKGYNKAVDWWALGVLIYEMAAGYPPFFADQPIQIYEKIVSGKVRFPSHFSSDLKDLLRNLLQVDLTKRFGNLKNGVNDIKNHKWFATTDWIAIYQRKVEAPFIPKFKGPGDTSNFDDYEEEEIRVSINEKCGKEFTEF

>  <Sequence_Length>  (150) 
351.0

>  <Mutation_Count>  (150) 
0.0

>  <Gene_Name>  (150) 
PKACA

>  <MW>  (150) 
40.919

>  <Name>  (150) 
cAMP-Dependent Protein Kinase Catalytic Subunit Alpha

>  <Mutations>  (150) 
nan

>  <EC_Number>  (150) 
2.7.11.11

>  <Peptidic_Inhibitor>  (150) 
False

>  <Lig_Missing_Atoms>  (150) 
['No']

>  <PDBbind_Resolution>  (150) 
nan

>  <PDBbind_Release_Year>  (150) 
nan

>  <PDBbind_Comment>  (150) 
nan

>  <PDBbind_Uniprot_Id>  (150) 
nan

>  <PDBbind_Protein_Name>  (150) 
nan

>  <PDBbind_-Logkd/Ki>  (150) 
nan

>  <PDBbind_Kd/Ki>  (150) 
nan

>  <PDBbind_Kd_Or_Ki_Or_Ic50>  (150) 
nan

>  <PDBbind_Relation>  (150) 
nan

>  <PDBbind_Value>  (150) 
nan

>  <PDBbind_Unit>  (150) 
nan

>  <PDBbind_Standard_Value>  (150) 
nan

>  <PDBbind_Standard_Unit>  (150) 
nan

>  <PDB_Chain>  (150) 
['A']

>  <Num_Ligs>  (150) 
[1.0]

>  <Orthosteric>  (150) 
[0.0]

>  <Allosteric>  (150) 
[1.0]

>  <Pockets_Assigned>  (150) 
['X']

>  <Multisite>  (150) 
[False]

>  <Same_Number>  (150) 
True

>  <Same_Binding_Site>  (150) 
True

>  <Same_Orientation>  (150) 
True

>  <Lig_Order_in_.pdb>  (150) 
Allosteric

$$$$

     RDKit          2D

 12 13  0  0  0  0  0  0  0  0999 V2000
    1.5000    0.0000    0.0000 C   0  0  0  0  0  0  0  0  0  0  0  0
    0.7500   -1.2990    0.0000 C   0  0  0  0  0  0  0  0  0  0  0  0
   -0.7500   -1.2990    0.0000 C   0  0  0  0  0  0  0  0  0  0  0  0
   -1.5000    0.0000    0.0000 C   0  0  0  0  0  0  0  0  0  0  0  0
   -0.7500    1.2990    0.0000 C   0  0  0  0  0  0  0  0  0  0  0  0
    0.7500    1.2990    0.0000 C   0  0  0  0  0  0  0  0  0  0  0  0
   -1.5000    2.5981    0.0000 N   0  0  0  0  0  0  0  0  0  0  0  0
   -1.5000   -2.5981    0.0000 C   0  0  0  0  0  0  0  0  0  0  0  0
   -0.8899   -3.9684    0.0000 C   0  0  0  0  0  0  0  0  0  0  0  0
   -2.0046   -4.9721    0.0000 N   0  0  0  0  0  0  0  0  0  0  0  0
   -3.3037   -4.2221    0.0000 C   0  0  0  0  0  0  0  0  0  0  0  0
   -2.9918   -2.7549    0.0000 O   0  0  0  0  0  0  0  0  0  0  0  0
  1  2  2  0
  2  3  1  0
  3  4  2  0
  4  5  1  0
  5  6  2  0
  5  7  1  0
  3  8  1  0
  8  9  2  0
  9 10  1  0
 10 11  2  0
 11 12  1  0
  6  1  1  0
 12  8  1  0
M  END
>  <Structure>  (151) 
5N3O

>  <Dataset>  (151) 
PDB

>  <Chain>  (151) 
A

>  <Spatial_Label>  (151) 
DFGin

>  <Dihedral_Label>  (151) 
BLAminus

>  <C_Helix_Label>  (151) 
Chelix-in

>  <Lig_ID>  (151) 
5AO

>  <Lig_Entity_ID>  (151) 
5N3O_3

>  <Lig_Name>  (151) 
3-(1,3-oxazol-5-yl)aniline

>  <Lig_Formula>  (151) 
C9H8N2O

>  <Lig_SMILES>  (151) 
c1cc(cc(c1)N)c2cnco2

>  <Lig_MW>  (151) 
160.173

>  <Lig_ChEMBL_ID>  (151) 
['CHEMBL3262562']

>  <Lig_DrugBank_ID>  (151) 
nan

>  <Occurence>  (151) 
1.0

>  <Lig_SMILES_Uncharged>  (151) 
Nc1cccc(-c2cnco2)c1

>  <Lig_Conformer>  (151) 
['NaN', 'NaN', 'NaN']

>  <Lig_Of_Interest>  (151) 
['Y', 'Y', 'Y']

>  <Lig_Completeness>  (151) 
[1.0, 1.0, 1.0]

>  <Lig_Occupancy>  (151) 
[1.0, 1.0, 1.0]

>  <Lig_RSCC>  (151) 
[0.929, 0.982, 0.925]

>  <Lig_RSR>  (151) 
[0.119, 0.054, 0.105]

>  <Lig_RMSZ_Bonds>  (151) 
[1.21, 1.25, 1.17]

>  <Lig_RMSZ_Angles>  (151) 
[0.67, 0.63, 0.65]

>  <Lig_Alt_Conf>  (151) 
0.0

>  <Title>  (151) 
cAMP-dependent Protein Kinase A from Cricetulus griseus in complex with fragment like molecule 3-(1,3-oxazol-5-yl)aniline

>  <Nonpolymer_Entity_Count>  (151) 
6.0

>  <Protein_Entity_Count>  (151) 
1.0

>  <Exp_Method>  (151) 
X-Ray Diffraction

>  <Cryst_Method>  (151) 
Vapor Diffusion, Sitting Drop; Mes-Bis-Tris
Mega8-Solution
Dtt
Edta
Licl
Methanol

>  <Deposit_Date>  (151) 
2017-02-08

>  <Resolution>  (151) 
1.32

>  <DOI>  (151) 
nan

>  <Source_Organism>  (151) 
Cricetulus griseus

>  <R_Free>  (151) 
0.158

>  <Keywords>  (151) 
Transferase

>  <REMARK_280>  (151) 
 Crystal Solvent Content, Vs (%): 45.00 Matthews Coefficient, Vm (Angstroms**3/Da): 2.23 Crystallization Conditions: Mes-Bis-Tris Mega8-Solution Dtt Edta Licl Methanol, pH 6.9, Vapor Diffusion, Sitting Drop, Temperature 277K 

>  <REMARK_610>  (151) 
nan

>  <pH>  (151) 
6.9

>  <Cryst_Technique>  (151) 
nan

>  <Sequence>  (151) 
GHMGNAAAAKKGSEQESVKEFLAKAKEEFLKKWESPSQNTAQLDHFDRIKTLGTGSFGRVMLVKHKETGNHYAMKILDKQKVVKLKQIEHTLNEKRILQAVNFPFLVKLEFSFKDNSNLYMVMEYVPGGEMFSHLRRIGRFSEPHARFYAAQIVLTFEYLHSLDLIYRDLKPENLLIDQQGYIQVTDFGFAKRVKGRTWTLCGTPEYLAPEIILSKGYNKAVDWWALGVLIYEMAAGYPPFFADQPIQIYEKIVSGKVRFPSHFSSDLKDLLRNLLQVDLTKRFGNLKNGVNDIKNHKWFATTDWIAIYQRKVEAPFIPKFKGPGDTSNFDDYEEEEIRVSINEKCGKEFTEF

>  <Sequence_Length>  (151) 
353.0

>  <Mutation_Count>  (151) 
0.0

>  <Gene_Name>  (151) 
PKACA

>  <MW>  (151) 
41.194

>  <Name>  (151) 
cAMP-Dependent Protein Kinase Catalytic Subunit Alpha

>  <Mutations>  (151) 
nan

>  <EC_Number>  (151) 
2.7.11.11

>  <Peptidic_Inhibitor>  (151) 
False

>  <Lig_Missing_Atoms>  (151) 
['No', 'No', 'No']

>  <PDBbind_Resolution>  (151) 
nan

>  <PDBbind_Release_Year>  (151) 
nan

>  <PDBbind_Comment>  (151) 
nan

>  <PDBbind_Uniprot_Id>  (151) 
nan

>  <PDBbind_Protein_Name>  (151) 
nan

>  <PDBbind_-Logkd/Ki>  (151) 
nan

>  <PDBbind_Kd/Ki>  (151) 
nan

>  <PDBbind_Kd_Or_Ki_Or_Ic50>  (151) 
nan

>  <PDBbind_Relation>  (151) 
nan

>  <PDBbind_Value>  (151) 
nan

>  <PDBbind_Unit>  (151) 
nan

>  <PDBbind_Standard_Value>  (151) 
nan

>  <PDBbind_Standard_Unit>  (151) 
nan

>  <PDB_Chain>  (151) 
['A']

>  <Num_Ligs>  (151) 
[3.0]

>  <Orthosteric>  (151) 
[1.0]

>  <Allosteric>  (151) 
[2.0]

>  <Pockets_Assigned>  (151) 
['X, A, K']

>  <Multisite>  (151) 
[True]

>  <Same_Number>  (151) 
True

>  <Same_Binding_Site>  (151) 
True

>  <Same_Orientation>  (151) 
True

>  <Lig_Order_in_.pdb>  (151) 
Allosteric, Orthosteric, Allosteric

$$$$

     RDKit          2D

 10 11  0  0  0  0  0  0  0  0999 V2000
   -1.8351    3.2209    0.0000 C   0  0  0  0  0  0  0  0  0  0  0  0
   -2.1470    1.7537    0.0000 C   0  0  0  0  0  0  0  0  0  0  0  0
   -1.0323    0.7500    0.0000 C   0  0  0  0  0  0  0  0  0  0  0  0
    0.3943    1.2135    0.0000 C   0  0  0  0  0  0  0  0  0  0  0  0
    1.2760    0.0000    0.0000 C   0  0  0  0  0  0  0  0  0  0  0  0
    0.3943   -1.2135    0.0000 C   0  0  0  0  0  0  0  0  0  0  0  0
   -1.0323   -0.7500    0.0000 N   0  0  0  0  0  0  0  0  0  0  0  0
    0.7062    2.6807    0.0000 C   0  0  0  0  0  0  0  0  0  0  0  0
   -0.4086    3.6844    0.0000 C   0  0  0  0  0  0  0  0  0  0  0  0
   -0.0967    5.1517    0.0000 O   0  0  0  0  0  0  0  0  0  0  0  0
  1  2  2  0
  2  3  1  0
  3  4  2  0
  4  5  1  0
  5  6  2  0
  6  7  1  0
  4  8  1  0
  8  9  2  0
  9 10  1  0
  9  1  1  0
  7  3  1  0
M  END
>  <Structure>  (152) 
5N3P

>  <Dataset>  (152) 
PDB

>  <Chain>  (152) 
A

>  <Spatial_Label>  (152) 
DFGin

>  <Dihedral_Label>  (152) 
BLAminus

>  <C_Helix_Label>  (152) 
Chelix-in

>  <Lig_ID>  (152) 
5H1

>  <Lig_Entity_ID>  (152) 
5N3P_3

>  <Lig_Name>  (152) 
1H-indol-5-ol

>  <Lig_Formula>  (152) 
C8H7NO

>  <Lig_SMILES>  (152) 
c1cc2c(cc[nH]2)cc1O

>  <Lig_MW>  (152) 
133.147

>  <Lig_ChEMBL_ID>  (152) 
['CHEMBL404923']

>  <Lig_DrugBank_ID>  (152) 
nan

>  <Occurence>  (152) 
1.0

>  <Lig_SMILES_Uncharged>  (152) 
Oc1ccc2[nH]ccc2c1

>  <Lig_Conformer>  (152) 
['NaN']

>  <Lig_Of_Interest>  (152) 
['N']

>  <Lig_Completeness>  (152) 
[1.0]

>  <Lig_Occupancy>  (152) 
[1.0]

>  <Lig_RSCC>  (152) 
[0.955]

>  <Lig_RSR>  (152) 
[0.08]

>  <Lig_RMSZ_Bonds>  (152) 
[0.91]

>  <Lig_RMSZ_Angles>  (152) 
[0.66]

>  <Lig_Alt_Conf>  (152) 
0.0

>  <Title>  (152) 
cAMP-dependent Protein Kinase A from Cricetulus griseus in complex with fragment like molecule 1H-Indol-5-ol

>  <Nonpolymer_Entity_Count>  (152) 
4.0

>  <Protein_Entity_Count>  (152) 
1.0

>  <Exp_Method>  (152) 
X-Ray Diffraction

>  <Cryst_Method>  (152) 
Vapor Diffusion, Sitting Drop; Mes-Bis-Tris
Mega8-Solution
Dtt
Edta
Licl
Methanol

>  <Deposit_Date>  (152) 
2017-02-08

>  <Resolution>  (152) 
1.58

>  <DOI>  (152) 
nan

>  <Source_Organism>  (152) 
Cricetulus griseus

>  <R_Free>  (152) 
0.1807

>  <Keywords>  (152) 
Transferase

>  <REMARK_280>  (152) 
 Crystal Solvent Content, Vs (%): 45.00 Matthews Coefficient, Vm (Angstroms**3/Da): 2.23 Crystallization Conditions: Mes-Bis-Tris Mega8-Solution Dtt Edta Licl Methanol, pH 6.9, Vapor Diffusion, Sitting Drop, Temperature 277K 

>  <REMARK_610>  (152) 
nan

>  <pH>  (152) 
6.9

>  <Cryst_Technique>  (152) 
nan

>  <Sequence>  (152) 
GHMGNAAAAKKGSEQESVKEFLAKAKEEFLKKWESPSQNTAQLDHFDRIKTLGTGSFGRVMLVKHKETGNHYAMKILDKQKVVKLKQIEHTLNEKRILQAVNFPFLVKLEFSFKDNSNLYMVMEYVPGGEMFSHLRRIGRFSEPHARFYAAQIVLTFEYLHSLDLIYRDLKPENLLIDQQGYIQVTDFGFAKRVKGRTWTLCGTPEYLAPEIILSKGYNKAVDWWALGVLIYEMAAGYPPFFADQPIQIYEKIVSGKVRFPSHFSSDLKDLLRNLLQVDLTKRFGNLKNGVNDIKNHKWFATTDWIAIYQRKVEAPFIPKFKGPGDTSNFDDYEEEEIRVSINEKCGKEFTEF

>  <Sequence_Length>  (152) 
353.0

>  <Mutation_Count>  (152) 
0.0

>  <Gene_Name>  (152) 
PKACA

>  <MW>  (152) 
41.194

>  <Name>  (152) 
cAMP-Dependent Protein Kinase Catalytic Subunit Alpha

>  <Mutations>  (152) 
nan

>  <EC_Number>  (152) 
2.7.11.11

>  <Peptidic_Inhibitor>  (152) 
False

>  <Lig_Missing_Atoms>  (152) 
['No']

>  <PDBbind_Resolution>  (152) 
nan

>  <PDBbind_Release_Year>  (152) 
nan

>  <PDBbind_Comment>  (152) 
nan

>  <PDBbind_Uniprot_Id>  (152) 
nan

>  <PDBbind_Protein_Name>  (152) 
nan

>  <PDBbind_-Logkd/Ki>  (152) 
nan

>  <PDBbind_Kd/Ki>  (152) 
nan

>  <PDBbind_Kd_Or_Ki_Or_Ic50>  (152) 
nan

>  <PDBbind_Relation>  (152) 
nan

>  <PDBbind_Value>  (152) 
nan

>  <PDBbind_Unit>  (152) 
nan

>  <PDBbind_Standard_Value>  (152) 
nan

>  <PDBbind_Standard_Unit>  (152) 
nan

>  <PDB_Chain>  (152) 
['A']

>  <Num_Ligs>  (152) 
[1.0]

>  <Orthosteric>  (152) 
[1.0]

>  <Allosteric>  (152) 
[0.0]

>  <Pockets_Assigned>  (152) 
['A']

>  <Multisite>  (152) 
[False]

>  <Same_Number>  (152) 
True

>  <Same_Binding_Site>  (152) 
True

>  <Same_Orientation>  (152) 
True

>  <Lig_Order_in_.pdb>  (152) 
Orthosteric

$$$$

     RDKit          2D

 10 10  0  0  0  0  0  0  0  0999 V2000
    1.5000    0.0000    0.0000 C   0  0  0  0  0  0  0  0  0  0  0  0
    0.7500   -1.2990    0.0000 C   0  0  0  0  0  0  0  0  0  0  0  0
   -0.7500   -1.2990    0.0000 C   0  0  0  0  0  0  0  0  0  0  0  0
   -1.5000    0.0000    0.0000 C   0  0  0  0  0  0  0  0  0  0  0  0
   -0.7500    1.2990    0.0000 C   0  0  0  0  0  0  0  0  0  0  0  0
    0.7500    1.2990    0.0000 C   0  0  0  0  0  0  0  0  0  0  0  0
   -1.5000    2.5981    0.0000 N   0  0  0  0  0  0  0  0  0  0  0  0
   -1.5000   -2.5981    0.0000 C   0  0  0  0  0  0  0  0  0  0  0  0
   -0.7500   -3.8971    0.0000 O   0  0  0  0  0  0  0  0  0  0  0  0
   -3.0000   -2.5981    0.0000 N   0  0  0  0  0  0  0  0  0  0  0  0
  1  2  2  0
  2  3  1  0
  3  4  2  0
  4  5  1  0
  5  6  2  0
  5  7  1  0
  3  8  1  0
  8  9  2  0
  8 10  1  0
  6  1  1  0
M  END
>  <Structure>  (153) 
5N3Q

>  <Dataset>  (153) 
PDB

>  <Chain>  (153) 
A

>  <Spatial_Label>  (153) 
DFGin

>  <Dihedral_Label>  (153) 
BLAminus

>  <C_Helix_Label>  (153) 
Chelix-in

>  <Lig_ID>  (153) 
3AB

>  <Lig_Entity_ID>  (153) 
5N3Q_3

>  <Lig_Name>  (153) 
3-aminobenzamide

>  <Lig_Formula>  (153) 
C7H8N2O

>  <Lig_SMILES>  (153) 
c1cc(cc(c1)N)C(=O)N

>  <Lig_MW>  (153) 
136.151

>  <Lig_ChEMBL_ID>  (153) 
['CHEMBL81977']

>  <Lig_DrugBank_ID>  (153) 
nan

>  <Occurence>  (153) 
1.0

>  <Lig_SMILES_Uncharged>  (153) 
NC(=O)c1cccc(N)c1

>  <Lig_Conformer>  (153) 
['NaN', 'NaN']

>  <Lig_Of_Interest>  (153) 
['N', 'N']

>  <Lig_Completeness>  (153) 
[1.0, 1.0]

>  <Lig_Occupancy>  (153) 
[1.0, 0.61]

>  <Lig_RSCC>  (153) 
[0.975, 0.876]

>  <Lig_RSR>  (153) 
[0.061, 0.117]

>  <Lig_RMSZ_Bonds>  (153) 
[0.41, 0.2]

>  <Lig_RMSZ_Angles>  (153) 
[0.22, 0.14]

>  <Lig_Alt_Conf>  (153) 
0.0

>  <Title>  (153) 
cAMP-dependent Protein Kinase A from Cricetulus griseus in complex with fragment like molecule 3-Aminobenzamide

>  <Nonpolymer_Entity_Count>  (153) 
4.0

>  <Protein_Entity_Count>  (153) 
1.0

>  <Exp_Method>  (153) 
X-Ray Diffraction

>  <Cryst_Method>  (153) 
Vapor Diffusion, Sitting Drop; Mes-Bis-Tris
Mega8-Solution
Dtt
Edta
Licl
Methanol

>  <Deposit_Date>  (153) 
2017-02-08

>  <Resolution>  (153) 
1.31

>  <DOI>  (153) 
https://doi.org/10.1002/anie.202011295

>  <Source_Organism>  (153) 
Cricetulus griseus

>  <R_Free>  (153) 
0.1553

>  <Keywords>  (153) 
Transferase

>  <REMARK_280>  (153) 
 Crystal Solvent Content, Vs (%): 45.00 Matthews Coefficient, Vm (Angstroms**3/Da): 2.23 Crystallization Conditions: Mes-Bis-Tris Mega8-Solution Dtt Edta Licl Methanol, pH 6.9, Vapor Diffusion, Sitting Drop, Temperature 277K 

>  <REMARK_610>  (153) 
nan

>  <pH>  (153) 
6.9

>  <Cryst_Technique>  (153) 
soaked

>  <Sequence>  (153) 
GHMGNAAAAKKGSEQESVKEFLAKAKEEFLKKWESPSQNTAQLDHFDRIKTLGTGSFGRVMLVKHKETGNHYAMKILDKQKVVKLKQIEHTLNEKRILQAVNFPFLVKLEFSFKDNSNLYMVMEYVPGGEMFSHLRRIGRFSEPHARFYAAQIVLTFEYLHSLDLIYRDLKPENLLIDQQGYIQVTDFGFAKRVKGRTWTLCGTPEYLAPEIILSKGYNKAVDWWALGVLIYEMAAGYPPFFADQPIQIYEKIVSGKVRFPSHFSSDLKDLLRNLLQVDLTKRFGNLKNGVNDIKNHKWFATTDWIAIYQRKVEAPFIPKFKGPGDTSNFDDYEEEEIRVSINEKCGKEFTEF

>  <Sequence_Length>  (153) 
353.0

>  <Mutation_Count>  (153) 
0.0

>  <Gene_Name>  (153) 
PKACA

>  <MW>  (153) 
41.194

>  <Name>  (153) 
cAMP-Dependent Protein Kinase Catalytic Subunit Alpha

>  <Mutations>  (153) 
nan

>  <EC_Number>  (153) 
2.7.11.11

>  <Peptidic_Inhibitor>  (153) 
False

>  <Lig_Missing_Atoms>  (153) 
['No', 'No']

>  <PDBbind_Resolution>  (153) 
nan

>  <PDBbind_Release_Year>  (153) 
nan

>  <PDBbind_Comment>  (153) 
nan

>  <PDBbind_Uniprot_Id>  (153) 
nan

>  <PDBbind_Protein_Name>  (153) 
nan

>  <PDBbind_-Logkd/Ki>  (153) 
nan

>  <PDBbind_Kd/Ki>  (153) 
nan

>  <PDBbind_Kd_Or_Ki_Or_Ic50>  (153) 
nan

>  <PDBbind_Relation>  (153) 
nan

>  <PDBbind_Value>  (153) 
nan

>  <PDBbind_Unit>  (153) 
nan

>  <PDBbind_Standard_Value>  (153) 
nan

>  <PDBbind_Standard_Unit>  (153) 
nan

>  <PDB_Chain>  (153) 
['A']

>  <Num_Ligs>  (153) 
[2.0]

>  <Orthosteric>  (153) 
[1.0]

>  <Allosteric>  (153) 
[1.0]

>  <Pockets_Assigned>  (153) 
['A, F']

>  <Multisite>  (153) 
[True]

>  <Same_Number>  (153) 
True

>  <Same_Binding_Site>  (153) 
True

>  <Same_Orientation>  (153) 
True

>  <Lig_Order_in_.pdb>  (153) 
Orthosteric, Allosteric

$$$$

     RDKit          2D

 12 11  0  0  0  0  0  0  0  0999 V2000
    0.0000    0.0000    0.0000 C   0  0  0  0  0  0  0  0  0  0  0  0
    1.2990    0.7500    0.0000 S   0  0  0  0  0  0  0  0  0  0  0  0
    2.5981   -0.0000    0.0000 C   0  0  0  0  0  0  0  0  0  0  0  0
    3.8971    0.7500    0.0000 C   0  0  0  0  0  0  0  0  0  0  0  0
    5.1962   -0.0000    0.0000 C   0  0  0  0  0  0  0  0  0  0  0  0
    6.4952    0.7500    0.0000 C   0  0  0  0  0  0  0  0  0  0  0  0
    6.4952    2.2500    0.0000 O   0  0  0  0  0  0  0  0  0  0  0  0
    7.7942   -0.0000    0.0000 O   0  0  0  0  0  0  0  0  0  0  0  0
    5.1962   -1.5000    0.0000 N   0  0  0  0  0  0  0  0  0  0  0  0
    6.4952   -2.2500    0.0000 C   0  0  0  0  0  0  0  0  0  0  0  0
    7.7942   -1.5000    0.0000 O   0  0  0  0  0  0  0  0  0  0  0  0
    6.4952   -3.7500    0.0000 N   0  0  0  0  0  0  0  0  0  0  0  0
  1  2  1  0
  2  3  1  0
  3  4  1  0
  5  4  1  6
  5  6  1  0
  6  7  2  0
  6  8  1  0
  5  9  1  0
  9 10  1  0
 10 11  2  0
 10 12  1  0
M  END
>  <Structure>  (154) 
5N3R

>  <Dataset>  (154) 
PDB

>  <Chain>  (154) 
A

>  <Spatial_Label>  (154) 
DFGin

>  <Dihedral_Label>  (154) 
BLAminus

>  <C_Helix_Label>  (154) 
Chelix-in

>  <Lig_ID>  (154) 
CDT

>  <Lig_Entity_ID>  (154) 
5N3R_2

>  <Lig_Name>  (154) 
4-METHYLSULFANYL-2-UREIDO-BUTYRIC ACID

>  <Lig_Formula>  (154) 
C6H12N2O3S

>  <Lig_SMILES>  (154) 
CSCC[C@H](C(=O)O)NC(=O)N

>  <Lig_MW>  (154) 
192.236

>  <Lig_ChEMBL_ID>  (154) 
nan

>  <Lig_DrugBank_ID>  (154) 
['DB03364']

>  <Occurence>  (154) 
1.0

>  <Lig_SMILES_Uncharged>  (154) 
CSCC[C@@H](NC(N)=O)C(=O)O

>  <Lig_Conformer>  (154) 
['NaN']

>  <Lig_Of_Interest>  (154) 
['Y']

>  <Lig_Completeness>  (154) 
[1.0]

>  <Lig_Occupancy>  (154) 
[1.0]

>  <Lig_RSCC>  (154) 
[0.93]

>  <Lig_RSR>  (154) 
[0.135]

>  <Lig_RMSZ_Bonds>  (154) 
[0.47]

>  <Lig_RMSZ_Angles>  (154) 
[0.97]

>  <Lig_Alt_Conf>  (154) 
0.0

>  <Title>  (154) 
cAMP-dependent Protein Kinase A from Cricetulus griseus in complex with fragment like molecule 2-(carbamoylamino)-4-methylsulfanylbutanoic acid

>  <Nonpolymer_Entity_Count>  (154) 
3.0

>  <Protein_Entity_Count>  (154) 
1.0

>  <Exp_Method>  (154) 
X-Ray Diffraction

>  <Cryst_Method>  (154) 
Vapor Diffusion, Sitting Drop; Mes-Bis-Tris
Mega8-Solution
Dtt
Edta
Licl
Methanol

>  <Deposit_Date>  (154) 
2017-02-08

>  <Resolution>  (154) 
1.36

>  <DOI>  (154) 
nan

>  <Source_Organism>  (154) 
Cricetulus griseus

>  <R_Free>  (154) 
0.1931

>  <Keywords>  (154) 
Transferase

>  <REMARK_280>  (154) 
 Crystal Solvent Content, Vs (%): 44.00 Matthews Coefficient, Vm (Angstroms**3/Da): 2.21 Crystallization Conditions: Mes-Bis-Tris Mega8-Solution Dtt Edta Licl Methanol, pH 6.9, Vapor Diffusion, Sitting Drop, Temperature 277K 

>  <REMARK_610>  (154) 
nan

>  <pH>  (154) 
6.9

>  <Cryst_Technique>  (154) 
nan

>  <Sequence>  (154) 
GHMGNAAAAKKGSEQESVKEFLAKAKEEFLKKWESPSQNTAQLDHFDRIKTLGTGSFGRVMLVKHKETGNHYAMKILDKQKVVKLKQIEHTLNEKRILQAVNFPFLVKLEFSFKDNSNLYMVMEYVPGGEMFSHLRRIGRFSEPHARFYAAQIVLTFEYLHSLDLIYRDLKPENLLIDQQGYIQVTDFGFAKRVKGRTWTLCGTPEYLAPEIILSKGYNKAVDWWALGVLIYEMAAGYPPFFADQPIQIYEKIVSGKVRFPSHFSSDLKDLLRNLLQVDLTKRFGNLKNGVNDIKNHKWFATTDWIAIYQRKVEAPFIPKFKGPGDTSNFDDYEEEEIRVSINEKCGKEFTEF

>  <Sequence_Length>  (154) 
353.0

>  <Mutation_Count>  (154) 
0.0

>  <Gene_Name>  (154) 
PKACA

>  <MW>  (154) 
41.194

>  <Name>  (154) 
cAMP-Dependent Protein Kinase Catalytic Subunit Alpha

>  <Mutations>  (154) 
nan

>  <EC_Number>  (154) 
2.7.11.11

>  <Peptidic_Inhibitor>  (154) 
False

>  <Lig_Missing_Atoms>  (154) 
['No']

>  <PDBbind_Resolution>  (154) 
nan

>  <PDBbind_Release_Year>  (154) 
nan

>  <PDBbind_Comment>  (154) 
nan

>  <PDBbind_Uniprot_Id>  (154) 
nan

>  <PDBbind_Protein_Name>  (154) 
nan

>  <PDBbind_-Logkd/Ki>  (154) 
nan

>  <PDBbind_Kd/Ki>  (154) 
nan

>  <PDBbind_Kd_Or_Ki_Or_Ic50>  (154) 
nan

>  <PDBbind_Relation>  (154) 
nan

>  <PDBbind_Value>  (154) 
nan

>  <PDBbind_Unit>  (154) 
nan

>  <PDBbind_Standard_Value>  (154) 
nan

>  <PDBbind_Standard_Unit>  (154) 
nan

>  <PDB_Chain>  (154) 
['A']

>  <Num_Ligs>  (154) 
[1.0]

>  <Orthosteric>  (154) 
[0.0]

>  <Allosteric>  (154) 
[1.0]

>  <Pockets_Assigned>  (154) 
['F']

>  <Multisite>  (154) 
[False]

>  <Same_Number>  (154) 
True

>  <Same_Binding_Site>  (154) 
True

>  <Same_Orientation>  (154) 
True

>  <Lig_Order_in_.pdb>  (154) 
Allosteric

$$$$

     RDKit          2D

 10 10  0  0  0  0  0  0  0  0999 V2000
    1.5000    0.0000    0.0000 C   0  0  0  0  0  0  0  0  0  0  0  0
    0.7500   -1.2990    0.0000 C   0  0  0  0  0  0  0  0  0  0  0  0
   -0.7500   -1.2990    0.0000 C   0  0  0  0  0  0  0  0  0  0  0  0
   -1.5000    0.0000    0.0000 C   0  0  0  0  0  0  0  0  0  0  0  0
   -0.7500    1.2990    0.0000 C   0  0  0  0  0  0  0  0  0  0  0  0
    0.7500    1.2990    0.0000 C   0  0  0  0  0  0  0  0  0  0  0  0
    1.5000    2.5981    0.0000 C   0  0  0  0  0  0  0  0  0  0  0  0
    0.7500    3.8971    0.0000 O   0  0  0  0  0  0  0  0  0  0  0  0
    3.0000    2.5981    0.0000 N   0  0  0  0  0  0  0  0  0  0  0  0
   -1.5000   -2.5981    0.0000 O   0  0  0  0  0  0  0  0  0  0  0  0
  1  2  2  0
  2  3  1  0
  3  4  2  0
  4  5  1  0
  5  6  2  0
  6  7  1  0
  7  8  2  0
  7  9  1  0
  3 10  1  0
  6  1  1  0
M  END
>  <Structure>  (155) 
5N3S

>  <Dataset>  (155) 
PDB

>  <Chain>  (155) 
A

>  <Spatial_Label>  (155) 
DFGin

>  <Dihedral_Label>  (155) 
BLAminus

>  <C_Helix_Label>  (155) 
Chelix-in

>  <Lig_ID>  (155) 
HBD

>  <Lig_Entity_ID>  (155) 
5N3S_2

>  <Lig_Name>  (155) 
4-HYDROXYBENZAMIDE

>  <Lig_Formula>  (155) 
C7H7NO2

>  <Lig_SMILES>  (155) 
c1cc(ccc1C(=O)N)O

>  <Lig_MW>  (155) 
137.136

>  <Lig_ChEMBL_ID>  (155) 
['CHEMBL123617']

>  <Lig_DrugBank_ID>  (155) 
nan

>  <Occurence>  (155) 
1.0

>  <Lig_SMILES_Uncharged>  (155) 
NC(=O)c1ccc(O)cc1

>  <Lig_Conformer>  (155) 
['A', 'B']

>  <Lig_Of_Interest>  (155) 
['N', 'N']

>  <Lig_Completeness>  (155) 
[1.0, 1.0]

>  <Lig_Occupancy>  (155) 
[0.6, 0.4]

>  <Lig_RSCC>  (155) 
[0.983, 0.983]

>  <Lig_RSR>  (155) 
[0.079, 0.079]

>  <Lig_RMSZ_Bonds>  (155) 
[0.25, 0.3]

>  <Lig_RMSZ_Angles>  (155) 
[0.15, 0.4]

>  <Lig_Alt_Conf>  (155) 
2.0

>  <Title>  (155) 
cAMP-dependent Protein Kinase A from Cricetulus griseus in complex with fragment like molecule 4-Hydroxybenzamide

>  <Nonpolymer_Entity_Count>  (155) 
5.0

>  <Protein_Entity_Count>  (155) 
1.0

>  <Exp_Method>  (155) 
X-Ray Diffraction

>  <Cryst_Method>  (155) 
Vapor Diffusion, Sitting Drop; Mes-Bis-Tris
Mega8-Solution
Dtt
Edta
Licl
Methanol

>  <Deposit_Date>  (155) 
2017-02-08

>  <Resolution>  (155) 
1.14

>  <DOI>  (155) 
https://doi.org/10.1002/anie.202011295

>  <Source_Organism>  (155) 
Cricetulus griseus

>  <R_Free>  (155) 
0.1478

>  <Keywords>  (155) 
Transferase

>  <REMARK_280>  (155) 
 Crystal Solvent Content, Vs (%): 45.00 Matthews Coefficient, Vm (Angstroms**3/Da): 2.21 Crystallization Conditions: Mes-Bis-Tris Mega8-Solution Dtt Edta Licl Methanol, pH 6.9, Vapor Diffusion, Sitting Drop, Temperature 277K 

>  <REMARK_610>  (155) 
nan

>  <pH>  (155) 
6.9

>  <Cryst_Technique>  (155) 
soaked

>  <Sequence>  (155) 
GHMGNAAAAKKGSEQESVKEFLAKAKEEFLKKWESPSQNTAQLDHFDRIKTLGTGSFGRVMLVKHKETGNHYAMKILDKQKVVKLKQIEHTLNEKRILQAVNFPFLVKLEFSFKDNSNLYMVMEYVPGGEMFSHLRRIGRFSEPHARFYAAQIVLTFEYLHSLDLIYRDLKPENLLIDQQGYIQVTDFGFAKRVKGRTWTLCGTPEYLAPEIILSKGYNKAVDWWALGVLIYEMAAGYPPFFADQPIQIYEKIVSGKVRFPSHFSSDLKDLLRNLLQVDLTKRFGNLKNGVNDIKNHKWFATTDWIAIYQRKVEAPFIPKFKGPGDTSNFDDYEEEEIRVSINEKCGKEFTEF

>  <Sequence_Length>  (155) 
353.0

>  <Mutation_Count>  (155) 
0.0

>  <Gene_Name>  (155) 
PKACA

>  <MW>  (155) 
41.194

>  <Name>  (155) 
cAMP-Dependent Protein Kinase Catalytic Subunit Alpha

>  <Mutations>  (155) 
nan

>  <EC_Number>  (155) 
2.7.11.11

>  <Peptidic_Inhibitor>  (155) 
False

>  <Lig_Missing_Atoms>  (155) 
['No', 'No']

>  <PDBbind_Resolution>  (155) 
nan

>  <PDBbind_Release_Year>  (155) 
nan

>  <PDBbind_Comment>  (155) 
nan

>  <PDBbind_Uniprot_Id>  (155) 
nan

>  <PDBbind_Protein_Name>  (155) 
nan

>  <PDBbind_-Logkd/Ki>  (155) 
nan

>  <PDBbind_Kd/Ki>  (155) 
nan

>  <PDBbind_Kd_Or_Ki_Or_Ic50>  (155) 
nan

>  <PDBbind_Relation>  (155) 
nan

>  <PDBbind_Value>  (155) 
nan

>  <PDBbind_Unit>  (155) 
nan

>  <PDBbind_Standard_Value>  (155) 
nan

>  <PDBbind_Standard_Unit>  (155) 
nan

>  <PDB_Chain>  (155) 
['A']

>  <Num_Ligs>  (155) 
[1.0]

>  <Orthosteric>  (155) 
[1.0]

>  <Allosteric>  (155) 
[0.0]

>  <Pockets_Assigned>  (155) 
['A']

>  <Multisite>  (155) 
[False]

>  <Same_Number>  (155) 
True

>  <Same_Binding_Site>  (155) 
True

>  <Same_Orientation>  (155) 
True

>  <Lig_Order_in_.pdb>  (155) 
Orthosteric

$$$$

     RDKit          2D

 10 10  0  0  0  0  0  0  0  0999 V2000
    1.2760    0.0000    0.0000 C   0  0  0  0  0  0  0  0  0  0  0  0
    0.3943    1.2135    0.0000 C   0  0  0  0  0  0  0  0  0  0  0  0
   -1.0323    0.7500    0.0000 C   0  0  0  0  0  0  0  0  0  0  0  0
   -1.0323   -0.7500    0.0000 S   0  0  0  0  0  0  0  0  0  0  0  0
    0.3943   -1.2135    0.0000 C   0  0  0  0  0  0  0  0  0  0  0  0
    0.8578   -2.6401    0.0000 S   0  0  0  0  0  0  0  0  0  0  0  0
   -0.5688   -3.1036    0.0000 O   0  0  0  0  0  0  0  0  0  0  0  0
    2.2844   -2.1766    0.0000 O   0  0  0  0  0  0  0  0  0  0  0  0
    1.3213   -4.0667    0.0000 N   0  0  0  0  0  0  0  0  0  0  0  0
   -2.2458    1.6317    0.0000 Cl  0  0  0  0  0  0  0  0  0  0  0  0
  1  2  1  0
  2  3  2  0
  3  4  1  0
  4  5  1  0
  5  6  1  0
  6  7  2  0
  6  8  2  0
  6  9  1  0
  3 10  1  0
  5  1  2  0
M  END
>  <Structure>  (156) 
5N3T

>  <Dataset>  (156) 
PDB

>  <Chain>  (156) 
A

>  <Spatial_Label>  (156) 
DFGin

>  <Dihedral_Label>  (156) 
BLAminus

>  <C_Helix_Label>  (156) 
Chelix-in

>  <Lig_ID>  (156) 
8K2

>  <Lig_Entity_ID>  (156) 
5N3T_2

>  <Lig_Name>  (156) 
5-chloranylthiophene-2-sulfonamide

>  <Lig_Formula>  (156) 
C4H4ClNO2S2

>  <Lig_SMILES>  (156) 
c1cc(sc1S(=O)(=O)N)Cl

>  <Lig_MW>  (156) 
197.663

>  <Lig_ChEMBL_ID>  (156) 
['CHEMBL447118']

>  <Lig_DrugBank_ID>  (156) 
nan

>  <Occurence>  (156) 
1.0

>  <Lig_SMILES_Uncharged>  (156) 
NS(=O)(=O)c1ccc(Cl)s1

>  <Lig_Conformer>  (156) 
['NaN', 'NaN']

>  <Lig_Of_Interest>  (156) 
['Y', 'Y']

>  <Lig_Completeness>  (156) 
[1.0, 1.0]

>  <Lig_Occupancy>  (156) 
[0.74, 0.74]

>  <Lig_RSCC>  (156) 
[0.844, 0.779]

>  <Lig_RSR>  (156) 
[0.166, 0.222]

>  <Lig_RMSZ_Bonds>  (156) 
[0.66, 0.72]

>  <Lig_RMSZ_Angles>  (156) 
[3.02, 1.53]

>  <Lig_Alt_Conf>  (156) 
0.0

>  <Title>  (156) 
cAMP-dependent Protein Kinase A from Cricetulus griseus in complex with fragment like molecule 5-Chlorothiophene-2-sulfonamide

>  <Nonpolymer_Entity_Count>  (156) 
5.0

>  <Protein_Entity_Count>  (156) 
1.0

>  <Exp_Method>  (156) 
X-Ray Diffraction

>  <Cryst_Method>  (156) 
Vapor Diffusion, Sitting Drop; Mes-Bis-Tris
Mega8-Solution
Dtt
Edta
Licl
Methanol

>  <Deposit_Date>  (156) 
2017-02-08

>  <Resolution>  (156) 
1.209

>  <DOI>  (156) 
nan

>  <Source_Organism>  (156) 
Cricetulus griseus

>  <R_Free>  (156) 
0.157

>  <Keywords>  (156) 
Transferase

>  <REMARK_280>  (156) 
 Crystal Solvent Content, Vs (%): 45.00 Matthews Coefficient, Vm (Angstroms**3/Da): 2.22 Crystallization Conditions: Mes-Bis-Tris Mega8-Solution Dtt Edta Licl Methanol, pH 6.9, Vapor Diffusion, Sitting Drop, Temperature 277K 

>  <REMARK_610>  (156) 
nan

>  <pH>  (156) 
6.9

>  <Cryst_Technique>  (156) 
nan

>  <Sequence>  (156) 
GHMGNAAAAKKGSEQESVKEFLAKAKEEFLKKWESPSQNTAQLDHFDRIKTLGTGSFGRVMLVKHKETGNHYAMKILDKQKVVKLKQIEHTLNEKRILQAVNFPFLVKLEFSFKDNSNLYMVMEYVPGGEMFSHLRRIGRFSEPHARFYAAQIVLTFEYLHSLDLIYRDLKPENLLIDQQGYIQVTDFGFAKRVKGRTWTLCGTPEYLAPEIILSKGYNKAVDWWALGVLIYEMAAGYPPFFADQPIQIYEKIVSGKVRFPSHFSSDLKDLLRNLLQVDLTKRFGNLKNGVNDIKNHKWFATTDWIAIYQRKVEAPFIPKFKGPGDTSNFDDYEEEEIRVSINEKCGKEFTEF

>  <Sequence_Length>  (156) 
353.0

>  <Mutation_Count>  (156) 
0.0

>  <Gene_Name>  (156) 
PKACA

>  <MW>  (156) 
41.194

>  <Name>  (156) 
cAMP-Dependent Protein Kinase Catalytic Subunit Alpha

>  <Mutations>  (156) 
nan

>  <EC_Number>  (156) 
2.7.11.11

>  <Peptidic_Inhibitor>  (156) 
False

>  <Lig_Missing_Atoms>  (156) 
['No', 'No']

>  <PDBbind_Resolution>  (156) 
nan

>  <PDBbind_Release_Year>  (156) 
nan

>  <PDBbind_Comment>  (156) 
nan

>  <PDBbind_Uniprot_Id>  (156) 
nan

>  <PDBbind_Protein_Name>  (156) 
nan

>  <PDBbind_-Logkd/Ki>  (156) 
nan

>  <PDBbind_Kd/Ki>  (156) 
nan

>  <PDBbind_Kd_Or_Ki_Or_Ic50>  (156) 
nan

>  <PDBbind_Relation>  (156) 
nan

>  <PDBbind_Value>  (156) 
nan

>  <PDBbind_Unit>  (156) 
nan

>  <PDBbind_Standard_Value>  (156) 
nan

>  <PDBbind_Standard_Unit>  (156) 
nan

>  <PDB_Chain>  (156) 
['A']

>  <Num_Ligs>  (156) 
[2.0]

>  <Orthosteric>  (156) 
[0.0]

>  <Allosteric>  (156) 
[2.0]

>  <Pockets_Assigned>  (156) 
['F, X']

>  <Multisite>  (156) 
[True]

>  <Same_Number>  (156) 
True

>  <Same_Binding_Site>  (156) 
True

>  <Same_Orientation>  (156) 
True

>  <Lig_Order_in_.pdb>  (156) 
Allosteric, Allosteric

$$$$

     RDKit          2D

 13 14  0  0  0  0  0  0  0  0999 V2000
    1.2760    0.0000    0.0000 C   0  0  0  0  0  0  0  0  0  0  0  0
    0.3943    1.2135    0.0000 C   0  0  0  0  0  0  0  0  0  0  0  0
   -1.0323    0.7500    0.0000 C   0  0  0  0  0  0  0  0  0  0  0  0
   -1.0323   -0.7500    0.0000 N   0  0  0  0  0  0  0  0  0  0  0  0
    0.3943   -1.2135    0.0000 C   0  0  0  0  0  0  0  0  0  0  0  0
   -2.2458   -1.6317    0.0000 C   0  0  0  0  0  0  0  0  0  0  0  0
   -2.2458   -3.1317    0.0000 C   0  0  0  0  0  0  0  0  0  0  0  0
   -3.6724   -3.5952    0.0000 C   0  0  0  0  0  0  0  0  0  0  0  0
   -4.5541   -2.3817    0.0000 N   0  0  0  0  0  0  0  0  0  0  0  0
   -3.6724   -1.1682    0.0000 N   0  0  0  0  0  0  0  0  0  0  0  0
   -4.1359   -5.0218    0.0000 N   0  0  0  0  0  0  0  0  0  0  0  0
   -1.0323   -4.0134    0.0000 C   0  0  0  0  0  0  0  0  0  0  0  0
    0.1812   -4.8950    0.0000 N   0  0  0  0  0  0  0  0  0  0  0  0
  1  2  1  0
  2  3  1  0
  3  4  1  0
  4  5  1  0
  4  6  1  0
  6  7  1  0
  7  8  2  0
  8  9  1  0
  9 10  1  0
  8 11  1  0
  7 12  1  0
 12 13  3  0
  5  1  1  0
 10  6  2  0
M  END
>  <Structure>  (157) 
5N7P

>  <Dataset>  (157) 
PDB

>  <Chain>  (157) 
A

>  <Spatial_Label>  (157) 
DFGin

>  <Dihedral_Label>  (157) 
BLAminus

>  <C_Helix_Label>  (157) 
Chelix-in

>  <Lig_ID>  (157) 
E9Q

>  <Lig_Entity_ID>  (157) 
5N7P_3

>  <Lig_Name>  (157) 
5-azanyl-3-pyrrolidin-1-yl-1~{H}-pyrazole-4-carbonitrile

>  <Lig_Formula>  (157) 
C8H11N5

>  <Lig_SMILES>  (157) 
C1CCN(C1)c2c(c([nH]n2)N)C#N

>  <Lig_MW>  (157) 
177.206

>  <Lig_ChEMBL_ID>  (157) 
['CHEMBL2393369']

>  <Lig_DrugBank_ID>  (157) 
nan

>  <Occurence>  (157) 
1.0

>  <Lig_SMILES_Uncharged>  (157) 
N#Cc1c(N2CCCC2)n[nH]c1N

>  <Lig_Conformer>  (157) 
['NaN']

>  <Lig_Of_Interest>  (157) 
['Y']

>  <Lig_Completeness>  (157) 
[1.0]

>  <Lig_Occupancy>  (157) 
[1.0]

>  <Lig_RSCC>  (157) 
[0.951]

>  <Lig_RSR>  (157) 
[0.068]

>  <Lig_RMSZ_Bonds>  (157) 
[0.76]

>  <Lig_RMSZ_Angles>  (157) 
[0.42]

>  <Lig_Alt_Conf>  (157) 
0.0

>  <Title>  (157) 
cAMP-dependent Protein Kinase A from Cricetulus griseus in complex with fragment like molecule 3-amino-5-(pyrrolidin-1-yl)-1H-pyrazole-4-carbonitrile

>  <Nonpolymer_Entity_Count>  (157) 
2.0

>  <Protein_Entity_Count>  (157) 
2.0

>  <Exp_Method>  (157) 
X-Ray Diffraction

>  <Cryst_Method>  (157) 
Vapor Diffusion, Sitting Drop; Mes-Bis-Tris
Mega8-Solution
Dtt
Edta
Licl
Methanol

>  <Deposit_Date>  (157) 
2017-02-21

>  <Resolution>  (157) 
1.501

>  <DOI>  (157) 
nan

>  <Source_Organism>  (157) 
Cricetulus griseus

>  <R_Free>  (157) 
0.1864

>  <Keywords>  (157) 
Transferase

>  <REMARK_280>  (157) 
 Crystal Solvent Content, Vs (%): 57.00 Matthews Coefficient, Vm (Angstroms**3/Da): 2.85 Crystallization Conditions: Mes-Bis-Tris Mega8-Solution Dtt Edta Licl Methanol, pH 6.9, Vapor Diffusion, Sitting Drop, Temperature 277K 

>  <REMARK_610>  (157) 
nan

>  <pH>  (157) 
6.9

>  <Cryst_Technique>  (157) 
nan

>  <Sequence>  (157) 
GHMGNAAAAKKGSEQESVKEFLAKAKEEFLKKWESPSQNTAQLDHFDRIKTLGTGSFGRVMLVKHKETGNHYAMKILDKQKVVKLKQIEHTLNEKRILQAVNFPFLVKLEFSFKDNSNLYMVMEYVPGGEMFSHLRRIGRFSEPHARFYAAQIVLTFEYLHSLDLIYRDLKPENLLIDQQGYIQVTDFGFAKRVKGRTWTLCGTPEYLAPEIILSKGYNKAVDWWALGVLIYEMAAGYPPFFADQPIQIYEKIVSGKVRFPSHFSSDLKDLLRNLLQVDLTKRFGNLKNGVNDIKNHKWFATTDWIAIYQRKVEAPFIPKFKGPGDTSNFDDYEEEEIRVSINEKCGKEFTEF

>  <Sequence_Length>  (157) 
353.0

>  <Mutation_Count>  (157) 
0.0

>  <Gene_Name>  (157) 
PKACA

>  <MW>  (157) 
41.114

>  <Name>  (157) 
cAMP-Dependent Protein Kinase Catalytic Subunit Alpha

>  <Mutations>  (157) 
nan

>  <EC_Number>  (157) 
2.7.11.11

>  <Peptidic_Inhibitor>  (157) 
True

>  <Lig_Missing_Atoms>  (157) 
['No']

>  <PDBbind_Resolution>  (157) 
nan

>  <PDBbind_Release_Year>  (157) 
nan

>  <PDBbind_Comment>  (157) 
nan

>  <PDBbind_Uniprot_Id>  (157) 
nan

>  <PDBbind_Protein_Name>  (157) 
nan

>  <PDBbind_-Logkd/Ki>  (157) 
nan

>  <PDBbind_Kd/Ki>  (157) 
nan

>  <PDBbind_Kd_Or_Ki_Or_Ic50>  (157) 
nan

>  <PDBbind_Relation>  (157) 
nan

>  <PDBbind_Value>  (157) 
nan

>  <PDBbind_Unit>  (157) 
nan

>  <PDBbind_Standard_Value>  (157) 
nan

>  <PDBbind_Standard_Unit>  (157) 
nan

>  <PDB_Chain>  (157) 
['A']

>  <Num_Ligs>  (157) 
[1.0]

>  <Orthosteric>  (157) 
[1.0]

>  <Allosteric>  (157) 
[0.0]

>  <Pockets_Assigned>  (157) 
['A']

>  <Multisite>  (157) 
[False]

>  <Same_Number>  (157) 
True

>  <Same_Binding_Site>  (157) 
True

>  <Same_Orientation>  (157) 
True

>  <Lig_Order_in_.pdb>  (157) 
Orthosteric

$$$$

     RDKit          2D

  8  8  0  0  0  0  0  0  0  0999 V2000
    2.7760    0.0000    0.0000 C   0  0  0  0  0  0  0  0  0  0  0  0
    1.2760    0.0000    0.0000 C   0  0  0  0  0  0  0  0  0  0  0  0
    0.3943    1.2135    0.0000 C   0  0  0  0  0  0  0  0  0  0  0  0
   -1.0323    0.7500    0.0000 C   0  0  0  0  0  0  0  0  0  0  0  0
   -1.0323   -0.7500    0.0000 N   0  0  0  0  0  0  0  0  0  0  0  0
    0.3943   -1.2135    0.0000 N   0  0  0  0  0  0  0  0  0  0  0  0
   -2.2458    1.6317    0.0000 C   0  0  0  0  0  0  0  0  0  0  0  0
    0.8578    2.6401    0.0000 Br  0  0  0  0  0  0  0  0  0  0  0  0
  1  2  1  0
  2  3  2  0
  3  4  1  0
  4  5  2  0
  5  6  1  0
  4  7  1  0
  3  8  1  0
  6  2  1  0
M  END
>  <Structure>  (158) 
5N7U

>  <Dataset>  (158) 
PDB

>  <Chain>  (158) 
A

>  <Spatial_Label>  (158) 
DFGin

>  <Dihedral_Label>  (158) 
BLAminus

>  <C_Helix_Label>  (158) 
Chelix-in

>  <Lig_ID>  (158) 
8PQ

>  <Lig_Entity_ID>  (158) 
5N7U_4

>  <Lig_Name>  (158) 
4-bromanyl-3,5-dimethyl-1~{H}-pyrazole

>  <Lig_Formula>  (158) 
C5H7BrN2

>  <Lig_SMILES>  (158) 
Cc1c(c(n[nH]1)C)Br

>  <Lig_MW>  (158) 
175.026

>  <Lig_ChEMBL_ID>  (158) 
nan

>  <Lig_DrugBank_ID>  (158) 
nan

>  <Occurence>  (158) 
1.0

>  <Lig_SMILES_Uncharged>  (158) 
Cc1n[nH]c(C)c1Br

>  <Lig_Conformer>  (158) 
['A', 'B']

>  <Lig_Of_Interest>  (158) 
['Y', 'Y']

>  <Lig_Completeness>  (158) 
[1.0, 1.0]

>  <Lig_Occupancy>  (158) 
[0.6, 0.4]

>  <Lig_RSCC>  (158) 
[0.958, 0.958]

>  <Lig_RSR>  (158) 
[0.135, 0.135]

>  <Lig_RMSZ_Bonds>  (158) 
[1.06, 0.97]

>  <Lig_RMSZ_Angles>  (158) 
[1.93, 0.95]

>  <Lig_Alt_Conf>  (158) 
2.0

>  <Title>  (158) 
cAMP-dependent Protein Kinase A from Cricetulus griseus in complex with fragment like molecule 4-Bromo-3,5-dimethyl-1H-pyrazole

>  <Nonpolymer_Entity_Count>  (158) 
2.0

>  <Protein_Entity_Count>  (158) 
2.0

>  <Exp_Method>  (158) 
X-Ray Diffraction

>  <Cryst_Method>  (158) 
Vapor Diffusion, Sitting Drop; Mes-Bis-Tris
Mega8-Solution
Dtt
Edta
Licl
Methanol

>  <Deposit_Date>  (158) 
2017-02-21

>  <Resolution>  (158) 
1.371

>  <DOI>  (158) 
nan

>  <Source_Organism>  (158) 
Cricetulus griseus

>  <R_Free>  (158) 
0.1767

>  <Keywords>  (158) 
Transferase

>  <REMARK_280>  (158) 
 Crystal Solvent Content, Vs (%): 57.00 Matthews Coefficient, Vm (Angstroms**3/Da): 2.84 Crystallization Conditions: Mes-Bis-Tris Mega8-Solution Dtt Edta Licl Methanol, pH 6.9, Vapor Diffusion, Sitting Drop, Temperature 277K 

>  <REMARK_610>  (158) 
nan

>  <pH>  (158) 
6.9

>  <Cryst_Technique>  (158) 
nan

>  <Sequence>  (158) 
GHMGNAAAAKKGSEQESVKEFLAKAKEEFLKKWESPSQNTAQLDHFDRIKTLGTGSFGRVMLVKHKETGNHYAMKILDKQKVVKLKQIEHTLNEKRILQAVNFPFLVKLEFSFKDNSNLYMVMEYVPGGEMFSHLRRIGRFSEPHARFYAAQIVLTFEYLHSLDLIYRDLKPENLLIDQQGYIQVTDFGFAKRVKGRTWTLCGTPEYLAPEIILSKGYNKAVDWWALGVLIYEMAAGYPPFFADQPIQIYEKIVSGKVRFPSHFSSDLKDLLRNLLQVDLTKRFGNLKNGVNDIKNHKWFATTDWIAIYQRKVEAPFIPKFKGPGDTSNFDDYEEEEIRVSINEKCGKEFTEF

>  <Sequence_Length>  (158) 
353.0

>  <Mutation_Count>  (158) 
0.0

>  <Gene_Name>  (158) 
PKACA

>  <MW>  (158) 
41.114

>  <Name>  (158) 
cAMP-Dependent Protein Kinase Catalytic Subunit Alpha

>  <Mutations>  (158) 
nan

>  <EC_Number>  (158) 
2.7.11.11

>  <Peptidic_Inhibitor>  (158) 
True

>  <Lig_Missing_Atoms>  (158) 
['No', 'No']

>  <PDBbind_Resolution>  (158) 
nan

>  <PDBbind_Release_Year>  (158) 
nan

>  <PDBbind_Comment>  (158) 
nan

>  <PDBbind_Uniprot_Id>  (158) 
nan

>  <PDBbind_Protein_Name>  (158) 
nan

>  <PDBbind_-Logkd/Ki>  (158) 
nan

>  <PDBbind_Kd/Ki>  (158) 
nan

>  <PDBbind_Kd_Or_Ki_Or_Ic50>  (158) 
nan

>  <PDBbind_Relation>  (158) 
nan

>  <PDBbind_Value>  (158) 
nan

>  <PDBbind_Unit>  (158) 
nan

>  <PDBbind_Standard_Value>  (158) 
nan

>  <PDBbind_Standard_Unit>  (158) 
nan

>  <PDB_Chain>  (158) 
['A']

>  <Num_Ligs>  (158) 
[1.0]

>  <Orthosteric>  (158) 
[1.0]

>  <Allosteric>  (158) 
[0.0]

>  <Pockets_Assigned>  (158) 
['A']

>  <Multisite>  (158) 
[False]

>  <Same_Number>  (158) 
True

>  <Same_Binding_Site>  (158) 
True

>  <Same_Orientation>  (158) 
True

>  <Lig_Order_in_.pdb>  (158) 
Orthosteric

$$$$

     RDKit          2D

 20 22  0  0  0  0  0  0  0  0999 V2000
    0.7500   -3.8971    0.0000 C   0  0  0  0  0  0  0  0  0  0  0  0
    1.5000   -2.5981    0.0000 C   0  0  0  0  0  0  0  0  0  0  0  0
    0.7500   -1.2990    0.0000 C   0  0  0  0  0  0  0  0  0  0  0  0
    1.5000    0.0000    0.0000 C   0  0  0  0  0  0  0  0  0  0  0  0
    0.7500    1.2990    0.0000 N   0  0  0  0  0  0  0  0  0  0  0  0
   -0.7500    1.2990    0.0000 C   0  0  0  0  0  0  0  0  0  0  0  0
   -1.5000    0.0000    0.0000 C   0  0  0  0  0  0  0  0  0  0  0  0
   -0.7500   -1.2990    0.0000 C   0  0  0  0  0  0  0  0  0  0  0  0
   -1.5000   -2.5981    0.0000 C   0  0  0  0  0  0  0  0  0  0  0  0
   -0.7500   -3.8971    0.0000 C   0  0  0  0  0  0  0  0  0  0  0  0
   -3.0000   -2.5981    0.0000 S   0  0  0  0  0  0  0  0  0  0  0  0
   -3.0000   -4.0981    0.0000 O   0  0  0  0  0  0  0  0  0  0  0  0
   -3.0000   -1.0981    0.0000 O   0  0  0  0  0  0  0  0  0  0  0  0
   -4.5000   -2.5981    0.0000 N   0  0  0  0  0  0  0  0  0  0  0  0
   -5.1508   -3.9495    0.0000 C   0  0  0  0  0  0  0  0  0  0  0  0
   -6.6132   -4.2833    0.0000 C   0  0  0  0  0  0  0  0  0  0  0  0
   -7.7860   -3.3481    0.0000 C   0  0  0  0  0  0  0  0  0  0  0  0
   -7.7860   -1.8481    0.0000 N   0  0  0  0  0  0  0  0  0  0  0  0
   -6.6132   -0.9128    0.0000 C   0  0  0  0  0  0  0  0  0  0  0  0
   -5.1508   -1.2466    0.0000 C   0  0  0  0  0  0  0  0  0  0  0  0
  1  2  2  0
  2  3  1  0
  3  4  2  0
  4  5  1  0
  5  6  2  0
  6  7  1  0
  7  8  2  0
  8  9  1  0
  9 10  2  0
  9 11  1  0
 11 12  2  0
 11 13  2  0
 11 14  1  0
 14 15  1  0
 15 16  1  0
 16 17  1  0
 17 18  1  0
 18 19  1  0
 19 20  1  0
 10  1  1  0
  8  3  1  0
 20 14  1  0
M  END
>  <Structure>  (159) 
5NW8

>  <Dataset>  (159) 
PDB

>  <Chain>  (159) 
A

>  <Spatial_Label>  (159) 
DFGin

>  <Dihedral_Label>  (159) 
ABAminus

>  <C_Helix_Label>  (159) 
Chelix-in

>  <Lig_ID>  (159) 
M77

>  <Lig_Entity_ID>  (159) 
5NW8_4

>  <Lig_Name>  (159) 
5-(1,4-DIAZEPAN-1-SULFONYL)ISOQUINOLINE

>  <Lig_Formula>  (159) 
C14H17N3O2S

>  <Lig_SMILES>  (159) 
c1cc2cnccc2c(c1)S(=O)(=O)N3CCCNCC3

>  <Lig_MW>  (159) 
291.369

>  <Lig_ChEMBL_ID>  (159) 
['CHEMBL38380']

>  <Lig_DrugBank_ID>  (159) 
['DB08162']

>  <Occurence>  (159) 
10.0

>  <Lig_SMILES_Uncharged>  (159) 
O=S(=O)(c1cccc2cnccc12)N1CCCNCC1

>  <Lig_Conformer>  (159) 
['NaN']

>  <Lig_Of_Interest>  (159) 
['Y']

>  <Lig_Completeness>  (159) 
[1.0]

>  <Lig_Occupancy>  (159) 
[1.0]

>  <Lig_RSCC>  (159) 
[0.969]

>  <Lig_RSR>  (159) 
[0.125]

>  <Lig_RMSZ_Bonds>  (159) 
[0.28]

>  <Lig_RMSZ_Angles>  (159) 
[0.51]

>  <Lig_Alt_Conf>  (159) 
0.0

>  <Title>  (159) 
Crystal Structure of the Protein-Kinase A catalytic subunit from Criteculus Griseus in complex with compounds RKp032 and Fasudil

>  <Nonpolymer_Entity_Count>  (159) 
3.0

>  <Protein_Entity_Count>  (159) 
2.0

>  <Exp_Method>  (159) 
X-Ray Diffraction

>  <Cryst_Method>  (159) 
Vapor Diffusion, Sitting Drop; 5 Mm Mes-Bis-Tris, 75 Mm Lithium Chloride, 1 Mm Dtt, 0.1 Mm Sodium Edta, 0.25 Mm Mega 8, 0.7 Mm Peptidic Ligand, 5 Mm Fasudil X Hcl, 16 % V/V Methanol/Water In Reservoir

>  <Deposit_Date>  (159) 
2017-05-05

>  <Resolution>  (159) 
2.086

>  <DOI>  (159) 
https://doi.org/10.1021/acsomega.8b02364

>  <Source_Organism>  (159) 
Cricetulus griseus

>  <R_Free>  (159) 
0.2118

>  <Keywords>  (159) 
Transferase

>  <REMARK_280>  (159) 
 Crystal Solvent Content, Vs (%): 51.96 Matthews Coefficient, Vm (Angstroms**3/Da): 2.56 Crystallization Conditions: 5 Mm Mes-Bis-Tris, 75 Mm Lithium Chloride, 1 Mm Dtt, 0.1 Mm Sodium Edta, 0.25 Mm Mega 8, 0.7 Mm Peptidic Ligand, 5 Mm Fasudil X Hcl, 16 % V/V Methanol/Water In Reservoir, pH 6.9, Vapor Diffusion, Sitting Drop, Temperature 277.15K 

>  <REMARK_610>  (159) 
nan

>  <pH>  (159) 
6.9

>  <Cryst_Technique>  (159) 
co-crystallized

>  <Sequence>  (159) 
MGNAAAAKKGSEQESVKEFLAKAKEEFLKKWESPSQNTAQLDHFDRIKTLGTGSFGRVMLVKHKETGNHYAMKILDKQKVVKLKQIEHTLNEKRILQAVNFPFLVKLEFSFKDNSNLYMVMEYVPGGEMFSHLRRIGRFSEPHARFYAAQIVLTFEYLHSLDLIYRDLKPENLLIDQQGYIQVTDFGFAKRVKGRTWTLCGTPEYLAPEIILSKGYNKAVDWWALGVLIYEMAAGYPPFFADQPIQIYEKIVSGKVRFPSHFSSDLKDLLRNLLQVDLTKRFGNLKNGVNDIKNHKWFATTDWIAIYQRKVEAPFIPKFKGPGDTSNFDDYEEEEIRVSINEKCGKEFTEF

>  <Sequence_Length>  (159) 
351.0

>  <Mutation_Count>  (159) 
0.0

>  <Gene_Name>  (159) 
PKACA

>  <MW>  (159) 
40.999

>  <Name>  (159) 
cAMP-Dependent Protein Kinase Catalytic Subunit Alpha

>  <Mutations>  (159) 
nan

>  <EC_Number>  (159) 
2.7.11.11

>  <Peptidic_Inhibitor>  (159) 
True

>  <Lig_Missing_Atoms>  (159) 
['No']

>  <PDBbind_Resolution>  (159) 
nan

>  <PDBbind_Release_Year>  (159) 
nan

>  <PDBbind_Comment>  (159) 
nan

>  <PDBbind_Uniprot_Id>  (159) 
nan

>  <PDBbind_Protein_Name>  (159) 
nan

>  <PDBbind_-Logkd/Ki>  (159) 
nan

>  <PDBbind_Kd/Ki>  (159) 
nan

>  <PDBbind_Kd_Or_Ki_Or_Ic50>  (159) 
nan

>  <PDBbind_Relation>  (159) 
nan

>  <PDBbind_Value>  (159) 
nan

>  <PDBbind_Unit>  (159) 
nan

>  <PDBbind_Standard_Value>  (159) 
nan

>  <PDBbind_Standard_Unit>  (159) 
nan

>  <PDB_Chain>  (159) 
['A']

>  <Num_Ligs>  (159) 
[1.0]

>  <Orthosteric>  (159) 
[1.0]

>  <Allosteric>  (159) 
[0.0]

>  <Pockets_Assigned>  (159) 
['A']

>  <Multisite>  (159) 
[False]

>  <Same_Number>  (159) 
True

>  <Same_Binding_Site>  (159) 
True

>  <Same_Orientation>  (159) 
True

>  <Lig_Order_in_.pdb>  (159) 
Orthosteric

$$$$

     RDKit          2D

 20 22  0  0  0  0  0  0  0  0999 V2000
    0.7500   -3.8971    0.0000 C   0  0  0  0  0  0  0  0  0  0  0  0
    1.5000   -2.5981    0.0000 C   0  0  0  0  0  0  0  0  0  0  0  0
    0.7500   -1.2990    0.0000 C   0  0  0  0  0  0  0  0  0  0  0  0
    1.5000    0.0000    0.0000 C   0  0  0  0  0  0  0  0  0  0  0  0
    0.7500    1.2990    0.0000 N   0  0  0  0  0  0  0  0  0  0  0  0
   -0.7500    1.2990    0.0000 C   0  0  0  0  0  0  0  0  0  0  0  0
   -1.5000    0.0000    0.0000 C   0  0  0  0  0  0  0  0  0  0  0  0
   -0.7500   -1.2990    0.0000 C   0  0  0  0  0  0  0  0  0  0  0  0
   -1.5000   -2.5981    0.0000 C   0  0  0  0  0  0  0  0  0  0  0  0
   -0.7500   -3.8971    0.0000 C   0  0  0  0  0  0  0  0  0  0  0  0
   -3.0000   -2.5981    0.0000 S   0  0  0  0  0  0  0  0  0  0  0  0
   -3.0000   -4.0981    0.0000 O   0  0  0  0  0  0  0  0  0  0  0  0
   -3.0000   -1.0981    0.0000 O   0  0  0  0  0  0  0  0  0  0  0  0
   -4.5000   -2.5981    0.0000 N   0  0  0  0  0  0  0  0  0  0  0  0
   -5.1508   -3.9495    0.0000 C   0  0  0  0  0  0  0  0  0  0  0  0
   -6.6132   -4.2833    0.0000 C   0  0  0  0  0  0  0  0  0  0  0  0
   -7.7860   -3.3481    0.0000 C   0  0  0  0  0  0  0  0  0  0  0  0
   -7.7860   -1.8481    0.0000 N   0  0  0  0  0  0  0  0  0  0  0  0
   -6.6132   -0.9128    0.0000 C   0  0  0  0  0  0  0  0  0  0  0  0
   -5.1508   -1.2466    0.0000 C   0  0  0  0  0  0  0  0  0  0  0  0
  1  2  2  0
  2  3  1  0
  3  4  2  0
  4  5  1  0
  5  6  2  0
  6  7  1  0
  7  8  2  0
  8  9  1  0
  9 10  2  0
  9 11  1  0
 11 12  2  0
 11 13  2  0
 11 14  1  0
 14 15  1  0
 15 16  1  0
 16 17  1  0
 17 18  1  0
 18 19  1  0
 19 20  1  0
 10  1  1  0
  8  3  1  0
 20 14  1  0
M  END
>  <Structure>  (160) 
5O0E

>  <Dataset>  (160) 
PDB

>  <Chain>  (160) 
A

>  <Spatial_Label>  (160) 
DFGin

>  <Dihedral_Label>  (160) 
ABAminus

>  <C_Helix_Label>  (160) 
Chelix-in

>  <Lig_ID>  (160) 
M77

>  <Lig_Entity_ID>  (160) 
5O0E_3

>  <Lig_Name>  (160) 
5-(1,4-DIAZEPAN-1-SULFONYL)ISOQUINOLINE

>  <Lig_Formula>  (160) 
C14H17N3O2S

>  <Lig_SMILES>  (160) 
c1cc2cnccc2c(c1)S(=O)(=O)N3CCCNCC3

>  <Lig_MW>  (160) 
291.369

>  <Lig_ChEMBL_ID>  (160) 
['CHEMBL38380']

>  <Lig_DrugBank_ID>  (160) 
['DB08162']

>  <Occurence>  (160) 
10.0

>  <Lig_SMILES_Uncharged>  (160) 
O=S(=O)(c1cccc2cnccc12)N1CCCNCC1

>  <Lig_Conformer>  (160) 
['NaN']

>  <Lig_Of_Interest>  (160) 
['Y']

>  <Lig_Completeness>  (160) 
[1.0]

>  <Lig_Occupancy>  (160) 
[1.0]

>  <Lig_RSCC>  (160) 
[0.995]

>  <Lig_RSR>  (160) 
[0.082]

>  <Lig_RMSZ_Bonds>  (160) 
[0.25]

>  <Lig_RMSZ_Angles>  (160) 
[0.51]

>  <Lig_Alt_Conf>  (160) 
0.0

>  <Title>  (160) 
Crystal Structure of the Protein-Kinase A catalytic subunit from Criteculus Griseus in complex with compounds RKp120 and Fasudil

>  <Nonpolymer_Entity_Count>  (160) 
2.0

>  <Protein_Entity_Count>  (160) 
2.0

>  <Exp_Method>  (160) 
X-Ray Diffraction

>  <Cryst_Method>  (160) 
Vapor Diffusion, Sitting Drop; 5 Mm Mes-Bis-Tris, 75 Mm Lithium Chloride, 1 Mm Dtt, 0.1 Mm Sodium Edta, 0.25 Mm Mega 8, 0.7 Mm Peptidic Ligand, 5 Mm Fasudil X Hcl, 20 % V/V Methanol/Water In Reservoir

>  <Deposit_Date>  (160) 
2017-05-16

>  <Resolution>  (160) 
1.5

>  <DOI>  (160) 
https://doi.org/10.1021/acsomega.8b02364

>  <Source_Organism>  (160) 
Cricetulus griseus

>  <R_Free>  (160) 
0.1699

>  <Keywords>  (160) 
Transferase

>  <REMARK_280>  (160) 
 Crystal Solvent Content, Vs (%): 56.82 Matthews Coefficient, Vm (Angstroms**3/Da): 2.85 Crystallization Conditions: 5 Mm Mes-Bis-Tris, 75 Mm Lithium Chloride, 1 Mm Dtt, 0.1 Mm Sodium Edta, 0.25 Mm Mega 8, 0.7 Mm Peptidic Ligand, 5 Mm Fasudil X Hcl, 20 % V/V Methanol/Water In Reservoir, pH 6.9, Vapor Diffusion, Sitting Drop, Temperature 277.15K 

>  <REMARK_610>  (160) 
nan

>  <pH>  (160) 
6.9

>  <Cryst_Technique>  (160) 
co-crystallized

>  <Sequence>  (160) 
GHMGNAAAAKKGSEQESVKEFLAKAKEEFLKKWESPSQNTAQLDHFDRIKTLGTGSFGRVMLVKHKETGNHYAMKILDKQKVVKLKQIEHTLNEKRILQAVNFPFLVKLEFSFKDNSNLYMVMEYVPGGEMFSHLRRIGRFSEPHARFYAAQIVLTFEYLHSLDLIYRDLKPENLLIDQQGYIQVTDFGFAKRVKGRTWTLCGTPEYLAPEIILSKGYNKAVDWWALGVLIYEMAAGYPPFFADQPIQIYEKIVSGKVRFPSHFSSDLKDLLRNLLQVDLTKRFGNLKNGVNDIKNHKWFATTDWIAIYQRKVEAPFIPKFKGPGDTSNFDDYEEEEIRVSINEKCGKEFTEF

>  <Sequence_Length>  (160) 
353.0

>  <Mutation_Count>  (160) 
0.0

>  <Gene_Name>  (160) 
PKACA

>  <MW>  (160) 
41.194

>  <Name>  (160) 
cAMP-Dependent Protein Kinase Catalytic Subunit Alpha

>  <Mutations>  (160) 
nan

>  <EC_Number>  (160) 
2.7.11.11

>  <Peptidic_Inhibitor>  (160) 
True

>  <Lig_Missing_Atoms>  (160) 
['No']

>  <PDBbind_Resolution>  (160) 
nan

>  <PDBbind_Release_Year>  (160) 
nan

>  <PDBbind_Comment>  (160) 
nan

>  <PDBbind_Uniprot_Id>  (160) 
nan

>  <PDBbind_Protein_Name>  (160) 
nan

>  <PDBbind_-Logkd/Ki>  (160) 
nan

>  <PDBbind_Kd/Ki>  (160) 
nan

>  <PDBbind_Kd_Or_Ki_Or_Ic50>  (160) 
nan

>  <PDBbind_Relation>  (160) 
nan

>  <PDBbind_Value>  (160) 
nan

>  <PDBbind_Unit>  (160) 
nan

>  <PDBbind_Standard_Value>  (160) 
nan

>  <PDBbind_Standard_Unit>  (160) 
nan

>  <PDB_Chain>  (160) 
['A']

>  <Num_Ligs>  (160) 
[1.0]

>  <Orthosteric>  (160) 
[1.0]

>  <Allosteric>  (160) 
[0.0]

>  <Pockets_Assigned>  (160) 
['A']

>  <Multisite>  (160) 
[False]

>  <Same_Number>  (160) 
True

>  <Same_Binding_Site>  (160) 
True

>  <Same_Orientation>  (160) 
True

>  <Lig_Order_in_.pdb>  (160) 
Orthosteric

$$$$

     RDKit          2D

 30 33  0  0  0  0  0  0  0  0999 V2000
   11.8403    0.1044    0.0000 B   0  0  0  0  0  0  0  0  0  0  0  0
   11.7282   -1.3914    0.0000 C   0  0  0  0  0  0  0  0  0  0  0  0
   12.9676   -2.2364    0.0000 C   0  0  0  0  0  0  0  0  0  0  0  0
   12.8555   -3.7322    0.0000 C   0  0  0  0  0  0  0  0  0  0  0  0
   11.5040   -4.3830    0.0000 C   0  0  0  0  0  0  0  0  0  0  0  0
   10.2647   -3.5380    0.0000 C   0  0  0  0  0  0  0  0  0  0  0  0
   10.3768   -2.0422    0.0000 C   0  0  0  0  0  0  0  0  0  0  0  0
    9.1374   -1.1973    0.0000 C   0  0  0  0  0  0  0  0  0  0  0  0
    7.7860   -1.8481    0.0000 N   0  0  0  0  0  0  0  0  0  0  0  0
    7.7860   -3.3481    0.0000 C   0  0  0  0  0  0  0  0  0  0  0  0
    6.6132   -4.2833    0.0000 C   0  0  0  0  0  0  0  0  0  0  0  0
    5.1508   -3.9495    0.0000 C   0  0  0  0  0  0  0  0  0  0  0  0
    4.5000   -2.5981    0.0000 N   0  0  0  0  0  0  0  0  0  0  0  0
    5.1508   -1.2466    0.0000 C   0  0  0  0  0  0  0  0  0  0  0  0
    6.6132   -0.9128    0.0000 C   0  0  0  0  0  0  0  0  0  0  0  0
    3.0000   -2.5981    0.0000 S   0  0  0  0  0  0  0  0  0  0  0  0
    3.0000   -4.0981    0.0000 O   0  0  0  0  0  0  0  0  0  0  0  0
    3.0000   -1.0981    0.0000 O   0  0  0  0  0  0  0  0  0  0  0  0
    1.5000   -2.5981    0.0000 C   0  0  0  0  0  0  0  0  0  0  0  0
    0.7500   -3.8971    0.0000 C   0  0  0  0  0  0  0  0  0  0  0  0
   -0.7500   -3.8971    0.0000 C   0  0  0  0  0  0  0  0  0  0  0  0
   -1.5000   -2.5981    0.0000 C   0  0  0  0  0  0  0  0  0  0  0  0
   -0.7500   -1.2990    0.0000 C   0  0  0  0  0  0  0  0  0  0  0  0
    0.7500   -1.2990    0.0000 C   0  0  0  0  0  0  0  0  0  0  0  0
    1.5000    0.0000    0.0000 C   0  0  0  0  0  0  0  0  0  0  0  0
    0.7500    1.2990    0.0000 C   0  0  0  0  0  0  0  0  0  0  0  0
   -0.7500    1.2990    0.0000 N   0  0  0  0  0  0  0  0  0  0  0  0
   -1.5000    0.0000    0.0000 C   0  0  0  0  0  0  0  0  0  0  0  0
   13.1918    0.7552    0.0000 O   0  0  0  0  0  0  0  0  0  0  0  0
   10.6010    0.9494    0.0000 O   0  0  0  0  0  0  0  0  0  0  0  0
  1  2  1  0
  2  3  2  0
  3  4  1  0
  4  5  2  0
  5  6  1  0
  6  7  2  0
  7  8  1  0
  8  9  1  0
  9 10  1  0
 10 11  1  0
 11 12  1  0
 12 13  1  0
 13 14  1  0
 14 15  1  0
 13 16  1  0
 16 17  2  0
 16 18  2  0
 16 19  1  0
 19 20  2  0
 20 21  1  0
 21 22  2  0
 22 23  1  0
 23 24  2  0
 24 25  1  0
 25 26  2  0
 26 27  1  0
 27 28  2  0
  1 29  1  0
  1 30  1  0
  7  2  1  0
 15  9  1  0
 24 19  1  0
 28 23  1  0
M  END
>  <Structure>  (161) 
5O5M

>  <Dataset>  (161) 
PDB

>  <Chain>  (161) 
A

>  <Spatial_Label>  (161) 
DFGin

>  <Dihedral_Label>  (161) 
ABAminus

>  <C_Helix_Label>  (161) 
Chelix-in

>  <Lig_ID>  (161) 
9LQ

>  <Lig_Entity_ID>  (161) 
5O5M_3

>  <Lig_Name>  (161) 
[2-[(4-isoquinolin-5-ylsulfonyl-1,4-diazepan-1-yl)methyl]phenyl]boronic acid

>  <Lig_Formula>  (161) 
C21H24BN3O4S

>  <Lig_SMILES>  (161) 
B(c1ccccc1CN2CCCN(CC2)S(=O)(=O)c3cccc4c3ccnc4)(O)O

>  <Lig_MW>  (161) 
425.309

>  <Lig_ChEMBL_ID>  (161) 
nan

>  <Lig_DrugBank_ID>  (161) 
nan

>  <Occurence>  (161) 
5.0

>  <Lig_SMILES_Uncharged>  (161) 
O=S(=O)(c1cccc2cnccc12)N1CCCN(Cc2ccccc2B(O)O)CC1

>  <Lig_Conformer>  (161) 
['NaN']

>  <Lig_Of_Interest>  (161) 
['Y']

>  <Lig_Completeness>  (161) 
[1.0]

>  <Lig_Occupancy>  (161) 
[1.0]

>  <Lig_RSCC>  (161) 
[0.937]

>  <Lig_RSR>  (161) 
[0.107]

>  <Lig_RMSZ_Bonds>  (161) 
[0.41]

>  <Lig_RMSZ_Angles>  (161) 
[0.91]

>  <Lig_Alt_Conf>  (161) 
0.0

>  <Title>  (161) 
Crystal Structure of the Protein-Kinase A catalytic subunit from Criteculus Griseus in complex with compounds RKp120 and RKp117

>  <Nonpolymer_Entity_Count>  (161) 
2.0

>  <Protein_Entity_Count>  (161) 
2.0

>  <Exp_Method>  (161) 
X-Ray Diffraction

>  <Cryst_Method>  (161) 
Vapor Diffusion, Sitting Drop; 5 Mm Mes-Bis-Tris, 75 Mm Lithium Chloride, 1 Mm Dtt, 0.1 Mm Sodium Edta, 0.25 Mm Mega 8, 0.7 Mm Peptidic Ligand, 5 Mm Rkp117, 15 % V/V Methanol/Water In Reservoir

>  <Deposit_Date>  (161) 
2017-06-02

>  <Resolution>  (161) 
1.583

>  <DOI>  (161) 
https://doi.org/10.1021/acsomega.8b02364

>  <Source_Organism>  (161) 
Cricetulus griseus

>  <R_Free>  (161) 
0.1824

>  <Keywords>  (161) 
Transferase

>  <REMARK_280>  (161) 
 Crystal Solvent Content, Vs (%): 50.96 Matthews Coefficient, Vm (Angstroms**3/Da): 2.51 Crystallization Conditions: 5 Mm Mes-Bis-Tris, 75 Mm Lithium Chloride, 1 Mm Dtt, 0.1 Mm Sodium Edta, 0.25 Mm Mega 8, 0.7 Mm Peptidic Ligand, 5 Mm Rkp117, 15 % V/V Methanol/Water In Reservoir, pH 6.9, Vapor Diffusion, Sitting Drop, Temperature 277.15K 

>  <REMARK_610>  (161) 
nan

>  <pH>  (161) 
6.9

>  <Cryst_Technique>  (161) 
co-crystallized

>  <Sequence>  (161) 
GHMGNAAAAKKGSEQESVKEFLAKAKEEFLKKWESPSQNTAQLDHFDRIKTLGTGSFGRVMLVKHKETGNHYAMKILDKQKVVKLKQIEHTLNEKRILQAVNFPFLVKLEFSFKDNSNLYMVMEYVPGGEMFSHLRRIGRFSEPHARFYAAQIVLTFEYLHSLDLIYRDLKPENLLIDQQGYIQVTDFGFAKRVKGRTWTLCGTPEYLAPEIILSKGYNKAVDWWALGVLIYEMAAGYPPFFADQPIQIYEKIVSGKVRFPSHFSSDLKDLLRNLLQVDLTKRFGNLKNGVNDIKNHKWFATTDWIAIYQRKVEAPFIPKFKGPGDTSNFDDYEEEEIRVSINEKCGKEFTEF

>  <Sequence_Length>  (161) 
353.0

>  <Mutation_Count>  (161) 
0.0

>  <Gene_Name>  (161) 
PKACA

>  <MW>  (161) 
41.194

>  <Name>  (161) 
cAMP-Dependent Protein Kinase Catalytic Subunit Alpha

>  <Mutations>  (161) 
nan

>  <EC_Number>  (161) 
2.7.11.11

>  <Peptidic_Inhibitor>  (161) 
True

>  <Lig_Missing_Atoms>  (161) 
['No']

>  <PDBbind_Resolution>  (161) 
nan

>  <PDBbind_Release_Year>  (161) 
nan

>  <PDBbind_Comment>  (161) 
nan

>  <PDBbind_Uniprot_Id>  (161) 
nan

>  <PDBbind_Protein_Name>  (161) 
nan

>  <PDBbind_-Logkd/Ki>  (161) 
nan

>  <PDBbind_Kd/Ki>  (161) 
nan

>  <PDBbind_Kd_Or_Ki_Or_Ic50>  (161) 
nan

>  <PDBbind_Relation>  (161) 
nan

>  <PDBbind_Value>  (161) 
nan

>  <PDBbind_Unit>  (161) 
nan

>  <PDBbind_Standard_Value>  (161) 
nan

>  <PDBbind_Standard_Unit>  (161) 
nan

>  <PDB_Chain>  (161) 
['A']

>  <Num_Ligs>  (161) 
[1.0]

>  <Orthosteric>  (161) 
[1.0]

>  <Allosteric>  (161) 
[0.0]

>  <Pockets_Assigned>  (161) 
['A']

>  <Multisite>  (161) 
[True]

>  <Same_Number>  (161) 
False

>  <Same_Binding_Site>  (161) 
True

>  <Same_Orientation>  (161) 
True

>  <Lig_Order_in_.pdb>  (161) 
Orthosteric

$$$$

     RDKit          2D

 20 22  0  0  0  0  0  0  0  0999 V2000
    0.7500   -3.8971    0.0000 C   0  0  0  0  0  0  0  0  0  0  0  0
    1.5000   -2.5981    0.0000 C   0  0  0  0  0  0  0  0  0  0  0  0
    0.7500   -1.2990    0.0000 C   0  0  0  0  0  0  0  0  0  0  0  0
    1.5000    0.0000    0.0000 C   0  0  0  0  0  0  0  0  0  0  0  0
    0.7500    1.2990    0.0000 N   0  0  0  0  0  0  0  0  0  0  0  0
   -0.7500    1.2990    0.0000 C   0  0  0  0  0  0  0  0  0  0  0  0
   -1.5000    0.0000    0.0000 C   0  0  0  0  0  0  0  0  0  0  0  0
   -0.7500   -1.2990    0.0000 C   0  0  0  0  0  0  0  0  0  0  0  0
   -1.5000   -2.5981    0.0000 C   0  0  0  0  0  0  0  0  0  0  0  0
   -0.7500   -3.8971    0.0000 C   0  0  0  0  0  0  0  0  0  0  0  0
   -3.0000   -2.5981    0.0000 S   0  0  0  0  0  0  0  0  0  0  0  0
   -3.0000   -4.0981    0.0000 O   0  0  0  0  0  0  0  0  0  0  0  0
   -3.0000   -1.0981    0.0000 O   0  0  0  0  0  0  0  0  0  0  0  0
   -4.5000   -2.5981    0.0000 N   0  0  0  0  0  0  0  0  0  0  0  0
   -5.1508   -3.9495    0.0000 C   0  0  0  0  0  0  0  0  0  0  0  0
   -6.6132   -4.2833    0.0000 C   0  0  0  0  0  0  0  0  0  0  0  0
   -7.7860   -3.3481    0.0000 C   0  0  0  0  0  0  0  0  0  0  0  0
   -7.7860   -1.8481    0.0000 N   0  0  0  0  0  0  0  0  0  0  0  0
   -6.6132   -0.9128    0.0000 C   0  0  0  0  0  0  0  0  0  0  0  0
   -5.1508   -1.2466    0.0000 C   0  0  0  0  0  0  0  0  0  0  0  0
  1  2  2  0
  2  3  1  0
  3  4  2  0
  4  5  1  0
  5  6  2  0
  6  7  1  0
  7  8  2  0
  8  9  1  0
  9 10  2  0
  9 11  1  0
 11 12  2  0
 11 13  2  0
 11 14  1  0
 14 15  1  0
 15 16  1  0
 16 17  1  0
 17 18  1  0
 18 19  1  0
 19 20  1  0
 10  1  1  0
  8  3  1  0
 20 14  1  0
M  END
>  <Structure>  (162) 
5OK3

>  <Dataset>  (162) 
PDB

>  <Chain>  (162) 
A

>  <Spatial_Label>  (162) 
DFGin

>  <Dihedral_Label>  (162) 
ABAminus

>  <C_Helix_Label>  (162) 
Chelix-in

>  <Lig_ID>  (162) 
M77

>  <Lig_Entity_ID>  (162) 
5OK3_3

>  <Lig_Name>  (162) 
5-(1,4-DIAZEPAN-1-SULFONYL)ISOQUINOLINE

>  <Lig_Formula>  (162) 
C14H17N3O2S

>  <Lig_SMILES>  (162) 
c1cc2cnccc2c(c1)S(=O)(=O)N3CCCNCC3

>  <Lig_MW>  (162) 
291.369

>  <Lig_ChEMBL_ID>  (162) 
['CHEMBL38380']

>  <Lig_DrugBank_ID>  (162) 
['DB08162']

>  <Occurence>  (162) 
10.0

>  <Lig_SMILES_Uncharged>  (162) 
O=S(=O)(c1cccc2cnccc12)N1CCCNCC1

>  <Lig_Conformer>  (162) 
['NaN']

>  <Lig_Of_Interest>  (162) 
['Y']

>  <Lig_Completeness>  (162) 
[1.0]

>  <Lig_Occupancy>  (162) 
[1.0]

>  <Lig_RSCC>  (162) 
[0.982]

>  <Lig_RSR>  (162) 
[0.074]

>  <Lig_RMSZ_Bonds>  (162) 
[0.23]

>  <Lig_RMSZ_Angles>  (162) 
[0.47]

>  <Lig_Alt_Conf>  (162) 
0.0

>  <Title>  (162) 
Crystal Structure of the Protein-Kinase A catalytic subunit from Criteculus Griseus in complex with compounds RKp241 and Fasudil

>  <Nonpolymer_Entity_Count>  (162) 
1.0

>  <Protein_Entity_Count>  (162) 
2.0

>  <Exp_Method>  (162) 
X-Ray Diffraction

>  <Cryst_Method>  (162) 
Vapor Diffusion, Sitting Drop; 5 Mm Mes-Bis-Tris, 75 Mm Lithium Chloride,1 Mm Dtt, 0.1 Mm Sodium Edta, 0,25 Mm Mega 8, 0.7 Mm Peptidic Ligand, 5 Mm Fasudil X Hcl, 20 % V/V Methanol/Water In Reservoir

>  <Deposit_Date>  (162) 
2017-07-25

>  <Resolution>  (162) 
1.588

>  <DOI>  (162) 
https://doi.org/10.1002/cmdc.201800779

>  <Source_Organism>  (162) 
Cricetulus griseus

>  <R_Free>  (162) 
0.1716

>  <Keywords>  (162) 
Transferase

>  <REMARK_280>  (162) 
 Crystal Solvent Content, Vs (%): 57.64 Matthews Coefficient, Vm (Angstroms**3/Da): 2.90 Crystallization Conditions: 5 Mm Mes-Bis-Tris, 75 Mm Lithium Chloride,1 Mm Dtt, 0.1 Mm Sodium Edta, 0,25 Mm Mega 8, 0.7 Mm Peptidic Ligand, 5 Mm Fasudil X Hcl, 20 % V/V Methanol/Water In Reservoir, pH 6.9, Vapor Diffusion, Sitting Drop, Temperature 277.15K 

>  <REMARK_610>  (162) 
nan

>  <pH>  (162) 
6.9

>  <Cryst_Technique>  (162) 
co-crystallized

>  <Sequence>  (162) 
GHMGNAAAAKKGSEQESVKEFLAKAKEEFLKKWESPSQNTAQLDHFDRIKTLGTGSFGRVMLVKHKETGNHYAMKILDKQKVVKLKQIEHTLNEKRILQAVNFPFLVKLEFSFKDNSNLYMVMEYVPGGEMFSHLRRIGRFSEPHARFYAAQIVLTFEYLHSLDLIYRDLKPENLLIDQQGYIQVTDFGFAKRVKGRTWTLCGTPEYLAPEIILSKGYNKAVDWWALGVLIYEMAAGYPPFFADQPIQIYEKIVSGKVRFPSHFSSDLKDLLRNLLQVDLTKRFGNLKNGVNDIKNHKWFATTDWIAIYQRKVEAPFIPKFKGPGDTSNFDDYEEEEIRVSINEKCGKEFTEF

>  <Sequence_Length>  (162) 
353.0

>  <Mutation_Count>  (162) 
0.0

>  <Gene_Name>  (162) 
PKACA

>  <MW>  (162) 
41.194

>  <Name>  (162) 
cAMP-Dependent Protein Kinase Catalytic Subunit Alpha

>  <Mutations>  (162) 
nan

>  <EC_Number>  (162) 
2.7.11.11

>  <Peptidic_Inhibitor>  (162) 
True

>  <Lig_Missing_Atoms>  (162) 
['No']

>  <PDBbind_Resolution>  (162) 
nan

>  <PDBbind_Release_Year>  (162) 
nan

>  <PDBbind_Comment>  (162) 
nan

>  <PDBbind_Uniprot_Id>  (162) 
nan

>  <PDBbind_Protein_Name>  (162) 
nan

>  <PDBbind_-Logkd/Ki>  (162) 
nan

>  <PDBbind_Kd/Ki>  (162) 
nan

>  <PDBbind_Kd_Or_Ki_Or_Ic50>  (162) 
nan

>  <PDBbind_Relation>  (162) 
nan

>  <PDBbind_Value>  (162) 
nan

>  <PDBbind_Unit>  (162) 
nan

>  <PDBbind_Standard_Value>  (162) 
nan

>  <PDBbind_Standard_Unit>  (162) 
nan

>  <PDB_Chain>  (162) 
['A']

>  <Num_Ligs>  (162) 
[1.0]

>  <Orthosteric>  (162) 
[1.0]

>  <Allosteric>  (162) 
[0.0]

>  <Pockets_Assigned>  (162) 
['A']

>  <Multisite>  (162) 
[False]

>  <Same_Number>  (162) 
True

>  <Same_Binding_Site>  (162) 
True

>  <Same_Orientation>  (162) 
True

>  <Lig_Order_in_.pdb>  (162) 
Orthosteric

$$$$

     RDKit          2D

 30 33  0  0  0  0  0  0  0  0999 V2000
   11.8403    0.1044    0.0000 B   0  0  0  0  0  0  0  0  0  0  0  0
   11.7282   -1.3914    0.0000 C   0  0  0  0  0  0  0  0  0  0  0  0
   12.9676   -2.2364    0.0000 C   0  0  0  0  0  0  0  0  0  0  0  0
   12.8555   -3.7322    0.0000 C   0  0  0  0  0  0  0  0  0  0  0  0
   11.5040   -4.3830    0.0000 C   0  0  0  0  0  0  0  0  0  0  0  0
   10.2647   -3.5380    0.0000 C   0  0  0  0  0  0  0  0  0  0  0  0
   10.3768   -2.0422    0.0000 C   0  0  0  0  0  0  0  0  0  0  0  0
    9.1374   -1.1973    0.0000 C   0  0  0  0  0  0  0  0  0  0  0  0
    7.7860   -1.8481    0.0000 N   0  0  0  0  0  0  0  0  0  0  0  0
    7.7860   -3.3481    0.0000 C   0  0  0  0  0  0  0  0  0  0  0  0
    6.6132   -4.2833    0.0000 C   0  0  0  0  0  0  0  0  0  0  0  0
    5.1508   -3.9495    0.0000 C   0  0  0  0  0  0  0  0  0  0  0  0
    4.5000   -2.5981    0.0000 N   0  0  0  0  0  0  0  0  0  0  0  0
    5.1508   -1.2466    0.0000 C   0  0  0  0  0  0  0  0  0  0  0  0
    6.6132   -0.9128    0.0000 C   0  0  0  0  0  0  0  0  0  0  0  0
    3.0000   -2.5981    0.0000 S   0  0  0  0  0  0  0  0  0  0  0  0
    3.0000   -4.0981    0.0000 O   0  0  0  0  0  0  0  0  0  0  0  0
    3.0000   -1.0981    0.0000 O   0  0  0  0  0  0  0  0  0  0  0  0
    1.5000   -2.5981    0.0000 C   0  0  0  0  0  0  0  0  0  0  0  0
    0.7500   -3.8971    0.0000 C   0  0  0  0  0  0  0  0  0  0  0  0
   -0.7500   -3.8971    0.0000 C   0  0  0  0  0  0  0  0  0  0  0  0
   -1.5000   -2.5981    0.0000 C   0  0  0  0  0  0  0  0  0  0  0  0
   -0.7500   -1.2990    0.0000 C   0  0  0  0  0  0  0  0  0  0  0  0
    0.7500   -1.2990    0.0000 C   0  0  0  0  0  0  0  0  0  0  0  0
    1.5000    0.0000    0.0000 C   0  0  0  0  0  0  0  0  0  0  0  0
    0.7500    1.2990    0.0000 C   0  0  0  0  0  0  0  0  0  0  0  0
   -0.7500    1.2990    0.0000 N   0  0  0  0  0  0  0  0  0  0  0  0
   -1.5000    0.0000    0.0000 C   0  0  0  0  0  0  0  0  0  0  0  0
   13.1918    0.7552    0.0000 O   0  0  0  0  0  0  0  0  0  0  0  0
   10.6010    0.9494    0.0000 O   0  0  0  0  0  0  0  0  0  0  0  0
  1  2  1  0
  2  3  2  0
  3  4  1  0
  4  5  2  0
  5  6  1  0
  6  7  2  0
  7  8  1  0
  8  9  1  0
  9 10  1  0
 10 11  1  0
 11 12  1  0
 12 13  1  0
 13 14  1  0
 14 15  1  0
 13 16  1  0
 16 17  2  0
 16 18  2  0
 16 19  1  0
 19 20  2  0
 20 21  1  0
 21 22  2  0
 22 23  1  0
 23 24  2  0
 24 25  1  0
 25 26  2  0
 26 27  1  0
 27 28  2  0
  1 29  1  0
  1 30  1  0
  7  2  1  0
 15  9  1  0
 24 19  1  0
 28 23  1  0
M  END
>  <Structure>  (163) 
5OL3

>  <Dataset>  (163) 
PDB

>  <Chain>  (163) 
A

>  <Spatial_Label>  (163) 
DFGin

>  <Dihedral_Label>  (163) 
ABAminus

>  <C_Helix_Label>  (163) 
Chelix-in

>  <Lig_ID>  (163) 
9LQ

>  <Lig_Entity_ID>  (163) 
5OL3_3

>  <Lig_Name>  (163) 
[2-[(4-isoquinolin-5-ylsulfonyl-1,4-diazepan-1-yl)methyl]phenyl]boronic acid

>  <Lig_Formula>  (163) 
C21H24BN3O4S

>  <Lig_SMILES>  (163) 
B(c1ccccc1CN2CCCN(CC2)S(=O)(=O)c3cccc4c3ccnc4)(O)O

>  <Lig_MW>  (163) 
425.309

>  <Lig_ChEMBL_ID>  (163) 
nan

>  <Lig_DrugBank_ID>  (163) 
nan

>  <Occurence>  (163) 
5.0

>  <Lig_SMILES_Uncharged>  (163) 
O=S(=O)(c1cccc2cnccc12)N1CCCN(Cc2ccccc2B(O)O)CC1

>  <Lig_Conformer>  (163) 
['NaN']

>  <Lig_Of_Interest>  (163) 
['Y']

>  <Lig_Completeness>  (163) 
[1.0]

>  <Lig_Occupancy>  (163) 
[1.0]

>  <Lig_RSCC>  (163) 
[0.96]

>  <Lig_RSR>  (163) 
[0.088]

>  <Lig_RMSZ_Bonds>  (163) 
[0.33]

>  <Lig_RMSZ_Angles>  (163) 
[0.8]

>  <Lig_Alt_Conf>  (163) 
0.0

>  <Title>  (163) 
Crystal Structure of the Protein-Kinase A catalytic subunit from Criteculus Griseus in complex with compounds RKp013 and RKp117

>  <Nonpolymer_Entity_Count>  (163) 
3.0

>  <Protein_Entity_Count>  (163) 
2.0

>  <Exp_Method>  (163) 
X-Ray Diffraction

>  <Cryst_Method>  (163) 
Vapor Diffusion, Sitting Drop; 100 Mm Mes-Bis-Tris, 75 Mm Lithium Chloride, 1 Mm Dtt, 0.1 Mm Sodium Edta, 0.25 Mm Mega 8, 0.7 Mm Peptidic Ligand, 5 Mm Rkp117, 17 % V/V Methanol/Water In Reservoir

>  <Deposit_Date>  (163) 
2017-07-26

>  <Resolution>  (163) 
1.58

>  <DOI>  (163) 
https://doi.org/10.1021/acsomega.8b02364

>  <Source_Organism>  (163) 
Cricetulus griseus

>  <R_Free>  (163) 
0.1986

>  <Keywords>  (163) 
Transferase

>  <REMARK_280>  (163) 
 Crystal Solvent Content, Vs (%): 51.84 Matthews Coefficient, Vm (Angstroms**3/Da): 2.55 Crystallization Conditions: 100 Mm Mes-Bis-Tris, 75 Mm Lithium Chloride, 1 Mm Dtt, 0.1 Mm Sodium Edta, 0.25 Mm Mega 8, 0.7 Mm Peptidic Ligand, 5 Mm Rkp117, 17 % V/V Methanol/Water In Reservoir, pH 6.9, Vapor Diffusion, Sitting Drop, Temperature 277.15K 

>  <REMARK_610>  (163) 
nan

>  <pH>  (163) 
6.9

>  <Cryst_Technique>  (163) 
co-crystallized

>  <Sequence>  (163) 
GHMGNAAAAKKGSEQESVKEFLAKAKEEFLKKWESPSQNTAQLDHFDRIKTLGTGSFGRVMLVKHKETGNHYAMKILDKQKVVKLKQIEHTLNEKRILQAVNFPFLVKLEFSFKDNSNLYMVMEYVPGGEMFSHLRRIGRFSEPHARFYAAQIVLTFEYLHSLDLIYRDLKPENLLIDQQGYIQVTDFGFAKRVKGRTWTLCGTPEYLAPEIILSKGYNKAVDWWALGVLIYEMAAGYPPFFADQPIQIYEKIVSGKVRFPSHFSSDLKDLLRNLLQVDLTKRFGNLKNGVNDIKNHKWFATTDWIAIYQRKVEAPFIPKFKGPGDTSNFDDYEEEEIRVSINEKCGKEFTEF

>  <Sequence_Length>  (163) 
353.0

>  <Mutation_Count>  (163) 
0.0

>  <Gene_Name>  (163) 
PKACA

>  <MW>  (163) 
41.194

>  <Name>  (163) 
cAMP-Dependent Protein Kinase Catalytic Subunit Alpha

>  <Mutations>  (163) 
nan

>  <EC_Number>  (163) 
2.7.11.11

>  <Peptidic_Inhibitor>  (163) 
True

>  <Lig_Missing_Atoms>  (163) 
['No']

>  <PDBbind_Resolution>  (163) 
nan

>  <PDBbind_Release_Year>  (163) 
nan

>  <PDBbind_Comment>  (163) 
nan

>  <PDBbind_Uniprot_Id>  (163) 
nan

>  <PDBbind_Protein_Name>  (163) 
nan

>  <PDBbind_-Logkd/Ki>  (163) 
nan

>  <PDBbind_Kd/Ki>  (163) 
nan

>  <PDBbind_Kd_Or_Ki_Or_Ic50>  (163) 
nan

>  <PDBbind_Relation>  (163) 
nan

>  <PDBbind_Value>  (163) 
nan

>  <PDBbind_Unit>  (163) 
nan

>  <PDBbind_Standard_Value>  (163) 
nan

>  <PDBbind_Standard_Unit>  (163) 
nan

>  <PDB_Chain>  (163) 
['A']

>  <Num_Ligs>  (163) 
[1.0]

>  <Orthosteric>  (163) 
[1.0]

>  <Allosteric>  (163) 
[0.0]

>  <Pockets_Assigned>  (163) 
['A']

>  <Multisite>  (163) 
[True]

>  <Same_Number>  (163) 
False

>  <Same_Binding_Site>  (163) 
True

>  <Same_Orientation>  (163) 
True

>  <Lig_Order_in_.pdb>  (163) 
Orthosteric

$$$$

     RDKit          2D

 30 33  0  0  0  0  0  0  0  0999 V2000
   11.8403    0.1044    0.0000 B   0  0  0  0  0  0  0  0  0  0  0  0
   11.7282   -1.3914    0.0000 C   0  0  0  0  0  0  0  0  0  0  0  0
   12.9676   -2.2364    0.0000 C   0  0  0  0  0  0  0  0  0  0  0  0
   12.8555   -3.7322    0.0000 C   0  0  0  0  0  0  0  0  0  0  0  0
   11.5040   -4.3830    0.0000 C   0  0  0  0  0  0  0  0  0  0  0  0
   10.2647   -3.5380    0.0000 C   0  0  0  0  0  0  0  0  0  0  0  0
   10.3768   -2.0422    0.0000 C   0  0  0  0  0  0  0  0  0  0  0  0
    9.1374   -1.1973    0.0000 C   0  0  0  0  0  0  0  0  0  0  0  0
    7.7860   -1.8481    0.0000 N   0  0  0  0  0  0  0  0  0  0  0  0
    7.7860   -3.3481    0.0000 C   0  0  0  0  0  0  0  0  0  0  0  0
    6.6132   -4.2833    0.0000 C   0  0  0  0  0  0  0  0  0  0  0  0
    5.1508   -3.9495    0.0000 C   0  0  0  0  0  0  0  0  0  0  0  0
    4.5000   -2.5981    0.0000 N   0  0  0  0  0  0  0  0  0  0  0  0
    5.1508   -1.2466    0.0000 C   0  0  0  0  0  0  0  0  0  0  0  0
    6.6132   -0.9128    0.0000 C   0  0  0  0  0  0  0  0  0  0  0  0
    3.0000   -2.5981    0.0000 S   0  0  0  0  0  0  0  0  0  0  0  0
    3.0000   -4.0981    0.0000 O   0  0  0  0  0  0  0  0  0  0  0  0
    3.0000   -1.0981    0.0000 O   0  0  0  0  0  0  0  0  0  0  0  0
    1.5000   -2.5981    0.0000 C   0  0  0  0  0  0  0  0  0  0  0  0
    0.7500   -3.8971    0.0000 C   0  0  0  0  0  0  0  0  0  0  0  0
   -0.7500   -3.8971    0.0000 C   0  0  0  0  0  0  0  0  0  0  0  0
   -1.5000   -2.5981    0.0000 C   0  0  0  0  0  0  0  0  0  0  0  0
   -0.7500   -1.2990    0.0000 C   0  0  0  0  0  0  0  0  0  0  0  0
    0.7500   -1.2990    0.0000 C   0  0  0  0  0  0  0  0  0  0  0  0
    1.5000    0.0000    0.0000 C   0  0  0  0  0  0  0  0  0  0  0  0
    0.7500    1.2990    0.0000 C   0  0  0  0  0  0  0  0  0  0  0  0
   -0.7500    1.2990    0.0000 N   0  0  0  0  0  0  0  0  0  0  0  0
   -1.5000    0.0000    0.0000 C   0  0  0  0  0  0  0  0  0  0  0  0
   13.1918    0.7552    0.0000 O   0  0  0  0  0  0  0  0  0  0  0  0
   10.6010    0.9494    0.0000 O   0  0  0  0  0  0  0  0  0  0  0  0
  1  2  1  0
  2  3  2  0
  3  4  1  0
  4  5  2  0
  5  6  1  0
  6  7  2  0
  7  8  1  0
  8  9  1  0
  9 10  1  0
 10 11  1  0
 11 12  1  0
 12 13  1  0
 13 14  1  0
 14 15  1  0
 13 16  1  0
 16 17  2  0
 16 18  2  0
 16 19  1  0
 19 20  2  0
 20 21  1  0
 21 22  2  0
 22 23  1  0
 23 24  2  0
 24 25  1  0
 25 26  2  0
 26 27  1  0
 27 28  2  0
  1 29  1  0
  1 30  1  0
  7  2  1  0
 15  9  1  0
 24 19  1  0
 28 23  1  0
M  END
>  <Structure>  (164) 
5OT3

>  <Dataset>  (164) 
PDB

>  <Chain>  (164) 
A

>  <Spatial_Label>  (164) 
DFGin

>  <Dihedral_Label>  (164) 
ABAminus

>  <C_Helix_Label>  (164) 
Chelix-in

>  <Lig_ID>  (164) 
9LQ

>  <Lig_Entity_ID>  (164) 
5OT3_3

>  <Lig_Name>  (164) 
[2-[(4-isoquinolin-5-ylsulfonyl-1,4-diazepan-1-yl)methyl]phenyl]boronic acid

>  <Lig_Formula>  (164) 
C21H24BN3O4S

>  <Lig_SMILES>  (164) 
B(c1ccccc1CN2CCCN(CC2)S(=O)(=O)c3cccc4c3ccnc4)(O)O

>  <Lig_MW>  (164) 
425.309

>  <Lig_ChEMBL_ID>  (164) 
nan

>  <Lig_DrugBank_ID>  (164) 
nan

>  <Occurence>  (164) 
5.0

>  <Lig_SMILES_Uncharged>  (164) 
O=S(=O)(c1cccc2cnccc12)N1CCCN(Cc2ccccc2B(O)O)CC1

>  <Lig_Conformer>  (164) 
['NaN']

>  <Lig_Of_Interest>  (164) 
['Y']

>  <Lig_Completeness>  (164) 
[1.0]

>  <Lig_Occupancy>  (164) 
[1.0]

>  <Lig_RSCC>  (164) 
[0.906]

>  <Lig_RSR>  (164) 
[0.157]

>  <Lig_RMSZ_Bonds>  (164) 
[0.51]

>  <Lig_RMSZ_Angles>  (164) 
[1.23]

>  <Lig_Alt_Conf>  (164) 
0.0

>  <Title>  (164) 
Crystal Structure of the Protein-Kinase A catalytic subunit from Criteculus Griseus in complex with compounds RKp191 and RKp117

>  <Nonpolymer_Entity_Count>  (164) 
4.0

>  <Protein_Entity_Count>  (164) 
2.0

>  <Exp_Method>  (164) 
X-Ray Diffraction

>  <Cryst_Method>  (164) 
Vapor Diffusion, Sitting Drop; 100 Mm Mes-Bis-Tris, 75 Mm Lithium Chloride, 1 Mm Dtt, 0.1 Mm Sodium Edta, 0.25 Mm Mega 8, 0.7 Mm Peptidic Ligand, 5 Mm Rkp117, 20 % V/V Methanol/Water In Reservoir

>  <Deposit_Date>  (164) 
2017-08-19

>  <Resolution>  (164) 
2.04

>  <DOI>  (164) 
https://doi.org/10.1021/acsomega.8b02364

>  <Source_Organism>  (164) 
Cricetulus griseus

>  <R_Free>  (164) 
0.2275

>  <Keywords>  (164) 
Transferase

>  <REMARK_280>  (164) 
 Crystal Solvent Content, Vs (%): 49.07 Matthews Coefficient, Vm (Angstroms**3/Da): 2.41 Crystallization Conditions: 100 Mm Mes-Bis-Tris, 75 Mm Lithium Chloride, 1 Mm Dtt, 0.1 Mm Sodium Edta, 0.25 Mm Mega 8, 0.7 Mm Peptidic Ligand, 5 Mm Rkp117, 20 % V/V Methanol/Water In Reservoir, pH 6.9, Vapor Diffusion, Sitting Drop, Temperature 277.15K 

>  <REMARK_610>  (164) 
  RIP D 101 

>  <pH>  (164) 
6.9

>  <Cryst_Technique>  (164) 
co-crystallized

>  <Sequence>  (164) 
GHMGNAAAAKKGSEQESVKEFLAKAKEEFLKKWESPSQNTAQLDHFDRIKTLGTGSFGRVMLVKHKETGNHYAMKILDKQKVVKLKQIEHTLNEKRILQAVNFPFLVKLEFSFKDNSNLYMVMEYVPGGEMFSHLRRIGRFSEPHARFYAAQIVLTFEYLHSLDLIYRDLKPENLLIDQQGYIQVTDFGFAKRVKGRTWTLCGTPEYLAPEIILSKGYNKAVDWWALGVLIYEMAAGYPPFFADQPIQIYEKIVSGKVRFPSHFSSDLKDLLRNLLQVDLTKRFGNLKNGVNDIKNHKWFATTDWIAIYQRKVEAPFIPKFKGPGDTSNFDDYEEEEIRVSINEKCGKEFTEF

>  <Sequence_Length>  (164) 
353.0

>  <Mutation_Count>  (164) 
0.0

>  <Gene_Name>  (164) 
PKACA

>  <MW>  (164) 
41.194

>  <Name>  (164) 
cAMP-Dependent Protein Kinase Catalytic Subunit Alpha

>  <Mutations>  (164) 
nan

>  <EC_Number>  (164) 
2.7.11.11

>  <Peptidic_Inhibitor>  (164) 
True

>  <Lig_Missing_Atoms>  (164) 
['No']

>  <PDBbind_Resolution>  (164) 
nan

>  <PDBbind_Release_Year>  (164) 
nan

>  <PDBbind_Comment>  (164) 
nan

>  <PDBbind_Uniprot_Id>  (164) 
nan

>  <PDBbind_Protein_Name>  (164) 
nan

>  <PDBbind_-Logkd/Ki>  (164) 
nan

>  <PDBbind_Kd/Ki>  (164) 
nan

>  <PDBbind_Kd_Or_Ki_Or_Ic50>  (164) 
nan

>  <PDBbind_Relation>  (164) 
nan

>  <PDBbind_Value>  (164) 
nan

>  <PDBbind_Unit>  (164) 
nan

>  <PDBbind_Standard_Value>  (164) 
nan

>  <PDBbind_Standard_Unit>  (164) 
nan

>  <PDB_Chain>  (164) 
['A']

>  <Num_Ligs>  (164) 
[1.0]

>  <Orthosteric>  (164) 
[1.0]

>  <Allosteric>  (164) 
[0.0]

>  <Pockets_Assigned>  (164) 
['A']

>  <Multisite>  (164) 
[True]

>  <Same_Number>  (164) 
False

>  <Same_Binding_Site>  (164) 
True

>  <Same_Orientation>  (164) 
True

>  <Lig_Order_in_.pdb>  (164) 
Orthosteric

$$$$

     RDKit          2D

 27 29  0  0  0  0  0  0  0  0999 V2000
    7.5000    2.5981    0.0000 B   0  0  0  0  0  0  0  0  0  0  0  0
    9.0000    2.5981    0.0000 C   0  0  0  0  0  0  0  0  0  0  0  0
    9.7500    3.8971    0.0000 C   0  0  0  0  0  0  0  0  0  0  0  0
   11.2500    3.8971    0.0000 C   0  0  0  0  0  0  0  0  0  0  0  0
   12.0000    2.5981    0.0000 C   0  0  0  0  0  0  0  0  0  0  0  0
   11.2500    1.2990    0.0000 C   0  0  0  0  0  0  0  0  0  0  0  0
    9.7500    1.2990    0.0000 C   0  0  0  0  0  0  0  0  0  0  0  0
    9.0000    0.0000    0.0000 C   0  0  0  0  0  0  0  0  0  0  0  0
    7.5000    0.0000    0.0000 N   0  0  0  0  0  0  0  0  0  0  0  0
    6.7500   -1.2990    0.0000 C   0  0  0  0  0  0  0  0  0  0  0  0
    5.2500   -1.2990    0.0000 C   0  0  0  0  0  0  0  0  0  0  0  0
    4.5000   -2.5981    0.0000 N   0  0  0  0  0  0  0  0  0  0  0  0
    3.0000   -2.5981    0.0000 S   0  0  0  0  0  0  0  0  0  0  0  0
    3.0000   -4.0981    0.0000 O   0  0  0  0  0  0  0  0  0  0  0  0
    3.0000   -1.0981    0.0000 O   0  0  0  0  0  0  0  0  0  0  0  0
    1.5000   -2.5981    0.0000 C   0  0  0  0  0  0  0  0  0  0  0  0
    0.7500   -3.8971    0.0000 C   0  0  0  0  0  0  0  0  0  0  0  0
   -0.7500   -3.8971    0.0000 C   0  0  0  0  0  0  0  0  0  0  0  0
   -1.5000   -2.5981    0.0000 C   0  0  0  0  0  0  0  0  0  0  0  0
   -0.7500   -1.2990    0.0000 C   0  0  0  0  0  0  0  0  0  0  0  0
    0.7500   -1.2990    0.0000 C   0  0  0  0  0  0  0  0  0  0  0  0
    1.5000    0.0000    0.0000 C   0  0  0  0  0  0  0  0  0  0  0  0
    0.7500    1.2990    0.0000 C   0  0  0  0  0  0  0  0  0  0  0  0
   -0.7500    1.2990    0.0000 N   0  0  0  0  0  0  0  0  0  0  0  0
   -1.5000    0.0000    0.0000 C   0  0  0  0  0  0  0  0  0  0  0  0
    6.7500    3.8971    0.0000 O   0  0  0  0  0  0  0  0  0  0  0  0
    6.7500    1.2990    0.0000 O   0  0  0  0  0  0  0  0  0  0  0  0
  1  2  1  0
  2  3  2  0
  3  4  1  0
  4  5  2  0
  5  6  1  0
  6  7  2  0
  7  8  1  0
  8  9  1  0
  9 10  1  0
 10 11  1  0
 11 12  1  0
 12 13  1  0
 13 14  2  0
 13 15  2  0
 13 16  1  0
 16 17  2  0
 17 18  1  0
 18 19  2  0
 19 20  1  0
 20 21  2  0
 21 22  1  0
 22 23  2  0
 23 24  1  0
 24 25  2  0
  1 26  1  0
  1 27  1  0
  7  2  1  0
 21 16  1  0
 25 20  1  0
M  END
>  <Structure>  (165) 
5OTG

>  <Dataset>  (165) 
PDB

>  <Chain>  (165) 
A

>  <Spatial_Label>  (165) 
DFGin

>  <Dihedral_Label>  (165) 
ABAminus

>  <C_Helix_Label>  (165) 
Chelix-in

>  <Lig_ID>  (165) 
AO8

>  <Lig_Entity_ID>  (165) 
5OTG_3

>  <Lig_Name>  (165) 
[2-[[2-(isoquinolin-5-ylsulfonylamino)ethylamino]methyl]phenyl]boronic acid

>  <Lig_Formula>  (165) 
C18H20BN3O4S

>  <Lig_SMILES>  (165) 
B(c1ccccc1CNCCNS(=O)(=O)c2cccc3c2ccnc3)(O)O

>  <Lig_MW>  (165) 
385.245

>  <Lig_ChEMBL_ID>  (165) 
nan

>  <Lig_DrugBank_ID>  (165) 
nan

>  <Occurence>  (165) 
3.0

>  <Lig_SMILES_Uncharged>  (165) 
O=S(=O)(NCCNCc1ccccc1B(O)O)c1cccc2cnccc12

>  <Lig_Conformer>  (165) 
['NaN']

>  <Lig_Of_Interest>  (165) 
['Y']

>  <Lig_Completeness>  (165) 
[0.8889]

>  <Lig_Occupancy>  (165) 
[0.8889]

>  <Lig_RSCC>  (165) 
[0.92]

>  <Lig_RSR>  (165) 
[0.129]

>  <Lig_RMSZ_Bonds>  (165) 
[0.36]

>  <Lig_RMSZ_Angles>  (165) 
[0.5]

>  <Lig_Alt_Conf>  (165) 
0.0

>  <Title>  (165) 
Crystal Structure of the Protein-Kinase A catalytic subunit from Criteculus Griseus in complex with compounds RKp013 and RKp190

>  <Nonpolymer_Entity_Count>  (165) 
1.0

>  <Protein_Entity_Count>  (165) 
2.0

>  <Exp_Method>  (165) 
X-Ray Diffraction

>  <Cryst_Method>  (165) 
Vapor Diffusion, Sitting Drop; 100 Mm Mes-Bis-Tris, 75 Mm Lithium Chloride, 1 Mm Dtt, 0.1 Mm Sodium Edta, 0.25 Mm Mega 8, 0.7 Mm Peptidic Ligand, 5 Mm Rkp190, 18 % V/V Methanol/Water In Reservoir

>  <Deposit_Date>  (165) 
2017-08-21

>  <Resolution>  (165) 
1.73

>  <DOI>  (165) 
nan

>  <Source_Organism>  (165) 
Cricetulus griseus

>  <R_Free>  (165) 
0.2063

>  <Keywords>  (165) 
Transferase

>  <REMARK_280>  (165) 
 Crystal Solvent Content, Vs (%): 58.93 Matthews Coefficient, Vm (Angstroms**3/Da): 2.99 Crystallization Conditions: 100 Mm Mes-Bis-Tris, 75 Mm Lithium Chloride, 1 Mm Dtt, 0.1 Mm Sodium Edta, 0.25 Mm Mega 8, 0.7 Mm Peptidic Ligand, 5 Mm Rkp190, 18 % V/V Methanol/Water In Reservoir, pH 6.9, Vapor Diffusion, Sitting Drop, Temperature 277.15K 

>  <REMARK_610>  (165) 
  AO8 A 401 

>  <pH>  (165) 
6.9

>  <Cryst_Technique>  (165) 
nan

>  <Sequence>  (165) 
GHMGNAAAAKKGSEQESVKEFLAKAKEEFLKKWESPSQNTAQLDHFDRIKTLGTGSFGRVMLVKHKETGNHYAMKILDKQKVVKLKQIEHTLNEKRILQAVNFPFLVKLEFSFKDNSNLYMVMEYVPGGEMFSHLRRIGRFSEPHARFYAAQIVLTFEYLHSLDLIYRDLKPENLLIDQQGYIQVTDFGFAKRVKGRTWTLCGTPEYLAPEIILSKGYNKAVDWWALGVLIYEMAAGYPPFFADQPIQIYEKIVSGKVRFPSHFSSDLKDLLRNLLQVDLTKRFGNLKNGVNDIKNHKWFATTDWIAIYQRKVEAPFIPKFKGPGDTSNFDDYEEEEIRVSINEKCGKEFTEF

>  <Sequence_Length>  (165) 
353.0

>  <Mutation_Count>  (165) 
0.0

>  <Gene_Name>  (165) 
PKACA

>  <MW>  (165) 
41.194

>  <Name>  (165) 
cAMP-Dependent Protein Kinase Catalytic Subunit Alpha

>  <Mutations>  (165) 
nan

>  <EC_Number>  (165) 
2.7.11.11

>  <Peptidic_Inhibitor>  (165) 
True

>  <Lig_Missing_Atoms>  (165) 
['No']

>  <PDBbind_Resolution>  (165) 
nan

>  <PDBbind_Release_Year>  (165) 
nan

>  <PDBbind_Comment>  (165) 
nan

>  <PDBbind_Uniprot_Id>  (165) 
nan

>  <PDBbind_Protein_Name>  (165) 
nan

>  <PDBbind_-Logkd/Ki>  (165) 
nan

>  <PDBbind_Kd/Ki>  (165) 
nan

>  <PDBbind_Kd_Or_Ki_Or_Ic50>  (165) 
nan

>  <PDBbind_Relation>  (165) 
nan

>  <PDBbind_Value>  (165) 
nan

>  <PDBbind_Unit>  (165) 
nan

>  <PDBbind_Standard_Value>  (165) 
nan

>  <PDBbind_Standard_Unit>  (165) 
nan

>  <PDB_Chain>  (165) 
['A']

>  <Num_Ligs>  (165) 
[1.0]

>  <Orthosteric>  (165) 
[1.0]

>  <Allosteric>  (165) 
[0.0]

>  <Pockets_Assigned>  (165) 
['A']

>  <Multisite>  (165) 
[False]

>  <Same_Number>  (165) 
True

>  <Same_Binding_Site>  (165) 
True

>  <Same_Orientation>  (165) 
True

>  <Lig_Order_in_.pdb>  (165) 
Orthosteric

$$$$

     RDKit          2D

 27 29  0  0  0  0  0  0  0  0999 V2000
    7.5000    2.5981    0.0000 B   0  0  0  0  0  0  0  0  0  0  0  0
    9.0000    2.5981    0.0000 C   0  0  0  0  0  0  0  0  0  0  0  0
    9.7500    3.8971    0.0000 C   0  0  0  0  0  0  0  0  0  0  0  0
   11.2500    3.8971    0.0000 C   0  0  0  0  0  0  0  0  0  0  0  0
   12.0000    2.5981    0.0000 C   0  0  0  0  0  0  0  0  0  0  0  0
   11.2500    1.2990    0.0000 C   0  0  0  0  0  0  0  0  0  0  0  0
    9.7500    1.2990    0.0000 C   0  0  0  0  0  0  0  0  0  0  0  0
    9.0000    0.0000    0.0000 C   0  0  0  0  0  0  0  0  0  0  0  0
    7.5000    0.0000    0.0000 N   0  0  0  0  0  0  0  0  0  0  0  0
    6.7500   -1.2990    0.0000 C   0  0  0  0  0  0  0  0  0  0  0  0
    5.2500   -1.2990    0.0000 C   0  0  0  0  0  0  0  0  0  0  0  0
    4.5000   -2.5981    0.0000 N   0  0  0  0  0  0  0  0  0  0  0  0
    3.0000   -2.5981    0.0000 S   0  0  0  0  0  0  0  0  0  0  0  0
    3.0000   -4.0981    0.0000 O   0  0  0  0  0  0  0  0  0  0  0  0
    3.0000   -1.0981    0.0000 O   0  0  0  0  0  0  0  0  0  0  0  0
    1.5000   -2.5981    0.0000 C   0  0  0  0  0  0  0  0  0  0  0  0
    0.7500   -3.8971    0.0000 C   0  0  0  0  0  0  0  0  0  0  0  0
   -0.7500   -3.8971    0.0000 C   0  0  0  0  0  0  0  0  0  0  0  0
   -1.5000   -2.5981    0.0000 C   0  0  0  0  0  0  0  0  0  0  0  0
   -0.7500   -1.2990    0.0000 C   0  0  0  0  0  0  0  0  0  0  0  0
    0.7500   -1.2990    0.0000 C   0  0  0  0  0  0  0  0  0  0  0  0
    1.5000    0.0000    0.0000 C   0  0  0  0  0  0  0  0  0  0  0  0
    0.7500    1.2990    0.0000 C   0  0  0  0  0  0  0  0  0  0  0  0
   -0.7500    1.2990    0.0000 N   0  0  0  0  0  0  0  0  0  0  0  0
   -1.5000    0.0000    0.0000 C   0  0  0  0  0  0  0  0  0  0  0  0
    6.7500    3.8971    0.0000 O   0  0  0  0  0  0  0  0  0  0  0  0
    6.7500    1.2990    0.0000 O   0  0  0  0  0  0  0  0  0  0  0  0
  1  2  1  0
  2  3  2  0
  3  4  1  0
  4  5  2  0
  5  6  1  0
  6  7  2  0
  7  8  1  0
  8  9  1  0
  9 10  1  0
 10 11  1  0
 11 12  1  0
 12 13  1  0
 13 14  2  0
 13 15  2  0
 13 16  1  0
 16 17  2  0
 17 18  1  0
 18 19  2  0
 19 20  1  0
 20 21  2  0
 21 22  1  0
 22 23  2  0
 23 24  1  0
 24 25  2  0
  1 26  1  0
  1 27  1  0
  7  2  1  0
 21 16  1  0
 25 20  1  0
M  END
>  <Structure>  (166) 
5OUC

>  <Dataset>  (166) 
PDB

>  <Chain>  (166) 
A

>  <Spatial_Label>  (166) 
DFGin

>  <Dihedral_Label>  (166) 
ABAminus

>  <C_Helix_Label>  (166) 
Chelix-in

>  <Lig_ID>  (166) 
AO8

>  <Lig_Entity_ID>  (166) 
5OUC_3

>  <Lig_Name>  (166) 
[2-[[2-(isoquinolin-5-ylsulfonylamino)ethylamino]methyl]phenyl]boronic acid

>  <Lig_Formula>  (166) 
C18H20BN3O4S

>  <Lig_SMILES>  (166) 
B(c1ccccc1CNCCNS(=O)(=O)c2cccc3c2ccnc3)(O)O

>  <Lig_MW>  (166) 
385.245

>  <Lig_ChEMBL_ID>  (166) 
nan

>  <Lig_DrugBank_ID>  (166) 
nan

>  <Occurence>  (166) 
3.0

>  <Lig_SMILES_Uncharged>  (166) 
O=S(=O)(NCCNCc1ccccc1B(O)O)c1cccc2cnccc12

>  <Lig_Conformer>  (166) 
['NaN']

>  <Lig_Of_Interest>  (166) 
['Y']

>  <Lig_Completeness>  (166) 
[0.8889]

>  <Lig_Occupancy>  (166) 
[0.8889]

>  <Lig_RSCC>  (166) 
[0.954]

>  <Lig_RSR>  (166) 
[0.105]

>  <Lig_RMSZ_Bonds>  (166) 
[0.39]

>  <Lig_RMSZ_Angles>  (166) 
[0.52]

>  <Lig_Alt_Conf>  (166) 
0.0

>  <Title>  (166) 
Crystal Structure of the Protein-Kinase A catalytic subunit from Criteculus Griseus in complex with compounds RKp191 and RKp190

>  <Nonpolymer_Entity_Count>  (166) 
3.0

>  <Protein_Entity_Count>  (166) 
2.0

>  <Exp_Method>  (166) 
X-Ray Diffraction

>  <Cryst_Method>  (166) 
Vapor Diffusion, Sitting Drop; 100 Mm Mes-Bis-Tris, 75 Mm Lithium Chloride, 1 Mm Dtt, 0.1 Mm Sodium Edta, 0.25 Mm Mega 8, 0.7 Mm Peptidic Ligand, 5 Mm Rkp190, 20 % V/V Methanol/Water In Reservoir

>  <Deposit_Date>  (166) 
2017-08-23

>  <Resolution>  (166) 
1.46

>  <DOI>  (166) 
nan

>  <Source_Organism>  (166) 
Cricetulus griseus

>  <R_Free>  (166) 
0.1749

>  <Keywords>  (166) 
Transferase

>  <REMARK_280>  (166) 
 Crystal Solvent Content, Vs (%): 54.40 Matthews Coefficient, Vm (Angstroms**3/Da): 2.90 Crystallization Conditions: 100 Mm Mes-Bis-Tris, 75 Mm Lithium Chloride, 1 Mm Dtt, 0.1 Mm Sodium Edta, 0.25 Mm Mega 8, 0.7 Mm Peptidic Ligand, 5 Mm Rkp190, 20 % V/V Methanol/Water In Reservoir, pH 6.9, Vapor Diffusion, Sitting Drop, Temperature 277.15K 

>  <REMARK_610>  (166) 
  AO8 A 401 RIP E 101 

>  <pH>  (166) 
6.9

>  <Cryst_Technique>  (166) 
nan

>  <Sequence>  (166) 
GHMGNAAAAKKGSEQESVKEFLAKAKEEFLKKWESPSQNTAQLDHFDRIKTLGTGSFGRVMLVKHKETGNHYAMKILDKQKVVKLKQIEHTLNEKRILQAVNFPFLVKLEFSFKDNSNLYMVMEYVPGGEMFSHLRRIGRFSEPHARFYAAQIVLTFEYLHSLDLIYRDLKPENLLIDQQGYIQVTDFGFAKRVKGRTWTLCGTPEYLAPEIILSKGYNKAVDWWALGVLIYEMAAGYPPFFADQPIQIYEKIVSGKVRFPSHFSSDLKDLLRNLLQVDLTKRFGNLKNGVNDIKNHKWFATTDWIAIYQRKVEAPFIPKFKGPGDTSNFDDYEEEEIRVSINEKCGKEFTEF

>  <Sequence_Length>  (166) 
353.0

>  <Mutation_Count>  (166) 
0.0

>  <Gene_Name>  (166) 
PKACA

>  <MW>  (166) 
41.194

>  <Name>  (166) 
cAMP-Dependent Protein Kinase Catalytic Subunit Alpha

>  <Mutations>  (166) 
nan

>  <EC_Number>  (166) 
2.7.11.11

>  <Peptidic_Inhibitor>  (166) 
True

>  <Lig_Missing_Atoms>  (166) 
['No']

>  <PDBbind_Resolution>  (166) 
nan

>  <PDBbind_Release_Year>  (166) 
nan

>  <PDBbind_Comment>  (166) 
nan

>  <PDBbind_Uniprot_Id>  (166) 
nan

>  <PDBbind_Protein_Name>  (166) 
nan

>  <PDBbind_-Logkd/Ki>  (166) 
nan

>  <PDBbind_Kd/Ki>  (166) 
nan

>  <PDBbind_Kd_Or_Ki_Or_Ic50>  (166) 
nan

>  <PDBbind_Relation>  (166) 
nan

>  <PDBbind_Value>  (166) 
nan

>  <PDBbind_Unit>  (166) 
nan

>  <PDBbind_Standard_Value>  (166) 
nan

>  <PDBbind_Standard_Unit>  (166) 
nan

>  <PDB_Chain>  (166) 
['A']

>  <Num_Ligs>  (166) 
[1.0]

>  <Orthosteric>  (166) 
[1.0]

>  <Allosteric>  (166) 
[0.0]

>  <Pockets_Assigned>  (166) 
['A']

>  <Multisite>  (166) 
[False]

>  <Same_Number>  (166) 
True

>  <Same_Binding_Site>  (166) 
True

>  <Same_Orientation>  (166) 
True

>  <Lig_Order_in_.pdb>  (166) 
Orthosteric

$$$$

     RDKit          2D

 34 38  0  0  0  0  0  0  0  0999 V2000
    3.0449  -11.3105    0.0000 C   0  0  0  0  0  0  0  0  0  0  0  0
    3.6550   -9.9402    0.0000 C   0  0  0  0  0  0  0  0  0  0  0  0
    5.1468   -9.7834    0.0000 C   0  0  0  0  0  0  0  0  0  0  0  0
    6.0285  -10.9969    0.0000 C   0  0  0  0  0  0  0  0  0  0  0  0
    5.4184  -12.3673    0.0000 C   0  0  0  0  0  0  0  0  0  0  0  0
    3.9266  -12.5241    0.0000 C   0  0  0  0  0  0  0  0  0  0  0  0
    6.3000  -13.5808    0.0000 O   0  0  0  0  0  0  0  0  0  0  0  0
    5.6899  -14.9511    0.0000 C   0  0  0  0  0  0  0  0  0  0  0  0
    6.5716  -16.1646    0.0000 C   0  0  0  0  0  0  0  0  0  0  0  0
    5.9615  -17.5350    0.0000 C   0  0  0  0  0  0  0  0  0  0  0  0
    6.8432  -18.7485    0.0000 C   0  0  0  0  0  0  0  0  0  0  0  0
    6.2331  -20.1188    0.0000 C   0  0  0  0  0  0  0  0  0  0  0  0
    7.1148  -21.3323    0.0000 C   0  0  0  0  0  0  0  0  0  0  0  0
    8.6065  -21.1755    0.0000 N   0  0  0  0  0  0  0  0  0  0  0  0
    9.2166  -19.8052    0.0000 C   0  0  0  0  0  0  0  0  0  0  0  0
    8.3350  -18.5917    0.0000 C   0  0  0  0  0  0  0  0  0  0  0  0
    5.7569   -8.4131    0.0000 C   0  0  0  0  0  0  0  0  0  0  0  0
    4.8752   -7.1996    0.0000 C   0  0  0  0  0  0  0  0  0  0  0  0
    3.3834   -7.3564    0.0000 O   0  0  0  0  0  0  0  0  0  0  0  0
    5.4853   -5.8293    0.0000 N   0  0  0  0  0  0  0  0  0  0  0  0
    4.6036   -4.6157    0.0000 C   0  0  0  0  0  0  0  0  0  0  0  0
    3.1036   -4.6157    0.0000 N   0  0  0  0  0  0  0  0  0  0  0  0
    2.6401   -3.1891    0.0000 C   0  0  0  0  0  0  0  0  0  0  0  0
    3.8536   -2.3075    0.0000 C   0  0  0  0  0  0  0  0  0  0  0  0
    5.0672   -3.1891    0.0000 S   0  0  0  0  0  0  0  0  0  0  0  0
    1.2135   -2.7256    0.0000 C   0  0  0  0  0  0  0  0  0  0  0  0
   -0.0000   -3.6073    0.0000 C   0  0  0  0  0  0  0  0  0  0  0  0
   -1.2135   -2.7256    0.0000 N   0  0  0  0  0  0  0  0  0  0  0  0
   -0.7500   -1.2990    0.0000 C   0  0  0  0  0  0  0  0  0  0  0  0
    0.7500   -1.2990    0.0000 C   0  0  0  0  0  0  0  0  0  0  0  0
    1.5000    0.0000    0.0000 C   0  0  0  0  0  0  0  0  0  0  0  0
    0.7500    1.2990    0.0000 C   0  0  0  0  0  0  0  0  0  0  0  0
   -0.7500    1.2990    0.0000 C   0  0  0  0  0  0  0  0  0  0  0  0
   -1.5000    0.0000    0.0000 N   0  0  0  0  0  0  0  0  0  0  0  0
  1  2  2  0
  2  3  1  0
  3  4  2  0
  4  5  1  0
  5  6  2  0
  5  7  1  0
  7  8  1  0
  8  9  1  0
  9 10  1  0
 10 11  1  0
 11 12  1  0
 12 13  1  0
 13 14  1  0
 14 15  1  0
 15 16  1  0
  3 17  1  0
 17 18  1  0
 18 19  2  0
 18 20  1  0
 20 21  1  0
 21 22  2  0
 22 23  1  0
 23 24  2  0
 24 25  1  0
 23 26  1  0
 26 27  2  0
 27 28  1  0
 28 29  1  0
 29 30  2  0
 30 31  1  0
 31 32  2  0
 32 33  1  0
 33 34  2  0
  6  1  1  0
 16 11  1  0
 25 21  1  0
 30 26  1  0
 34 29  1  0
M  END
>  <Structure>  (167) 
5UZK

>  <Dataset>  (167) 
PDB

>  <Chain>  (167) 
A

>  <Spatial_Label>  (167) 
DFGin

>  <Dihedral_Label>  (167) 
BLAminus

>  <C_Helix_Label>  (167) 
Chelix-in

>  <Lig_ID>  (167) 
504

>  <Lig_Entity_ID>  (167) 
5UZK_3

>  <Lig_Name>  (167) 
2-{3-[3-(piperidin-4-yl)propoxy]phenyl}-N-[4-(1H-pyrrolo[2,3-b]pyridin-3-yl)-1,3-thiazol-2-yl]acetamide

>  <Lig_Formula>  (167) 
C26H29N5O2S

>  <Lig_SMILES>  (167) 
c1cc(cc(c1)OCCCC2CCNCC2)CC(=O)Nc3nc(cs3)c4c[nH]c5c4cccn5

>  <Lig_MW>  (167) 
475.606

>  <Lig_ChEMBL_ID>  (167) 
['CHEMBL4245242']

>  <Lig_DrugBank_ID>  (167) 
nan

>  <Occurence>  (167) 
1.0

>  <Lig_SMILES_Uncharged>  (167) 
O=C(Cc1cccc(OCCCC2CCNCC2)c1)Nc1nc(-c2c[nH]c3ncccc23)cs1

>  <Lig_Conformer>  (167) 
['NaN']

>  <Lig_Of_Interest>  (167) 
['Y']

>  <Lig_Completeness>  (167) 
[1.0]

>  <Lig_Occupancy>  (167) 
[1.0]

>  <Lig_RSCC>  (167) 
[0.933]

>  <Lig_RSR>  (167) 
[0.153]

>  <Lig_RMSZ_Bonds>  (167) 
[1.02]

>  <Lig_RMSZ_Angles>  (167) 
[1.5]

>  <Lig_Alt_Conf>  (167) 
0.0

>  <Title>  (167) 
Crystal Structure of PKA bound to an pyrrolo pyridine inhibitor

>  <Nonpolymer_Entity_Count>  (167) 
1.0

>  <Protein_Entity_Count>  (167) 
2.0

>  <Exp_Method>  (167) 
X-Ray Diffraction

>  <Cryst_Method>  (167) 
Vapor Diffusion; 2% Mpd, Vapor Diffusion, Hanging Drop

>  <Deposit_Date>  (167) 
2017-02-26

>  <Resolution>  (167) 
2.3

>  <DOI>  (167) 
https://doi.org/10.1016/j.bmcl.2018.06.040

>  <Source_Organism>  (167) 
Homo sapiens

>  <R_Free>  (167) 
0.253

>  <Keywords>  (167) 
Transferase/Transferase Inhibitor

>  <REMARK_280>  (167) 
 Crystal Solvent Content, Vs (%): 54.33 Matthews Coefficient, Vm (Angstroms**3/Da): 2.69 Crystallization Conditions: 2% Mpd, Vapor Diffusion, Hanging Drop, pH 7.0, Temperature 277K 

>  <REMARK_610>  (167) 
nan

>  <pH>  (167) 
7.0

>  <Cryst_Technique>  (167) 
nan

>  <Sequence>  (167) 
MGNAAAAKKGSEQESVKEFLAKAKEDFLKKWESPAQNTAHLDQFERIKTLGTGSFGRVMLVKHKETGNHYAMKILDKQKVVKLKQIEHTLNEKRILQAVNFPFLVKLEFSFKDNSNLYMVMEYVPGGEMFSHLRRIGRFSEPHARFYAAQIVLTFEYLHSLDLIYRDLKPENLLIDQQGYIQVTDFGFAKRVKGRTWTLCGTPEYLAPEIILSKGYNKAVDWWALGVLIYEMAAGYPPFFADQPIQIYEKIVSGKVRFPSHFSSDLKDLLRNLLQVDLTKRFGNLKNGVNDIKNHKWFATTDWIAIYQRKVEAPFIPKFKGPGDTSNFDDYEEEEIRVSINEKCGKEFSEF

>  <Sequence_Length>  (167) 
351.0

>  <Mutation_Count>  (167) 
0.0

>  <Gene_Name>  (167) 
PKACA

>  <MW>  (167) 
40.809

>  <Name>  (167) 
cAMP-Dependent Protein Kinase Catalytic Subunit Alpha

>  <Mutations>  (167) 
nan

>  <EC_Number>  (167) 
2.7.11.11

>  <Peptidic_Inhibitor>  (167) 
True

>  <Lig_Missing_Atoms>  (167) 
['No']

>  <PDBbind_Resolution>  (167) 
2.3

>  <PDBbind_Release_Year>  (167) 
2018.0

>  <PDBbind_Comment>  (167) 
ligand is compound 35

>  <PDBbind_Uniprot_Id>  (167) 
P17612

>  <PDBbind_Protein_Name>  (167) 
CAMP-DEPENDENT PROTEIN KINASE CATALYTIC SUBUNIT ALPHA

>  <PDBbind_-Logkd/Ki>  (167) 
6.74

>  <PDBbind_Kd/Ki>  (167) 
Ki=180nM

>  <PDBbind_Kd_Or_Ki_Or_Ic50>  (167) 
Ki

>  <PDBbind_Relation>  (167) 
=

>  <PDBbind_Value>  (167) 
180.0

>  <PDBbind_Unit>  (167) 
nM

>  <PDBbind_Standard_Value>  (167) 
180.0

>  <PDBbind_Standard_Unit>  (167) 
nM

>  <PDB_Chain>  (167) 
['A']

>  <Num_Ligs>  (167) 
[1.0]

>  <Orthosteric>  (167) 
[1.0]

>  <Allosteric>  (167) 
[0.0]

>  <Pockets_Assigned>  (167) 
['A']

>  <Multisite>  (167) 
[False]

>  <Same_Number>  (167) 
True

>  <Same_Binding_Site>  (167) 
True

>  <Same_Orientation>  (167) 
True

>  <Lig_Order_in_.pdb>  (167) 
Orthosteric

$$$$

     RDKit          2D

 25 27  0  0  0  0  0  0  0  0999 V2000
    1.5000    0.0000    0.0000 C   0  0  0  0  0  0  0  0  0  0  0  0
    0.7500   -1.2990    0.0000 C   0  0  0  0  0  0  0  0  0  0  0  0
   -0.7500   -1.2990    0.0000 C   0  0  0  0  0  0  0  0  0  0  0  0
   -1.5000    0.0000    0.0000 C   0  0  0  0  0  0  0  0  0  0  0  0
   -0.7500    1.2990    0.0000 C   0  0  0  0  0  0  0  0  0  0  0  0
    0.7500    1.2990    0.0000 C   0  0  0  0  0  0  0  0  0  0  0  0
   -3.0000    0.0000    0.0000 C   0  0  0  0  0  0  0  0  0  0  0  0
   -3.7500    1.2990    0.0000 C   0  0  0  0  0  0  0  0  0  0  0  0
   -5.2500    1.2990    0.0000 C   0  0  0  0  0  0  0  0  0  0  0  0
   -6.0000    2.5981    0.0000 O   0  0  0  0  0  0  0  0  0  0  0  0
   -3.0000    2.5981    0.0000 N   0  0  0  0  0  0  0  0  0  0  0  0
   -3.7500    3.8971    0.0000 C   0  0  0  0  0  0  0  0  0  0  0  0
   -5.2500    3.8971    0.0000 O   0  0  0  0  0  0  0  0  0  0  0  0
   -3.0000    5.1962    0.0000 C   0  0  0  0  0  0  0  0  0  0  0  0
   -1.5000    5.1962    0.0000 C   0  0  0  0  0  0  0  0  0  0  0  0
   -0.7500    6.4952    0.0000 C   0  0  0  0  0  0  0  0  0  0  0  0
   -1.5000    7.7942    0.0000 C   0  0  0  0  0  0  0  0  0  0  0  0
   -3.0000    7.7942    0.0000 C   0  0  0  0  0  0  0  0  0  0  0  0
   -3.7500    6.4952    0.0000 C   0  0  0  0  0  0  0  0  0  0  0  0
   -0.7500    9.0933    0.0000 C   0  0  0  0  0  0  0  0  0  0  0  0
    0.7500    9.0933    0.0000 C   0  0  0  0  0  0  0  0  0  0  0  0
    1.5000   10.3923    0.0000 C   0  0  0  0  0  0  0  0  0  0  0  0
    0.7500   11.6913    0.0000 N   0  0  0  0  0  0  0  0  0  0  0  0
   -0.7500   11.6913    0.0000 C   0  0  0  0  0  0  0  0  0  0  0  0
   -1.5000   10.3923    0.0000 C   0  0  0  0  0  0  0  0  0  0  0  0
  1  2  2  0
  2  3  1  0
  3  4  2  0
  4  5  1  0
  5  6  2  0
  4  7  1  0
  8  7  1  1
  8  9  1  0
  9 10  1  0
  8 11  1  0
 11 12  1  0
 12 13  2  0
 12 14  1  0
 14 15  2  0
 15 16  1  0
 16 17  2  0
 17 18  1  0
 18 19  2  0
 17 20  1  0
 20 21  2  0
 21 22  1  0
 22 23  2  0
 23 24  1  0
 24 25  2  0
  6  1  1  0
 19 14  1  0
 25 20  1  0
M  END
>  <Structure>  (168) 
5VHB

>  <Dataset>  (168) 
PDB

>  <Chain>  (168) 
A

>  <Spatial_Label>  (168) 
DFGin

>  <Dihedral_Label>  (168) 
BLAminus

>  <C_Helix_Label>  (168) 
Chelix-in

>  <Lig_ID>  (168) 
9CY

>  <Lig_Entity_ID>  (168) 
5VHB_3

>  <Lig_Name>  (168) 
N-[(2S)-1-hydroxy-3-phenylpropan-2-yl]-4-(pyridin-4-yl)benzamide

>  <Lig_Formula>  (168) 
C21H20N2O2

>  <Lig_SMILES>  (168) 
c1ccc(cc1)C[C@@H](CO)NC(=O)c2ccc(cc2)c3ccncc3

>  <Lig_MW>  (168) 
332.396

>  <Lig_ChEMBL_ID>  (168) 
nan

>  <Lig_DrugBank_ID>  (168) 
nan

>  <Occurence>  (168) 
1.0

>  <Lig_SMILES_Uncharged>  (168) 
O=C(N[C@H](CO)Cc1ccccc1)c1ccc(-c2ccncc2)cc1

>  <Lig_Conformer>  (168) 
['NaN']

>  <Lig_Of_Interest>  (168) 
['Y']

>  <Lig_Completeness>  (168) 
[1.0]

>  <Lig_Occupancy>  (168) 
[1.0]

>  <Lig_RSCC>  (168) 
[0.965]

>  <Lig_RSR>  (168) 
[0.064]

>  <Lig_RMSZ_Bonds>  (168) 
[1.14]

>  <Lig_RMSZ_Angles>  (168) 
[0.8]

>  <Lig_Alt_Conf>  (168) 
0.0

>  <Title>  (168) 
Crystal structure of Protein Kinase A in complex with the PKI peptide and Aminobenzothiazole based inhibitor

>  <Nonpolymer_Entity_Count>  (168) 
1.0

>  <Protein_Entity_Count>  (168) 
2.0

>  <Exp_Method>  (168) 
X-Ray Diffraction

>  <Cryst_Method>  (168) 
Vapor Diffusion; 15% Methanol

>  <Deposit_Date>  (168) 
2017-04-12

>  <Resolution>  (168) 
1.61

>  <DOI>  (168) 
https://doi.org/10.1002/cbic.201700547

>  <Source_Organism>  (168) 
Bos taurus

>  <R_Free>  (168) 
0.204

>  <Keywords>  (168) 
Transferase

>  <REMARK_280>  (168) 
 Crystal Solvent Content, Vs (%): 55.02 Matthews Coefficient, Vm (Angstroms**3/Da): 2.73 Crystallization Conditions: 15% Methanol, pH 6.6, Vapor Diffusion, Temperature 277K 

>  <REMARK_610>  (168) 
nan

>  <pH>  (168) 
6.6

>  <Cryst_Technique>  (168) 
nan

>  <Sequence>  (168) 
MGNAAAAKKGSEQESVKEFLAKAKEDFLKKWENPAQNTAHLDQFERIKTLGTGSFGRVMLVKHMETGNHYAMKILDKQKVVKLKQIEHTLNEKRILQAVNFPFLVKLEFSFKDNSNLYMVMEYVPGGEMFSHLRRIGRFSEPHARFYAAQIVLTFEYLHSLDLIYRDLKPENLLIDQQGYIQVTDFGFAKRVKGRTWTLCGTPEYLAPEIILSKGYNKAVDWWALGVLIYEMAAGYPPFFADQPIQIYEKIVSGKVRFPSHFSSDLKDLLRNLLQVDLTKRFGNLKNGVNDIKNHKWFATTDWIAIYQRKVEAPFIPKFKGPGDTSNFDDYEEEEIRVSINEKCGKEFSEF

>  <Sequence_Length>  (168) 
351.0

>  <Mutation_Count>  (168) 
0.0

>  <Gene_Name>  (168) 
PKACA

>  <MW>  (168) 
40.918

>  <Name>  (168) 
cAMP-Dependent Protein Kinase Catalytic Subunit Alpha

>  <Mutations>  (168) 
T198(TPO), S140(SEP), S339(SEP)

>  <EC_Number>  (168) 
2.7.11.11

>  <Peptidic_Inhibitor>  (168) 
True

>  <Lig_Missing_Atoms>  (168) 
['No']

>  <PDBbind_Resolution>  (168) 
nan

>  <PDBbind_Release_Year>  (168) 
nan

>  <PDBbind_Comment>  (168) 
nan

>  <PDBbind_Uniprot_Id>  (168) 
nan

>  <PDBbind_Protein_Name>  (168) 
nan

>  <PDBbind_-Logkd/Ki>  (168) 
nan

>  <PDBbind_Kd/Ki>  (168) 
nan

>  <PDBbind_Kd_Or_Ki_Or_Ic50>  (168) 
nan

>  <PDBbind_Relation>  (168) 
nan

>  <PDBbind_Value>  (168) 
nan

>  <PDBbind_Unit>  (168) 
nan

>  <PDBbind_Standard_Value>  (168) 
nan

>  <PDBbind_Standard_Unit>  (168) 
nan

>  <PDB_Chain>  (168) 
['A']

>  <Num_Ligs>  (168) 
[1.0]

>  <Orthosteric>  (168) 
[1.0]

>  <Allosteric>  (168) 
[0.0]

>  <Pockets_Assigned>  (168) 
['A']

>  <Multisite>  (168) 
[False]

>  <Same_Number>  (168) 
True

>  <Same_Binding_Site>  (168) 
True

>  <Same_Orientation>  (168) 
True

>  <Lig_Order_in_.pdb>  (168) 
Orthosteric

$$$$

     RDKit          2D

 31 35  0  0  0  0  0  0  0  0999 V2000
   -2.5981   -9.6073    0.0000 C   0  0  0  0  0  0  0  0  0  0  0  0
   -2.5981   -8.1073    0.0000 C   0  0  0  0  0  0  0  0  0  0  0  0
   -1.2990   -7.3573    0.0000 C   0  0  0  0  0  0  0  0  0  0  0  0
    0.0000   -8.1073    0.0000 C   0  0  0  0  0  0  0  0  0  0  0  0
    0.0000   -9.6073    0.0000 C   0  0  0  0  0  0  0  0  0  0  0  0
   -1.2990  -10.3573    0.0000 C   0  0  0  0  0  0  0  0  0  0  0  0
    1.2990  -10.3573    0.0000 O   0  0  0  0  0  0  0  0  0  0  0  0
   -1.2990   -5.8573    0.0000 C   0  0  0  0  0  0  0  0  0  0  0  0
    0.0000   -5.1073    0.0000 N   0  0  0  0  0  0  0  0  0  0  0  0
    1.2990   -5.8573    0.0000 C   0  0  0  0  0  0  0  0  0  0  0  0
    1.2990   -7.3573    0.0000 C   0  0  0  0  0  0  0  0  0  0  0  0
    2.5981   -8.1073    0.0000 N   0  0  0  0  0  0  0  0  0  0  0  0
    3.9684   -7.4972    0.0000 C   0  0  0  0  0  0  0  0  0  0  0  0
    4.9721   -8.6119    0.0000 C   0  0  0  0  0  0  0  0  0  0  0  0
    4.2221   -9.9110    0.0000 C   0  0  0  0  0  0  0  0  0  0  0  0
    2.7549   -9.5991    0.0000 C   0  0  0  0  0  0  0  0  0  0  0  0
    0.0000   -3.6073    0.0000 C   0  0  0  0  0  0  0  0  0  0  0  0
    1.2135   -2.7256    0.0000 N   0  0  0  0  0  0  0  0  0  0  0  0
    0.7500   -1.2990    0.0000 C   0  0  0  0  0  0  0  0  0  0  0  0
    1.5000    0.0000    0.0000 C   0  0  0  0  0  0  0  0  0  0  0  0
    0.7500    1.2990    0.0000 C   0  0  0  0  0  0  0  0  0  0  0  0
   -0.7500    1.2990    0.0000 C   0  0  0  0  0  0  0  0  0  0  0  0
   -1.5000    0.0000    0.0000 C   0  0  0  0  0  0  0  0  0  0  0  0
   -0.7500   -1.2990    0.0000 C   0  0  0  0  0  0  0  0  0  0  0  0
   -1.2135   -2.7256    0.0000 S   0  0  0  0  0  0  0  0  0  0  0  0
   -1.5000    2.5981    0.0000 C   0  0  0  0  0  0  0  0  0  0  0  0
   -0.7500    3.8971    0.0000 C   0  0  0  0  0  0  0  0  0  0  0  0
   -1.5000    5.1962    0.0000 C   0  0  0  0  0  0  0  0  0  0  0  0
   -3.0000    5.1962    0.0000 N   0  0  0  0  0  0  0  0  0  0  0  0
   -3.7500    3.8971    0.0000 C   0  0  0  0  0  0  0  0  0  0  0  0
   -3.0000    2.5981    0.0000 C   0  0  0  0  0  0  0  0  0  0  0  0
  1  2  2  0
  2  3  1  0
  3  4  2  0
  4  5  1  0
  5  6  2  0
  5  7  1  0
  3  8  1  0
  8  9  1  0
  9 10  1  0
 10 11  1  0
 11 12  1  0
 12 13  1  0
 13 14  1  0
 14 15  1  0
 15 16  1  0
  9 17  1  0
 17 18  2  0
 18 19  1  0
 19 20  2  0
 20 21  1  0
 21 22  2  0
 22 23  1  0
 23 24  2  0
 24 25  1  0
 22 26  1  0
 26 27  2  0
 27 28  1  0
 28 29  2  0
 29 30  1  0
 30 31  2  0
  6  1  1  0
 16 12  1  0
 25 17  1  0
 24 19  1  0
 31 26  1  0
M  END
>  <Structure>  (169) 
5VIB

>  <Dataset>  (169) 
PDB

>  <Chain>  (169) 
A

>  <Spatial_Label>  (169) 
DFGin

>  <Dihedral_Label>  (169) 
ABAminus

>  <C_Helix_Label>  (169) 
Chelix-in

>  <Lig_ID>  (169) 
9D1

>  <Lig_Entity_ID>  (169) 
5VIB_3

>  <Lig_Name>  (169) 
3-({[6-(pyridin-4-yl)-1,3-benzothiazol-2-yl][2-(pyrrolidin-1-yl)ethyl]amino}methyl)phenol

>  <Lig_Formula>  (169) 
C25H26N4OS

>  <Lig_SMILES>  (169) 
c1cc(cc(c1)O)CN(CCN2CCCC2)c3nc4ccc(cc4s3)c5ccncc5

>  <Lig_MW>  (169) 
430.565

>  <Lig_ChEMBL_ID>  (169) 
nan

>  <Lig_DrugBank_ID>  (169) 
nan

>  <Occurence>  (169) 
1.0

>  <Lig_SMILES_Uncharged>  (169) 
Oc1cccc(CN(CCN2CCCC2)c2nc3ccc(-c4ccncc4)cc3s2)c1

>  <Lig_Conformer>  (169) 
['NaN']

>  <Lig_Of_Interest>  (169) 
['Y']

>  <Lig_Completeness>  (169) 
[1.0]

>  <Lig_Occupancy>  (169) 
[1.0]

>  <Lig_RSCC>  (169) 
[0.908]

>  <Lig_RSR>  (169) 
[0.143]

>  <Lig_RMSZ_Bonds>  (169) 
[1.53]

>  <Lig_RMSZ_Angles>  (169) 
[1.41]

>  <Lig_Alt_Conf>  (169) 
0.0

>  <Title>  (169) 
Crystal structure of Protein Kinase A in complex with the PKI peptide and Aminobenzothiazole based inhibitors

>  <Nonpolymer_Entity_Count>  (169) 
1.0

>  <Protein_Entity_Count>  (169) 
2.0

>  <Exp_Method>  (169) 
X-Ray Diffraction

>  <Cryst_Method>  (169) 
Vapor Diffusion; 15% Methanol

>  <Deposit_Date>  (169) 
2017-04-14

>  <Resolution>  (169) 
2.37

>  <DOI>  (169) 
https://doi.org/10.1002/cbic.201700547

>  <Source_Organism>  (169) 
Bos taurus

>  <R_Free>  (169) 
0.276

>  <Keywords>  (169) 
Transferase

>  <REMARK_280>  (169) 
 Crystal Solvent Content, Vs (%): 49.07 Matthews Coefficient, Vm (Angstroms**3/Da): 2.42 Crystallization Conditions: 15% Methanol, pH 6.6, Vapor Diffusion, Temperature 277K 

>  <REMARK_610>  (169) 
nan

>  <pH>  (169) 
6.6

>  <Cryst_Technique>  (169) 
nan

>  <Sequence>  (169) 
MGNAAAAKKGSEQESVKEFLAKAKEDFLKKWENPAQNTAHLDQFERIKTLGTGSFGRVMLVKHMETGNHYAMKILDKQKVVKLKQIEHTLNEKRILQAVNFPFLVKLEFSFKDNSNLYMVMEYVPGGEMFSHLRRIGRFSEPHARFYAAQIVLTFEYLHSLDLIYRDLKPENLLIDQQGYIQVTDFGFAKRVKGRTWTLCGTPEYLAPEIILSKGYNKAVDWWALGVLIYEMAAGYPPFFADQPIQIYEKIVSGKVRFPSHFSSDLKDLLRNLLQVDLTKRFGNLKNGVNDIKNHKWFATTDWIAIYQRKVEAPFIPKFKGPGDTSNFDDYEEEEIRVSINEKCGKEFSEF

>  <Sequence_Length>  (169) 
351.0

>  <Mutation_Count>  (169) 
0.0

>  <Gene_Name>  (169) 
PKACA

>  <MW>  (169) 
40.758

>  <Name>  (169) 
cAMP-Dependent Protein Kinase Catalytic Subunit Alpha

>  <Mutations>  (169) 
nan

>  <EC_Number>  (169) 
2.7.11.11

>  <Peptidic_Inhibitor>  (169) 
True

>  <Lig_Missing_Atoms>  (169) 
['No']

>  <PDBbind_Resolution>  (169) 
nan

>  <PDBbind_Release_Year>  (169) 
nan

>  <PDBbind_Comment>  (169) 
nan

>  <PDBbind_Uniprot_Id>  (169) 
nan

>  <PDBbind_Protein_Name>  (169) 
nan

>  <PDBbind_-Logkd/Ki>  (169) 
nan

>  <PDBbind_Kd/Ki>  (169) 
nan

>  <PDBbind_Kd_Or_Ki_Or_Ic50>  (169) 
nan

>  <PDBbind_Relation>  (169) 
nan

>  <PDBbind_Value>  (169) 
nan

>  <PDBbind_Unit>  (169) 
nan

>  <PDBbind_Standard_Value>  (169) 
nan

>  <PDBbind_Standard_Unit>  (169) 
nan

>  <PDB_Chain>  (169) 
['A']

>  <Num_Ligs>  (169) 
[1.0]

>  <Orthosteric>  (169) 
[1.0]

>  <Allosteric>  (169) 
[0.0]

>  <Pockets_Assigned>  (169) 
['A']

>  <Multisite>  (169) 
[False]

>  <Same_Number>  (169) 
True

>  <Same_Binding_Site>  (169) 
True

>  <Same_Orientation>  (169) 
True

>  <Lig_Order_in_.pdb>  (169) 
Orthosteric

$$$$

     RDKit          2D

 41 45  0  0  0  0  0  0  0  0999 V2000
  -14.2798    6.6292    0.0000 C   0  0  0  0  0  0  0  0  0  0  0  0
  -12.7880    6.7860    0.0000 C   0  0  0  0  0  0  0  0  0  0  0  0
  -12.1779    8.1563    0.0000 C   0  0  0  0  0  0  0  0  0  0  0  0
  -10.6861    8.3131    0.0000 O   0  0  0  0  0  0  0  0  0  0  0  0
  -10.0760    9.6834    0.0000 C   0  0  0  0  0  0  0  0  0  0  0  0
  -10.9577   10.8969    0.0000 C   0  0  0  0  0  0  0  0  0  0  0  0
  -10.3476   12.2673    0.0000 C   0  0  0  0  0  0  0  0  0  0  0  0
   -8.8558   12.4241    0.0000 C   0  0  0  0  0  0  0  0  0  0  0  0
   -7.9741   11.2105    0.0000 C   0  0  0  0  0  0  0  0  0  0  0  0
   -8.5842    9.8402    0.0000 C   0  0  0  0  0  0  0  0  0  0  0  0
   -7.7025    8.6267    0.0000 C   0  0  0  0  0  0  0  0  0  0  0  0
   -8.3126    7.2564    0.0000 O   0  0  0  0  0  0  0  0  0  0  0  0
   -6.2107    8.7835    0.0000 C   0  0  0  0  0  0  0  0  0  0  0  0
   -5.3291    7.5700    0.0000 C   0  0  0  0  0  0  0  0  0  0  0  0
   -3.8373    7.7268    0.0000 C   0  0  0  0  0  0  0  0  0  0  0  0
   -3.2272    9.0971    0.0000 C   0  0  0  0  0  0  0  0  0  0  0  0
   -4.1088   10.3106    0.0000 C   0  0  0  0  0  0  0  0  0  0  0  0
   -5.6006   10.1538    0.0000 C   0  0  0  0  0  0  0  0  0  0  0  0
   -1.7354    9.2539    0.0000 C   0  0  0  0  0  0  0  0  0  0  0  0
   -1.1253   10.6242    0.0000 O   0  0  0  0  0  0  0  0  0  0  0  0
   -0.8537    8.0403    0.0000 N   0  0  0  0  0  0  0  0  0  0  0  0
    0.6381    8.1971    0.0000 C   0  0  0  0  0  0  0  0  0  0  0  0
    1.3881    9.4962    0.0000 C   0  0  0  0  0  0  0  0  0  0  0  0
    2.8553    9.1843    0.0000 N   0  0  0  0  0  0  0  0  0  0  0  0
    3.0121    7.6925    0.0000 C   0  0  0  0  0  0  0  0  0  0  0  0
    1.6418    7.0824    0.0000 C   0  0  0  0  0  0  0  0  0  0  0  0
    1.3299    5.6152    0.0000 N   0  0  0  0  0  0  0  0  0  0  0  0
   -0.0967    5.1517    0.0000 C   0  0  0  0  0  0  0  0  0  0  0  0
   -1.2114    6.1554    0.0000 O   0  0  0  0  0  0  0  0  0  0  0  0
   -0.4086    3.6844    0.0000 C   0  0  0  0  0  0  0  0  0  0  0  0
   -1.8351    3.2209    0.0000 C   0  0  0  0  0  0  0  0  0  0  0  0
   -2.1470    1.7537    0.0000 C   0  0  0  0  0  0  0  0  0  0  0  0
   -1.0323    0.7500    0.0000 C   0  0  0  0  0  0  0  0  0  0  0  0
    0.3943    1.2135    0.0000 C   0  0  0  0  0  0  0  0  0  0  0  0
    0.7062    2.6807    0.0000 C   0  0  0  0  0  0  0  0  0  0  0  0
    1.2760    0.0000    0.0000 C   0  0  0  0  0  0  0  0  0  0  0  0
    0.3943   -1.2135    0.0000 N   0  0  0  0  0  0  0  0  0  0  0  0
   -1.0323   -0.7500    0.0000 N   0  0  0  0  0  0  0  0  0  0  0  0
   -6.4823   11.3673    0.0000 F   0  0  0  0  0  0  0  0  0  0  0  0
   -8.2457   13.7944    0.0000 O   0  0  0  0  0  0  0  0  0  0  0  0
   -6.7539   13.9512    0.0000 C   0  0  0  0  0  0  0  0  0  0  0  0
  1  2  1  0
  2  3  1  0
  3  4  1  0
  4  5  1  0
  5  6  2  0
  6  7  1  0
  7  8  2  0
  8  9  1  0
  9 10  2  0
 10 11  1  0
 11 12  2  0
 11 13  1  0
 13 14  2  0
 14 15  1  0
 15 16  2  0
 16 17  1  0
 17 18  2  0
 16 19  1  0
 19 20  2  0
 19 21  1  0
 22 21  1  6
 22 23  1  0
 23 24  1  0
 24 25  1  0
 25 26  1  0
 26 27  1  1
 27 28  1  0
 28 29  2  0
 28 30  1  0
 30 31  2  0
 31 32  1  0
 32 33  2  0
 33 34  1  0
 34 35  2  0
 34 36  1  0
 36 37  2  0
 37 38  1  0
  9 39  1  0
  8 40  1  0
 40 41  1  0
 10  5  1  0
 18 13  1  0
 26 22  1  0
 35 30  1  0
 38 33  1  0
M  END
>  <Structure>  (170) 
6C0U

>  <Dataset>  (170) 
PDB

>  <Chain>  (170) 
A

>  <Spatial_Label>  (170) 
DFGin

>  <Dihedral_Label>  (170) 
BLAminus

>  <C_Helix_Label>  (170) 
Chelix-in

>  <Lig_ID>  (170) 
EE4

>  <Lig_Entity_ID>  (170) 
6C0U_2

>  <Lig_Name>  (170) 
N-[(3R,4R)-4-{[4-(2-fluoro-3-methoxy-6-propoxybenzene-1-carbonyl)benzene-1-carbonyl]amino}pyrrolidin-3-yl]-1H-indazole-5-carboxamide

>  <Lig_Formula>  (170) 
C30H30FN5O5

>  <Lig_SMILES>  (170) 
CCCOc1ccc(c(c1C(=O)c2ccc(cc2)C(=O)N[C@@H]3CNC[C@H]3NC(=O)c4ccc5c(c4)cn[nH]5)F)OC

>  <Lig_MW>  (170) 
559.588

>  <Lig_ChEMBL_ID>  (170) 
nan

>  <Lig_DrugBank_ID>  (170) 
nan

>  <Occurence>  (170) 
1.0

>  <Lig_SMILES_Uncharged>  (170) 
CCCOc1ccc(OC)c(F)c1C(=O)c1ccc(C(=O)N[C@@H]2CNC[C@H]2NC(=O)c2ccc3[nH]ncc3c2)cc1

>  <Lig_Conformer>  (170) 
['NaN']

>  <Lig_Of_Interest>  (170) 
['Y']

>  <Lig_Completeness>  (170) 
[1.0]

>  <Lig_Occupancy>  (170) 
[1.0]

>  <Lig_RSCC>  (170) 
[0.956]

>  <Lig_RSR>  (170) 
[0.182]

>  <Lig_RMSZ_Bonds>  (170) 
[3.07]

>  <Lig_RMSZ_Angles>  (170) 
[1.51]

>  <Lig_Alt_Conf>  (170) 
0.0

>  <Title>  (170) 
Crystal structure of cAMP-dependent protein kinase Calpha subunit bound with N46

>  <Nonpolymer_Entity_Count>  (170) 
5.0

>  <Protein_Entity_Count>  (170) 
1.0

>  <Exp_Method>  (170) 
X-Ray Diffraction

>  <Cryst_Method>  (170) 
Vapor Diffusion, Hanging Drop; 16% (W/V) Peg8000, 0.04 M Potassium pHosphate (Monobasic), 20% (V/V) Glycerol

>  <Deposit_Date>  (170) 
2018-01-02

>  <Resolution>  (170) 
2.65

>  <DOI>  (170) 
https://doi.org/10.1074/jbc.RA118.002427

>  <Source_Organism>  (170) 
Homo sapiens

>  <R_Free>  (170) 
0.2432

>  <Keywords>  (170) 
Transferase/Transferase Inhibitor

>  <REMARK_280>  (170) 
 Crystal Solvent Content, Vs (%): 69.94 Matthews Coefficient, Vm (Angstroms**3/Da): 4.09 Crystallization Conditions: 16% (W/V) Peg8000, 0.04 M Potassium pHosphate (Monobasic), 20% (V/V) Glycerol, pH 7.5, Vapor Diffusion, Hanging Drop, Temperature 295K 

>  <REMARK_610>  (170) 
nan

>  <pH>  (170) 
7.5

>  <Cryst_Technique>  (170) 
co-crystallized

>  <Sequence>  (170) 
GSHMGNAAAAKKGSEQESVKEFLAKAKEDFLKKWESPAQNTAHLDQFERIKTLGTGSFGRVMLVKHKETGNHYAMKILDKQKVVKLKQIEHTLNEKRILQAVNFPFLVKLEFSFKDNSNLYMVMEYVPGGEMFSHLRRIGRFSEPHARFYAAQIVLTFEYLHSLDLIYRDLKPENLLIDQQGYIQVTDFGFAKRVKGRTWTLCGTPEYLAPEIILSKGYNKAVDWWALGVLIYEMAAGYPPFFADQPIQIYEKIVSGKVRFPSHFSSDLKDLLRNLLQVDLTKRFGNLKNGVNDIKNHKWFATTDWIAIYQRKVEAPFIPKFKGPGDTSNFDDYEEEEIRVSINEKCGKEFSEF

>  <Sequence_Length>  (170) 
354.0

>  <Mutation_Count>  (170) 
0.0

>  <Gene_Name>  (170) 
PKACA

>  <MW>  (170) 
41.091

>  <Name>  (170) 
cAMP-Dependent Protein Kinase Catalytic Subunit Alpha

>  <Mutations>  (170) 
nan

>  <EC_Number>  (170) 
2.7.11.11

>  <Peptidic_Inhibitor>  (170) 
False

>  <Lig_Missing_Atoms>  (170) 
['No']

>  <PDBbind_Resolution>  (170) 
2.65

>  <PDBbind_Release_Year>  (170) 
2018.0

>  <PDBbind_Comment>  (170) 
ligand is compound N46; IC50 = 1030+/-43nM

>  <PDBbind_Uniprot_Id>  (170) 
P17612

>  <PDBbind_Protein_Name>  (170) 
CAMP-DEPENDENT PROTEIN KINASE CATALYTIC SUBUNIT ALPHA

>  <PDBbind_-Logkd/Ki>  (170) 
5.99

>  <PDBbind_Kd/Ki>  (170) 
IC=1030nM

>  <PDBbind_Kd_Or_Ki_Or_Ic50>  (170) 
IC50

>  <PDBbind_Relation>  (170) 
=

>  <PDBbind_Value>  (170) 
1030.0

>  <PDBbind_Unit>  (170) 
nM

>  <PDBbind_Standard_Value>  (170) 
1030.0

>  <PDBbind_Standard_Unit>  (170) 
nM

>  <PDB_Chain>  (170) 
['A']

>  <Num_Ligs>  (170) 
[1.0]

>  <Orthosteric>  (170) 
[1.0]

>  <Allosteric>  (170) 
[0.0]

>  <Pockets_Assigned>  (170) 
['A']

>  <Multisite>  (170) 
[False]

>  <Same_Number>  (170) 
True

>  <Same_Binding_Site>  (170) 
True

>  <Same_Orientation>  (170) 
True

>  <Lig_Order_in_.pdb>  (170) 
Orthosteric

$$$$

     RDKit          2D

 27 29  0  0  0  0  0  0  0  0999 V2000
    1.5000    0.0000    0.0000 C   0  0  0  0  0  0  0  0  0  0  0  0
    0.7500   -1.2990    0.0000 N   0  0  0  0  0  0  0  0  0  0  0  0
   -0.7500   -1.2990    0.0000 C   0  0  0  0  0  0  0  0  0  0  0  0
   -1.5000    0.0000    0.0000 C   0  0  0  0  0  0  0  0  0  0  0  0
   -0.7500    1.2990    0.0000 C   0  0  0  0  0  0  0  0  0  0  0  0
    0.7500    1.2990    0.0000 N   0  0  0  0  0  0  0  0  0  0  0  0
   -1.7537    2.4138    0.0000 N   0  0  0  0  0  0  0  0  0  0  0  0
   -3.1240    1.8037    0.0000 C   0  0  0  0  0  0  0  0  0  0  0  0
   -2.9672    0.3119    0.0000 N   0  0  0  0  0  0  0  0  0  0  0  0
   -1.4418    3.8810    0.0000 C   0  0  0  0  0  0  0  0  0  0  0  0
   -2.4455    4.9957    0.0000 C   0  0  0  0  0  0  0  0  0  0  0  0
   -1.6955    6.2947    0.0000 C   0  0  0  0  0  0  0  0  0  0  0  0
   -0.2283    5.9829    0.0000 C   0  0  0  0  0  0  0  0  0  0  0  0
   -0.0715    4.4911    0.0000 O   0  0  0  0  0  0  0  0  0  0  0  0
    0.8864    6.9866    0.0000 C   0  0  0  0  0  0  0  0  0  0  0  0
    2.3130    6.5230    0.0000 O   0  0  0  0  0  0  0  0  0  0  0  0
    3.4277    7.5267    0.0000 P   0  0  0  0  0  5  0  0  0  0  0  0
    2.4240    8.6414    0.0000 O   0  0  0  0  0  0  0  0  0  0  0  0
    4.4314    6.4120    0.0000 O   0  0  0  0  0  0  0  0  0  0  0  0
    4.5424    8.5304    0.0000 O   0  0  0  0  0  0  0  0  0  0  0  0
    4.2306    9.9976    0.0000 P   0  0  0  0  0  0  0  0  0  0  0  0
    5.6978   10.3095    0.0000 O   0  0  0  0  0  0  0  0  0  0  0  0
    2.7633    9.6858    0.0000 O   0  0  0  0  0  0  0  0  0  0  0  0
    3.9187   11.4649    0.0000 O   0  0  0  0  0  0  0  0  0  0  0  0
   -2.3056    7.6651    0.0000 O   0  0  0  0  0  0  0  0  0  0  0  0
   -3.9373    4.8389    0.0000 O   0  0  0  0  0  0  0  0  0  0  0  0
   -1.5000   -2.5981    0.0000 N   0  0  0  0  0  0  0  0  0  0  0  0
  1  2  2  0
  2  3  1  0
  3  4  2  0
  4  5  1  0
  5  6  2  0
  5  7  1  0
  7  8  1  0
  8  9  2  0
 10  7  1  1
 10 11  1  0
 11 12  1  0
 12 13  1  0
 13 14  1  0
 13 15  1  1
 15 16  1  0
 16 17  1  0
 17 18  2  0
 17 19  1  6
 17 20  1  0
 20 21  1  0
 21 22  2  0
 21 23  1  0
 21 24  1  0
 12 25  1  6
 11 26  1  6
  3 27  1  0
  6  1  1  0
  9  4  1  0
 14 10  1  0
M  END
>  <Structure>  (171) 
6E21

>  <Dataset>  (171) 
PDB

>  <Chain>  (171) 
A

>  <Spatial_Label>  (171) 
DFGin

>  <Dihedral_Label>  (171) 
BLAminus

>  <C_Helix_Label>  (171) 
Chelix-in

>  <Lig_ID>  (171) 
ADP

>  <Lig_Entity_ID>  (171) 
6E21_4

>  <Lig_Name>  (171) 
ADENOSINE-5'-DIPHOSPHATE

>  <Lig_Formula>  (171) 
C10H15N5O10P2

>  <Lig_SMILES>  (171) 
c1nc(c2c(n1)n(cn2)[C@H]3[C@@H]([C@@H]([C@H](O3)CO[P@](=O)(O)OP(=O)(O)O)O)O)N

>  <Lig_MW>  (171) 
427.201

>  <Lig_ChEMBL_ID>  (171) 
['CHEMBL14830']

>  <Lig_DrugBank_ID>  (171) 
['DB16833']

>  <Occurence>  (171) 
19.0

>  <Lig_SMILES_Uncharged>  (171) 
Nc1ncnc2c1ncn2[C@@H]1O[C@H](CO[P@](=O)(O)OP(=O)(O)O)[C@@H](O)[C@H]1O

>  <Lig_Conformer>  (171) 
['NaN']

>  <Lig_Of_Interest>  (171) 
['Y']

>  <Lig_Completeness>  (171) 
[0.9286]

>  <Lig_Occupancy>  (171) 
[1.0]

>  <Lig_RSCC>  (171) 
['NaN']

>  <Lig_RSR>  (171) 
['NaN']

>  <Lig_RMSZ_Bonds>  (171) 
[1.11]

>  <Lig_RMSZ_Angles>  (171) 
[1.44]

>  <Lig_Alt_Conf>  (171) 
0.0

>  <Title>  (171) 
Joint X-ray/neutron structure of PKAc with products Sr2-ADP and phosphorylated peptide SP20

>  <Nonpolymer_Entity_Count>  (171) 
3.0

>  <Protein_Entity_Count>  (171) 
2.0

>  <Exp_Method>  (171) 
X-Ray Diffraction

>  <Cryst_Method>  (171) 
Vapor Diffusion, Sitting Drop; 100 Mm Mes, pH 6.5, 5 Mm Dtt, Peg4000

>  <Deposit_Date>  (171) 
2018-07-10

>  <Resolution>  (171) 
2.0

>  <DOI>  (171) 
https://doi.org/10.1126/sciadv.aav0482

>  <Source_Organism>  (171) 
Mus musculus

>  <R_Free>  (171) 
0.217

>  <Keywords>  (171) 
Transferase

>  <REMARK_280>  (171) 
 Crystal Solvent Content, Vs (%): 54.63 Matthews Coefficient, Vm (Angstroms**3/Da): 2.71 Crystallization Conditions: 100 Mm Mes, pH 6.5, 5 Mm Dtt, Peg4000, Vapor Diffusion, Sitting Drop, Temperature 277K 

>  <REMARK_610>  (171) 
nan

>  <pH>  (171) 
6.5

>  <Cryst_Technique>  (171) 
co-crystallized

>  <Sequence>  (171) 
HHHHHHGNAAAAKKGSEQESVKEFLAKAKEDFLKKWETPSQNTAQLDQFDRIKTLGTGSFGRVMLVKHKESGNHYAMKILDKQKVVKLKQIEHTLNEKRILQAVNFPFLVKLEFSFKDNSNLYMVMEYVAGGEMFSHLRRIGRFSEPHARFYAAQIVLTFEYLHSLDLIYRDLKPENLLIDQQGYIQVTDFGFAKRVKGRTWTLCGTPEYLAPEIILSKGYNKAVDWWALGVLIYEMAAGYPPFFADQPIQIYEKIVSGKVRFPSHFSSDLKDLLRNLLQVDLTKRFGNLKNGVNDIKNHKWFATTDWIAIYQRKVEAPFIPKFKGPGDTSNFDDYEEEEIRVSINEKCGKEFTEF

>  <Sequence_Length>  (171) 
356.0

>  <Mutation_Count>  (171) 
0.0

>  <Gene_Name>  (171) 
PKACA

>  <MW>  (171) 
41.566

>  <Name>  (171) 
cAMP-Dependent Protein Kinase Catalytic Subunit Alpha

>  <Mutations>  (171) 
nan

>  <EC_Number>  (171) 
2.7.11.11

>  <Peptidic_Inhibitor>  (171) 
True

>  <Lig_Missing_Atoms>  (171) 
['No']

>  <PDBbind_Resolution>  (171) 
nan

>  <PDBbind_Release_Year>  (171) 
nan

>  <PDBbind_Comment>  (171) 
nan

>  <PDBbind_Uniprot_Id>  (171) 
nan

>  <PDBbind_Protein_Name>  (171) 
nan

>  <PDBbind_-Logkd/Ki>  (171) 
nan

>  <PDBbind_Kd/Ki>  (171) 
nan

>  <PDBbind_Kd_Or_Ki_Or_Ic50>  (171) 
nan

>  <PDBbind_Relation>  (171) 
nan

>  <PDBbind_Value>  (171) 
nan

>  <PDBbind_Unit>  (171) 
nan

>  <PDBbind_Standard_Value>  (171) 
nan

>  <PDBbind_Standard_Unit>  (171) 
nan

>  <PDB_Chain>  (171) 
['A']

>  <Num_Ligs>  (171) 
[1.0]

>  <Orthosteric>  (171) 
[1.0]

>  <Allosteric>  (171) 
[0.0]

>  <Pockets_Assigned>  (171) 
['A']

>  <Multisite>  (171) 
[False]

>  <Same_Number>  (171) 
True

>  <Same_Binding_Site>  (171) 
True

>  <Same_Orientation>  (171) 
True

>  <Lig_Order_in_.pdb>  (171) 
Orthosteric

$$$$

     RDKit          2D

 29 31  0  0  0  0  0  0  0  0999 V2000
    0.7500   -3.8971    0.0000 C   0  0  0  0  0  0  0  0  0  0  0  0
    1.5000   -2.5981    0.0000 C   0  0  0  0  0  0  0  0  0  0  0  0
    0.7500   -1.2990    0.0000 C   0  0  0  0  0  0  0  0  0  0  0  0
    1.5000    0.0000    0.0000 C   0  0  0  0  0  0  0  0  0  0  0  0
    0.7500    1.2990    0.0000 C   0  0  0  0  0  0  0  0  0  0  0  0
   -0.7500    1.2990    0.0000 C   0  0  0  0  0  0  0  0  0  0  0  0
   -1.5000    0.0000    0.0000 C   0  0  0  0  0  0  0  0  0  0  0  0
   -0.7500   -1.2990    0.0000 C   0  0  0  0  0  0  0  0  0  0  0  0
   -3.0000    0.0000    0.0000 O   0  0  0  0  0  0  0  0  0  0  0  0
   -3.7500    1.2990    0.0000 C   0  0  0  0  0  0  0  0  0  0  0  0
    3.0000   -2.5981    0.0000 N   0  0  0  0  0  0  0  0  0  0  0  0
    3.7500   -3.8971    0.0000 C   0  0  0  0  0  0  0  0  0  0  0  0
    3.0000   -5.1962    0.0000 O   0  0  0  0  0  0  0  0  0  0  0  0
    5.2500   -3.8971    0.0000 C   0  0  0  0  0  0  0  0  0  0  0  0
    6.0000   -5.1962    0.0000 C   0  0  0  0  0  0  0  0  0  0  0  0
    7.5000   -5.1962    0.0000 C   0  0  0  0  0  0  0  0  0  0  0  0
    8.2500   -3.8971    0.0000 C   0  0  0  0  0  0  0  0  0  0  0  0
    7.5000   -2.5981    0.0000 C   0  0  0  0  0  0  0  0  0  0  0  0
    6.0000   -2.5981    0.0000 C   0  0  0  0  0  0  0  0  0  0  0  0
    5.2500   -1.2990    0.0000 N   0  0  0  0  0  0  0  0  0  0  0  0
    6.0000   -0.0000    0.0000 C   0  0  0  0  0  0  0  0  0  0  0  0
    5.2500    1.2990    0.0000 C   0  0  0  0  0  0  0  0  0  0  0  0
    6.0000    2.5981    0.0000 N   0  0  0  0  0  0  0  0  0  0  0  0
    9.7500   -3.8971    0.0000 C   0  0  0  0  0  0  0  0  0  0  0  0
   10.5000   -5.1962    0.0000 C   0  0  0  0  0  0  0  0  0  0  0  0
   12.0000   -5.1962    0.0000 C   0  0  0  0  0  0  0  0  0  0  0  0
   12.7500   -3.8971    0.0000 N   0  0  0  0  0  0  0  0  0  0  0  0
   12.0000   -2.5981    0.0000 C   0  0  0  0  0  0  0  0  0  0  0  0
   10.5000   -2.5981    0.0000 C   0  0  0  0  0  0  0  0  0  0  0  0
  2  1  1  6
  2  3  1  0
  3  4  2  0
  4  5  1  0
  5  6  2  0
  6  7  1  0
  7  8  2  0
  7  9  1  0
  9 10  1  0
  2 11  1  0
 11 12  1  0
 12 13  2  0
 12 14  1  0
 14 15  2  0
 15 16  1  0
 16 17  2  0
 17 18  1  0
 18 19  2  0
 19 20  1  0
 20 21  1  0
 21 22  1  0
 22 23  1  0
 17 24  1  0
 24 25  2  0
 25 26  1  0
 26 27  2  0
 27 28  1  0
 28 29  2  0
  8  3  1  0
 19 14  1  0
 29 24  1  0
M  END
>  <Structure>  (172) 
6E99

>  <Dataset>  (172) 
PDB

>  <Chain>  (172) 
A

>  <Spatial_Label>  (172) 
DFGin

>  <Dihedral_Label>  (172) 
BLAminus

>  <C_Helix_Label>  (172) 
Chelix-in

>  <Lig_ID>  (172) 
J0G

>  <Lig_Entity_ID>  (172) 
6E99_3

>  <Lig_Name>  (172) 
2-[(2-aminoethyl)amino]-N-[(1R)-1-(3-methoxyphenyl)ethyl]-4-(pyridin-4-yl)benzamide

>  <Lig_Formula>  (172) 
C23H26N4O2

>  <Lig_SMILES>  (172) 
C[C@H](c1cccc(c1)OC)NC(=O)c2ccc(cc2NCCN)c3ccncc3

>  <Lig_MW>  (172) 
390.478

>  <Lig_ChEMBL_ID>  (172) 
nan

>  <Lig_DrugBank_ID>  (172) 
nan

>  <Occurence>  (172) 
1.0

>  <Lig_SMILES_Uncharged>  (172) 
COc1cccc([C@@H](C)NC(=O)c2ccc(-c3ccncc3)cc2NCCN)c1

>  <Lig_Conformer>  (172) 
['NaN']

>  <Lig_Of_Interest>  (172) 
['Y']

>  <Lig_Completeness>  (172) 
[1.0]

>  <Lig_Occupancy>  (172) 
[1.0]

>  <Lig_RSCC>  (172) 
[0.89]

>  <Lig_RSR>  (172) 
[0.163]

>  <Lig_RMSZ_Bonds>  (172) 
[0.7]

>  <Lig_RMSZ_Angles>  (172) 
[1.03]

>  <Lig_Alt_Conf>  (172) 
0.0

>  <Title>  (172) 
Crystal structure of Protein Kinase A in complex with the PKI peptide and an amino-pyridinylbenzamide based inhibitor.

>  <Nonpolymer_Entity_Count>  (172) 
1.0

>  <Protein_Entity_Count>  (172) 
2.0

>  <Exp_Method>  (172) 
X-Ray Diffraction

>  <Cryst_Method>  (172) 
Vapor Diffusion, Hanging Drop; 5 To 27% Methanol

>  <Deposit_Date>  (172) 
2018-07-31

>  <Resolution>  (172) 
1.88

>  <DOI>  (172) 
https://doi.org/10.1021/acs.jmedchem.8b01098

>  <Source_Organism>  (172) 
Bos taurus

>  <R_Free>  (172) 
0.23

>  <Keywords>  (172) 
Transferase

>  <REMARK_280>  (172) 
 Crystal Solvent Content, Vs (%): 59.66 Matthews Coefficient, Vm (Angstroms**3/Da): 3.05 Crystallization Conditions: 5 To 27% Methanol, pH 6.6, Vapor Diffusion, Hanging Drop, Temperature 277K 

>  <REMARK_610>  (172) 
nan

>  <pH>  (172) 
6.6

>  <Cryst_Technique>  (172) 
co-crystallized

>  <Sequence>  (172) 
MGNAAAAKKGSEQESVKEFLAKAKEDFLKKWENPAQNTAHLDQFERIKTLGTGSFGRVMLVKHMETGNHYAMKILDKQKVVKLKQIEHTLNEKRILQAVNFPFLVKLEFSFKDNSNLYMVMEYVPGGEMFSHLRRIGRFSEPHARFYAAQIVLTFEYLHSLDLIYRDLKPENLLIDQQGYIQVTDFGFAKRVKGRTWTLCGTPEYLAPEIILSKGYNKAVDWWALGVLIYEMAAGYPPFFADQPIQIYEKIVSGKVRFPSHFSSDLKDLLRNLLQVDLTKRFGNLKNGVNDIKNHKWFATTDWIAIYQRKVEAPFIPKFKGPGDTSNFDDYEEEEIRVSINEKCGKEFSEF

>  <Sequence_Length>  (172) 
351.0

>  <Mutation_Count>  (172) 
0.0

>  <Gene_Name>  (172) 
PKACA

>  <MW>  (172) 
40.838

>  <Name>  (172) 
cAMP-Dependent Protein Kinase Catalytic Subunit Alpha

>  <Mutations>  (172) 
nan

>  <EC_Number>  (172) 
2.7.11.11

>  <Peptidic_Inhibitor>  (172) 
True

>  <Lig_Missing_Atoms>  (172) 
['No']

>  <PDBbind_Resolution>  (172) 
1.88

>  <PDBbind_Release_Year>  (172) 
2018.0

>  <PDBbind_Comment>  (172) 
[Nonstandard assay: ATP = 100 uM] ligand is compound 47

>  <PDBbind_Uniprot_Id>  (172) 
P00517

>  <PDBbind_Protein_Name>  (172) 
CAMP-DEPENDENT PROTEIN KINASE CATALYTIC SUBUNIT ALPHA

>  <PDBbind_-Logkd/Ki>  (172) 
6.0

>  <PDBbind_Kd/Ki>  (172) 
IC=1.0uM

>  <PDBbind_Kd_Or_Ki_Or_Ic50>  (172) 
IC50

>  <PDBbind_Relation>  (172) 
=

>  <PDBbind_Value>  (172) 
1.0

>  <PDBbind_Unit>  (172) 
uM

>  <PDBbind_Standard_Value>  (172) 
1000.0

>  <PDBbind_Standard_Unit>  (172) 
nM

>  <PDB_Chain>  (172) 
['A']

>  <Num_Ligs>  (172) 
[1.0]

>  <Orthosteric>  (172) 
[1.0]

>  <Allosteric>  (172) 
[0.0]

>  <Pockets_Assigned>  (172) 
['A']

>  <Multisite>  (172) 
[False]

>  <Same_Number>  (172) 
True

>  <Same_Binding_Site>  (172) 
True

>  <Same_Orientation>  (172) 
True

>  <Lig_Order_in_.pdb>  (172) 
Orthosteric

$$$$

     RDKit          2D

 26 29  0  0  0  0  0  0  0  0999 V2000
    0.7500   -3.8971    0.0000 C   0  0  0  0  0  0  0  0  0  0  0  0
   -0.7500   -3.8971    0.0000 C   0  0  0  0  0  0  0  0  0  0  0  0
   -1.5000   -2.5981    0.0000 C   0  0  0  0  0  0  0  0  0  0  0  0
   -0.7500   -1.2990    0.0000 C   0  0  0  0  0  0  0  0  0  0  0  0
    0.7500   -1.2990    0.0000 C   0  0  0  0  0  0  0  0  0  0  0  0
    1.5000   -2.5981    0.0000 C   0  0  0  0  0  0  0  0  0  0  0  0
    1.5000    0.0000    0.0000 O   0  0  0  0  0  0  0  0  0  0  0  0
    0.7500    1.2990    0.0000 C   0  0  0  0  0  0  0  0  0  0  0  0
   -0.7500    1.2990    0.0000 C   0  0  0  0  0  0  0  0  0  0  0  0
   -1.5000    0.0000    0.0000 O   0  0  0  0  0  0  0  0  0  0  0  0
   -3.0000   -2.5981    0.0000 C   0  0  0  0  0  0  0  0  0  0  0  0
   -3.7500   -3.8971    0.0000 N   0  0  0  0  0  0  0  0  0  0  0  0
   -5.2500   -3.8971    0.0000 C   0  0  0  0  0  0  0  0  0  0  0  0
   -6.0000   -2.5981    0.0000 O   0  0  0  0  0  0  0  0  0  0  0  0
   -6.0000   -5.1962    0.0000 C   0  0  0  0  0  0  0  0  0  0  0  0
   -7.5000   -5.1962    0.0000 C   0  0  0  0  0  0  0  0  0  0  0  0
   -8.2500   -6.4952    0.0000 C   0  0  0  0  0  0  0  0  0  0  0  0
   -7.5000   -7.7942    0.0000 C   0  0  0  0  0  0  0  0  0  0  0  0
   -6.0000   -7.7942    0.0000 C   0  0  0  0  0  0  0  0  0  0  0  0
   -5.2500   -6.4952    0.0000 C   0  0  0  0  0  0  0  0  0  0  0  0
   -8.2500   -9.0933    0.0000 C   0  0  0  0  0  0  0  0  0  0  0  0
   -9.7500   -9.0933    0.0000 C   0  0  0  0  0  0  0  0  0  0  0  0
  -10.5000  -10.3923    0.0000 C   0  0  0  0  0  0  0  0  0  0  0  0
   -9.7500  -11.6913    0.0000 N   0  0  0  0  0  0  0  0  0  0  0  0
   -8.2500  -11.6913    0.0000 C   0  0  0  0  0  0  0  0  0  0  0  0
   -7.5000  -10.3923    0.0000 C   0  0  0  0  0  0  0  0  0  0  0  0
  1  2  2  0
  2  3  1  0
  3  4  2  0
  4  5  1  0
  5  6  2  0
  5  7  1  0
  7  8  1  0
  8  9  1  0
  9 10  1  0
  3 11  1  0
 11 12  1  0
 12 13  1  0
 13 14  2  0
 13 15  1  0
 15 16  2  0
 16 17  1  0
 17 18  2  0
 18 19  1  0
 19 20  2  0
 18 21  1  0
 21 22  2  0
 22 23  1  0
 23 24  2  0
 24 25  1  0
 25 26  2  0
  6  1  1  0
 10  4  1  0
 20 15  1  0
 26 21  1  0
M  END
>  <Structure>  (173) 
6E9L

>  <Dataset>  (173) 
PDB

>  <Chain>  (173) 
A

>  <Spatial_Label>  (173) 
DFGin

>  <Dihedral_Label>  (173) 
BLAminus

>  <C_Helix_Label>  (173) 
Chelix-in

>  <Lig_ID>  (173) 
J0P

>  <Lig_Entity_ID>  (173) 
6E9L_3

>  <Lig_Name>  (173) 
N-[(2,3-dihydro-1,4-benzodioxin-5-yl)methyl]-4-(pyridin-4-yl)benzamide

>  <Lig_Formula>  (173) 
C21H18N2O3

>  <Lig_SMILES>  (173) 
c1cc(c2c(c1)OCCO2)CNC(=O)c3ccc(cc3)c4ccncc4

>  <Lig_MW>  (173) 
346.379

>  <Lig_ChEMBL_ID>  (173) 
nan

>  <Lig_DrugBank_ID>  (173) 
nan

>  <Occurence>  (173) 
1.0

>  <Lig_SMILES_Uncharged>  (173) 
O=C(NCc1cccc2c1OCCO2)c1ccc(-c2ccncc2)cc1

>  <Lig_Conformer>  (173) 
['NaN']

>  <Lig_Of_Interest>  (173) 
['Y']

>  <Lig_Completeness>  (173) 
[1.0]

>  <Lig_Occupancy>  (173) 
[1.0]

>  <Lig_RSCC>  (173) 
[0.951]

>  <Lig_RSR>  (173) 
[0.172]

>  <Lig_RMSZ_Bonds>  (173) 
[0.92]

>  <Lig_RMSZ_Angles>  (173) 
[1.17]

>  <Lig_Alt_Conf>  (173) 
0.0

>  <Title>  (173) 
Crystal structure of Protein Kinase A in complex with the PKI peptide and a pyridinylbenzamide based inhibitor

>  <Nonpolymer_Entity_Count>  (173) 
1.0

>  <Protein_Entity_Count>  (173) 
2.0

>  <Exp_Method>  (173) 
X-Ray Diffraction

>  <Cryst_Method>  (173) 
Vapor Diffusion, Hanging Drop; 5 To 27% Methanol

>  <Deposit_Date>  (173) 
2018-08-01

>  <Resolution>  (173) 
2.8

>  <DOI>  (173) 
https://doi.org/10.1021/acs.jmedchem.8b01098

>  <Source_Organism>  (173) 
Bos taurus

>  <R_Free>  (173) 
0.271

>  <Keywords>  (173) 
Transferase/Transferase Inhibitor

>  <REMARK_280>  (173) 
 Crystal Solvent Content, Vs (%): 53.50 Matthews Coefficient, Vm (Angstroms**3/Da): 2.65 Crystallization Conditions: 5 To 27% Methanol, pH 6.6, Vapor Diffusion, Hanging Drop, Temperature 277K 

>  <REMARK_610>  (173) 
nan

>  <pH>  (173) 
6.6

>  <Cryst_Technique>  (173) 
co-crystallized

>  <Sequence>  (173) 
MGNAAAAKKGSEQESVKEFLAKAKEDFLKKWENPAQNTAHLDQFERIKTLGTGSFGRVMLVKHMETGNHYAMKILDKQKVVKLKQIEHTLNEKRILQAVNFPFLVKLEFSFKDNSNLYMVMEYVPGGEMFSHLRRIGRFSEPHARFYAAQIVLTFEYLHSLDLIYRDLKPENLLIDQQGYIQVTDFGFAKRVKGRTWTLCGTPEYLAPEIILSKGYNKAVDWWALGVLIYEMAAGYPPFFADQPIQIYEKIVSGKVRFPSHFSSDLKDLLRNLLQVDLTKRFGNLKNGVNDIKNHKWFATTDWIAIYQRKVEAPFIPKFKGPGDTSNFDDYEEEEIRVSINEKCGKEFSEF

>  <Sequence_Length>  (173) 
351.0

>  <Mutation_Count>  (173) 
0.0

>  <Gene_Name>  (173) 
PKACA

>  <MW>  (173) 
40.838

>  <Name>  (173) 
cAMP-Dependent Protein Kinase Catalytic Subunit Alpha

>  <Mutations>  (173) 
nan

>  <EC_Number>  (173) 
2.7.11.11

>  <Peptidic_Inhibitor>  (173) 
True

>  <Lig_Missing_Atoms>  (173) 
['No']

>  <PDBbind_Resolution>  (173) 
2.8

>  <PDBbind_Release_Year>  (173) 
2018.0

>  <PDBbind_Comment>  (173) 
[Nonstandard assay: ATP = 100 uM] ligand is compound 12

>  <PDBbind_Uniprot_Id>  (173) 
P00517

>  <PDBbind_Protein_Name>  (173) 
CAMP-DEPENDENT PROTEIN KINASE CATALYTIC SUBUNIT ALPHA

>  <PDBbind_-Logkd/Ki>  (173) 
6.04

>  <PDBbind_Kd/Ki>  (173) 
IC=0.92uM

>  <PDBbind_Kd_Or_Ki_Or_Ic50>  (173) 
IC50

>  <PDBbind_Relation>  (173) 
=

>  <PDBbind_Value>  (173) 
0.92

>  <PDBbind_Unit>  (173) 
uM

>  <PDBbind_Standard_Value>  (173) 
920.0

>  <PDBbind_Standard_Unit>  (173) 
nM

>  <PDB_Chain>  (173) 
['A']

>  <Num_Ligs>  (173) 
[1.0]

>  <Orthosteric>  (173) 
[1.0]

>  <Allosteric>  (173) 
[0.0]

>  <Pockets_Assigned>  (173) 
['A']

>  <Multisite>  (173) 
[False]

>  <Same_Number>  (173) 
True

>  <Same_Binding_Site>  (173) 
True

>  <Same_Orientation>  (173) 
True

>  <Lig_Order_in_.pdb>  (173) 
Orthosteric

$$$$

     RDKit          2D

 23 25  0  0  0  0  0  0  0  0999 V2000
    1.5000    0.0000    0.0000 C   0  0  0  0  0  0  0  0  0  0  0  0
    0.7500   -1.2990    0.0000 N   0  0  0  0  0  0  0  0  0  0  0  0
   -0.7500   -1.2990    0.0000 C   0  0  0  0  0  0  0  0  0  0  0  0
   -1.5000    0.0000    0.0000 C   0  0  0  0  0  0  0  0  0  0  0  0
   -0.7500    1.2990    0.0000 C   0  0  0  0  0  0  0  0  0  0  0  0
    0.7500    1.2990    0.0000 N   0  0  0  0  0  0  0  0  0  0  0  0
   -1.7537    2.4138    0.0000 N   0  0  0  0  0  0  0  0  0  0  0  0
   -3.1240    1.8037    0.0000 C   0  0  0  0  0  0  0  0  0  0  0  0
   -2.9672    0.3119    0.0000 N   0  0  0  0  0  0  0  0  0  0  0  0
   -1.4418    3.8810    0.0000 C   0  0  0  0  0  0  0  0  0  0  0  0
   -2.4455    4.9957    0.0000 C   0  0  0  0  0  0  0  0  0  0  0  0
   -1.6955    6.2947    0.0000 C   0  0  0  0  0  0  0  0  0  0  0  0
   -0.2283    5.9829    0.0000 C   0  0  0  0  0  0  0  0  0  0  0  0
   -0.0715    4.4911    0.0000 O   0  0  0  0  0  0  0  0  0  0  0  0
    0.8864    6.9866    0.0000 C   0  0  0  0  0  0  0  0  0  0  0  0
    2.3130    6.5230    0.0000 O   0  0  0  0  0  0  0  0  0  0  0  0
    3.4277    7.5267    0.0000 P   0  0  0  0  0  0  0  0  0  0  0  0
    4.4314    6.4120    0.0000 O   0  0  0  0  0  0  0  0  0  0  0  0
    2.4240    8.6414    0.0000 O   0  0  0  0  0  0  0  0  0  0  0  0
    4.5424    8.5304    0.0000 O   0  0  0  0  0  0  0  0  0  0  0  0
   -2.3056    7.6651    0.0000 O   0  0  0  0  0  0  0  0  0  0  0  0
   -3.9373    4.8389    0.0000 O   0  0  0  0  0  0  0  0  0  0  0  0
   -1.5000   -2.5981    0.0000 N   0  0  0  0  0  0  0  0  0  0  0  0
  1  2  2  0
  2  3  1  0
  3  4  2  0
  4  5  1  0
  5  6  2  0
  5  7  1  0
  7  8  1  0
  8  9  2  0
 10  7  1  1
 10 11  1  0
 11 12  1  0
 12 13  1  0
 13 14  1  0
 13 15  1  1
 15 16  1  0
 16 17  1  0
 17 18  2  0
 17 19  1  0
 17 20  1  0
 12 21  1  6
 11 22  1  6
  3 23  1  0
  6  1  1  0
  9  4  1  0
 14 10  1  0
M  END
>  <Structure>  (174) 
6EH2

>  <Dataset>  (174) 
PDB

>  <Chain>  (174) 
A

>  <Spatial_Label>  (174) 
DFGin

>  <Dihedral_Label>  (174) 
BLAminus

>  <C_Helix_Label>  (174) 
Chelix-in

>  <Lig_ID>  (174) 
AMP

>  <Lig_Entity_ID>  (174) 
6EH2_3

>  <Lig_Name>  (174) 
ADENOSINE MONOPHOSPHATE

>  <Lig_Formula>  (174) 
C10H14N5O7P

>  <Lig_SMILES>  (174) 
c1nc(c2c(n1)n(cn2)[C@H]3[C@@H]([C@@H]([C@H](O3)COP(=O)(O)O)O)O)N

>  <Lig_MW>  (174) 
347.221

>  <Lig_ChEMBL_ID>  (174) 
['CHEMBL752']

>  <Lig_DrugBank_ID>  (174) 
['DB00131']

>  <Occurence>  (174) 
2.0

>  <Lig_SMILES_Uncharged>  (174) 
Nc1ncnc2c1ncn2[C@@H]1O[C@H](COP(=O)(O)O)[C@@H](O)[C@H]1O

>  <Lig_Conformer>  (174) 
['NaN']

>  <Lig_Of_Interest>  (174) 
['Y']

>  <Lig_Completeness>  (174) 
[1.0]

>  <Lig_Occupancy>  (174) 
[0.83]

>  <Lig_RSCC>  (174) 
[0.883]

>  <Lig_RSR>  (174) 
[0.155]

>  <Lig_RMSZ_Bonds>  (174) 
[0.8]

>  <Lig_RMSZ_Angles>  (174) 
[1.27]

>  <Lig_Alt_Conf>  (174) 
0.0

>  <Title>  (174) 
Crystal Structure of the Protein-Kinase A catalytic subunit from Criteculus Griseus in complex with compounds RKp032 and AMP

>  <Nonpolymer_Entity_Count>  (174) 
2.0

>  <Protein_Entity_Count>  (174) 
2.0

>  <Exp_Method>  (174) 
X-Ray Diffraction

>  <Cryst_Method>  (174) 
Vapor Diffusion, Sitting Drop; 100 Mm Mes-Bis-Tris, 75 Mm Lithium Chloride, 1 Mm Dtt, 0.1 Mm Sodium Edta, 0.25 Mm Mega 8, 0.7 Mm Peptidic Ligand, 2 Mm Amp, 19% V/V Methanol/Water In Reservoir

>  <Deposit_Date>  (174) 
2017-09-12

>  <Resolution>  (174) 
1.76

>  <DOI>  (174) 
https://doi.org/10.1021/acsomega.8b02364

>  <Source_Organism>  (174) 
Cricetulus griseus

>  <R_Free>  (174) 
0.2103

>  <Keywords>  (174) 
Transferase

>  <REMARK_280>  (174) 
 Crystal Solvent Content, Vs (%): 58.27 Matthews Coefficient, Vm (Angstroms**3/Da): 2.95 Crystallization Conditions: 100 Mm Mes-Bis-Tris, 75 Mm Lithium Chloride, 1 Mm Dtt, 0.1 Mm Sodium Edta, 0.25 Mm Mega 8, 0.7 Mm Peptidic Ligand, 2 Mm Amp, 19% V/V Methanol/Water In Reservoir, pH 6.9, Vapor Diffusion, Sitting Drop, Temperature 277.15K 

>  <REMARK_610>  (174) 
nan

>  <pH>  (174) 
6.9

>  <Cryst_Technique>  (174) 
co-crystallized

>  <Sequence>  (174) 
GHMGNAAAAKKGSEQESVKEFLAKAKEEFLKKWESPSQNTAQLDHFDRIKTLGTGSFGRVMLVKHKETGNHYAMKILDKQKVVKLKQIEHTLNEKRILQAVNFPFLVKLEFSFKDNSNLYMVMEYVPGGEMFSHLRRIGRFSEPHARFYAAQIVLTFEYLHSLDLIYRDLKPENLLIDQQGYIQVTDFGFAKRVKGRTWTLCGTPEYLAPEIILSKGYNKAVDWWALGVLIYEMAAGYPPFFADQPIQIYEKIVSGKVRFPSHFSSDLKDLLRNLLQVDLTKRFGNLKNGVNDIKNHKWFATTDWIAIYQRKVEAPFIPKFKGPGDTSNFDDYEEEEIRVSINEKCGKEFTEF

>  <Sequence_Length>  (174) 
353.0

>  <Mutation_Count>  (174) 
0.0

>  <Gene_Name>  (174) 
PKACA

>  <MW>  (174) 
41.194

>  <Name>  (174) 
cAMP-Dependent Protein Kinase Catalytic Subunit Alpha

>  <Mutations>  (174) 
nan

>  <EC_Number>  (174) 
2.7.11.11

>  <Peptidic_Inhibitor>  (174) 
True

>  <Lig_Missing_Atoms>  (174) 
['No']

>  <PDBbind_Resolution>  (174) 
nan

>  <PDBbind_Release_Year>  (174) 
nan

>  <PDBbind_Comment>  (174) 
nan

>  <PDBbind_Uniprot_Id>  (174) 
nan

>  <PDBbind_Protein_Name>  (174) 
nan

>  <PDBbind_-Logkd/Ki>  (174) 
nan

>  <PDBbind_Kd/Ki>  (174) 
nan

>  <PDBbind_Kd_Or_Ki_Or_Ic50>  (174) 
nan

>  <PDBbind_Relation>  (174) 
nan

>  <PDBbind_Value>  (174) 
nan

>  <PDBbind_Unit>  (174) 
nan

>  <PDBbind_Standard_Value>  (174) 
nan

>  <PDBbind_Standard_Unit>  (174) 
nan

>  <PDB_Chain>  (174) 
['A']

>  <Num_Ligs>  (174) 
[1.0]

>  <Orthosteric>  (174) 
[1.0]

>  <Allosteric>  (174) 
[0.0]

>  <Pockets_Assigned>  (174) 
['A']

>  <Multisite>  (174) 
[False]

>  <Same_Number>  (174) 
True

>  <Same_Binding_Site>  (174) 
True

>  <Same_Orientation>  (174) 
True

>  <Lig_Order_in_.pdb>  (174) 
Orthosteric

$$$$

     RDKit          2D

 24 26  0  0  0  0  0  0  0  0999 V2000
   11.2500    3.8971    0.0000 C   0  0  0  0  0  0  0  0  0  0  0  0
   12.0000    2.5981    0.0000 C   0  0  0  0  0  0  0  0  0  0  0  0
   11.2500    1.2990    0.0000 C   0  0  0  0  0  0  0  0  0  0  0  0
    9.7500    1.2990    0.0000 C   0  0  0  0  0  0  0  0  0  0  0  0
    9.0000    2.5981    0.0000 C   0  0  0  0  0  0  0  0  0  0  0  0
    9.7500    3.8971    0.0000 C   0  0  0  0  0  0  0  0  0  0  0  0
    9.0000    0.0000    0.0000 C   0  0  0  0  0  0  0  0  0  0  0  0
    7.5000    0.0000    0.0000 N   0  0  0  0  0  0  0  0  0  0  0  0
    6.7500   -1.2990    0.0000 C   0  0  0  0  0  0  0  0  0  0  0  0
    5.2500   -1.2990    0.0000 C   0  0  0  0  0  0  0  0  0  0  0  0
    4.5000   -2.5981    0.0000 N   0  0  0  0  0  0  0  0  0  0  0  0
    3.0000   -2.5981    0.0000 S   0  0  0  0  0  0  0  0  0  0  0  0
    3.0000   -4.0981    0.0000 O   0  0  0  0  0  0  0  0  0  0  0  0
    3.0000   -1.0981    0.0000 O   0  0  0  0  0  0  0  0  0  0  0  0
    1.5000   -2.5981    0.0000 C   0  0  0  0  0  0  0  0  0  0  0  0
    0.7500   -3.8971    0.0000 C   0  0  0  0  0  0  0  0  0  0  0  0
   -0.7500   -3.8971    0.0000 C   0  0  0  0  0  0  0  0  0  0  0  0
   -1.5000   -2.5981    0.0000 C   0  0  0  0  0  0  0  0  0  0  0  0
   -0.7500   -1.2990    0.0000 C   0  0  0  0  0  0  0  0  0  0  0  0
    0.7500   -1.2990    0.0000 C   0  0  0  0  0  0  0  0  0  0  0  0
    1.5000    0.0000    0.0000 C   0  0  0  0  0  0  0  0  0  0  0  0
    0.7500    1.2990    0.0000 C   0  0  0  0  0  0  0  0  0  0  0  0
   -0.7500    1.2990    0.0000 N   0  0  0  0  0  0  0  0  0  0  0  0
   -1.5000    0.0000    0.0000 C   0  0  0  0  0  0  0  0  0  0  0  0
  1  2  2  0
  2  3  1  0
  3  4  2  0
  4  5  1  0
  5  6  2  0
  4  7  1  0
  7  8  1  0
  8  9  1  0
  9 10  1  0
 10 11  1  0
 11 12  1  0
 12 13  2  0
 12 14  2  0
 12 15  1  0
 15 16  2  0
 16 17  1  0
 17 18  2  0
 18 19  1  0
 19 20  2  0
 20 21  1  0
 21 22  2  0
 22 23  1  0
 23 24  2  0
  6  1  1  0
 20 15  1  0
 24 19  1  0
M  END
>  <Structure>  (175) 
6EH3

>  <Dataset>  (175) 
PDB

>  <Chain>  (175) 
A

>  <Spatial_Label>  (175) 
DFGin

>  <Dihedral_Label>  (175) 
ABAminus

>  <C_Helix_Label>  (175) 
Chelix-in

>  <Lig_ID>  (175) 
B4Z

>  <Lig_Entity_ID>  (175) 
6EH3_3

>  <Lig_Name>  (175) 
~{N}-[2-[(phenylmethyl)amino]ethyl]isoquinoline-5-sulfonamide

>  <Lig_Formula>  (175) 
C18H19N3O2S

>  <Lig_SMILES>  (175) 
c1ccc(cc1)CNCCNS(=O)(=O)c2cccc3c2ccnc3

>  <Lig_MW>  (175) 
341.427

>  <Lig_ChEMBL_ID>  (175) 
['CHEMBL148132']

>  <Lig_DrugBank_ID>  (175) 
nan

>  <Occurence>  (175) 
1.0

>  <Lig_SMILES_Uncharged>  (175) 
O=S(=O)(NCCNCc1ccccc1)c1cccc2cnccc12

>  <Lig_Conformer>  (175) 
['NaN']

>  <Lig_Of_Interest>  (175) 
['Y']

>  <Lig_Completeness>  (175) 
[1.0]

>  <Lig_Occupancy>  (175) 
[1.0]

>  <Lig_RSCC>  (175) 
[0.948]

>  <Lig_RSR>  (175) 
[0.139]

>  <Lig_RMSZ_Bonds>  (175) 
[0.38]

>  <Lig_RMSZ_Angles>  (175) 
[0.56]

>  <Lig_Alt_Conf>  (175) 
0.0

>  <Title>  (175) 
Crystal Structure of the Protein-Kinase A catalytic subunit from Criteculus Griseus in complex with compounds RKp120 and RKp190

>  <Nonpolymer_Entity_Count>  (175) 
1.0

>  <Protein_Entity_Count>  (175) 
2.0

>  <Exp_Method>  (175) 
X-Ray Diffraction

>  <Cryst_Method>  (175) 
Vapor Diffusion, Sitting Drop; 100 Mm Mes-Bis-Tris, 75 Mm Lithium Chloride, 1 Mm Dtt, 0.1 Mm Sodium Edta, 0.25 Mm Mega 8, 0.7 Mm Peptidic Ligand, 5 Mm Rkp190, 19% V/V Methanol/Water In Reservoir

>  <Deposit_Date>  (175) 
2017-09-12

>  <Resolution>  (175) 
1.95

>  <DOI>  (175) 
nan

>  <Source_Organism>  (175) 
Cricetulus griseus

>  <R_Free>  (175) 
0.2189

>  <Keywords>  (175) 
Transferase

>  <REMARK_280>  (175) 
 Crystal Solvent Content, Vs (%): 57.83 Matthews Coefficient, Vm (Angstroms**3/Da): 2.92 Crystallization Conditions: 100 Mm Mes-Bis-Tris, 75 Mm Lithium Chloride, 1 Mm Dtt, 0.1 Mm Sodium Edta, 0.25 Mm Mega 8, 0.7 Mm Peptidic Ligand, 5 Mm Rkp190, 19% V/V Methanol/Water In Reservoir, pH 6.9, Vapor Diffusion, Sitting Drop, Temperature 277.15K 

>  <REMARK_610>  (175) 
nan

>  <pH>  (175) 
6.9

>  <Cryst_Technique>  (175) 
nan

>  <Sequence>  (175) 
GHMGNAAAAKKGSEQESVKEFLAKAKEEFLKKWESPSQNTAQLDHFDRIKTLGTGSFGRVMLVKHKETGNHYAMKILDKQKVVKLKQIEHTLNEKRILQAVNFPFLVKLEFSFKDNSNLYMVMEYVPGGEMFSHLRRIGRFSEPHARFYAAQIVLTFEYLHSLDLIYRDLKPENLLIDQQGYIQVTDFGFAKRVKGRTWTLCGTPEYLAPEIILSKGYNKAVDWWALGVLIYEMAAGYPPFFADQPIQIYEKIVSGKVRFPSHFSSDLKDLLRNLLQVDLTKRFGNLKNGVNDIKNHKWFATTDWIAIYQRKVEAPFIPKFKGPGDTSNFDDYEEEEIRVSINEKCGKEFTEF

>  <Sequence_Length>  (175) 
353.0

>  <Mutation_Count>  (175) 
0.0

>  <Gene_Name>  (175) 
PKACA

>  <MW>  (175) 
41.133

>  <Name>  (175) 
cAMP-Dependent Protein Kinase Catalytic Subunit Alpha

>  <Mutations>  (175) 
nan

>  <EC_Number>  (175) 
2.7.11.11

>  <Peptidic_Inhibitor>  (175) 
True

>  <Lig_Missing_Atoms>  (175) 
['No']

>  <PDBbind_Resolution>  (175) 
nan

>  <PDBbind_Release_Year>  (175) 
nan

>  <PDBbind_Comment>  (175) 
nan

>  <PDBbind_Uniprot_Id>  (175) 
nan

>  <PDBbind_Protein_Name>  (175) 
nan

>  <PDBbind_-Logkd/Ki>  (175) 
nan

>  <PDBbind_Kd/Ki>  (175) 
nan

>  <PDBbind_Kd_Or_Ki_Or_Ic50>  (175) 
nan

>  <PDBbind_Relation>  (175) 
nan

>  <PDBbind_Value>  (175) 
nan

>  <PDBbind_Unit>  (175) 
nan

>  <PDBbind_Standard_Value>  (175) 
nan

>  <PDBbind_Standard_Unit>  (175) 
nan

>  <PDB_Chain>  (175) 
['A']

>  <Num_Ligs>  (175) 
[1.0]

>  <Orthosteric>  (175) 
[1.0]

>  <Allosteric>  (175) 
[0.0]

>  <Pockets_Assigned>  (175) 
['A']

>  <Multisite>  (175) 
[False]

>  <Same_Number>  (175) 
True

>  <Same_Binding_Site>  (175) 
True

>  <Same_Orientation>  (175) 
True

>  <Lig_Order_in_.pdb>  (175) 
Orthosteric

$$$$

     RDKit          2D

 20 22  0  0  0  0  0  0  0  0999 V2000
    0.7500   -3.8971    0.0000 C   0  0  0  0  0  0  0  0  0  0  0  0
    1.5000   -2.5981    0.0000 C   0  0  0  0  0  0  0  0  0  0  0  0
    0.7500   -1.2990    0.0000 C   0  0  0  0  0  0  0  0  0  0  0  0
    1.5000    0.0000    0.0000 C   0  0  0  0  0  0  0  0  0  0  0  0
    0.7500    1.2990    0.0000 N   0  0  0  0  0  0  0  0  0  0  0  0
   -0.7500    1.2990    0.0000 C   0  0  0  0  0  0  0  0  0  0  0  0
   -1.5000    0.0000    0.0000 C   0  0  0  0  0  0  0  0  0  0  0  0
   -0.7500   -1.2990    0.0000 C   0  0  0  0  0  0  0  0  0  0  0  0
   -1.5000   -2.5981    0.0000 C   0  0  0  0  0  0  0  0  0  0  0  0
   -0.7500   -3.8971    0.0000 C   0  0  0  0  0  0  0  0  0  0  0  0
   -3.0000   -2.5981    0.0000 S   0  0  0  0  0  0  0  0  0  0  0  0
   -3.0000   -4.0981    0.0000 O   0  0  0  0  0  0  0  0  0  0  0  0
   -3.0000   -1.0981    0.0000 O   0  0  0  0  0  0  0  0  0  0  0  0
   -4.5000   -2.5981    0.0000 N   0  0  0  0  0  0  0  0  0  0  0  0
   -5.1508   -3.9495    0.0000 C   0  0  0  0  0  0  0  0  0  0  0  0
   -6.6132   -4.2833    0.0000 C   0  0  0  0  0  0  0  0  0  0  0  0
   -7.7860   -3.3481    0.0000 C   0  0  0  0  0  0  0  0  0  0  0  0
   -7.7860   -1.8481    0.0000 N   0  0  0  0  0  0  0  0  0  0  0  0
   -6.6132   -0.9128    0.0000 C   0  0  0  0  0  0  0  0  0  0  0  0
   -5.1508   -1.2466    0.0000 C   0  0  0  0  0  0  0  0  0  0  0  0
  1  2  2  0
  2  3  1  0
  3  4  2  0
  4  5  1  0
  5  6  2  0
  6  7  1  0
  7  8  2  0
  8  9  1  0
  9 10  2  0
  9 11  1  0
 11 12  2  0
 11 13  2  0
 11 14  1  0
 14 15  1  0
 15 16  1  0
 16 17  1  0
 17 18  1  0
 18 19  1  0
 19 20  1  0
 10  1  1  0
  8  3  1  0
 20 14  1  0
M  END
>  <Structure>  (176) 
6EM2

>  <Dataset>  (176) 
PDB

>  <Chain>  (176) 
A

>  <Spatial_Label>  (176) 
DFGin

>  <Dihedral_Label>  (176) 
BLAminus

>  <C_Helix_Label>  (176) 
Chelix-in

>  <Lig_ID>  (176) 
M77

>  <Lig_Entity_ID>  (176) 
6EM2_2

>  <Lig_Name>  (176) 
5-(1,4-DIAZEPAN-1-SULFONYL)ISOQUINOLINE

>  <Lig_Formula>  (176) 
C14H17N3O2S

>  <Lig_SMILES>  (176) 
c1cc2cnccc2c(c1)S(=O)(=O)N3CCCNCC3

>  <Lig_MW>  (176) 
291.369

>  <Lig_ChEMBL_ID>  (176) 
['CHEMBL38380']

>  <Lig_DrugBank_ID>  (176) 
['DB08162']

>  <Occurence>  (176) 
10.0

>  <Lig_SMILES_Uncharged>  (176) 
O=S(=O)(c1cccc2cnccc12)N1CCCNCC1

>  <Lig_Conformer>  (176) 
['NaN']

>  <Lig_Of_Interest>  (176) 
['Y']

>  <Lig_Completeness>  (176) 
[1.0]

>  <Lig_Occupancy>  (176) 
[0.85]

>  <Lig_RSCC>  (176) 
[0.962]

>  <Lig_RSR>  (176) 
[0.082]

>  <Lig_RMSZ_Bonds>  (176) 
[0.51]

>  <Lig_RMSZ_Angles>  (176) 
[0.65]

>  <Lig_Alt_Conf>  (176) 
0.0

>  <Title>  (176) 
Crystal structure of the Protein-Kinase A catalytic subunit from Criteculus Griseus in complex with Fasudil

>  <Nonpolymer_Entity_Count>  (176) 
2.0

>  <Protein_Entity_Count>  (176) 
1.0

>  <Exp_Method>  (176) 
X-Ray Diffraction

>  <Cryst_Method>  (176) 
Vapor Diffusion, Sitting Drop; 100 Mm Mes-Bis-Tris, 75 Mm Lithium Chloride, 1 Mm Dtt, 0.1 Mm Sodium Edta, 0.25 Mm Mega 8, 23% V/V Methanol/Water In Reservoir

>  <Deposit_Date>  (176) 
2017-10-01

>  <Resolution>  (176) 
1.3

>  <DOI>  (176) 
https://doi.org/10.1021/acsomega.8b02364

>  <Source_Organism>  (176) 
Cricetulus griseus

>  <R_Free>  (176) 
0.1525

>  <Keywords>  (176) 
Transferase

>  <REMARK_280>  (176) 
 Crystal Solvent Content, Vs (%): 47.83 Matthews Coefficient, Vm (Angstroms**3/Da): 2.36 Crystallization Conditions: 100 Mm Mes-Bis-Tris, 75 Mm Lithium Chloride, 1 Mm Dtt, 0.1 Mm Sodium Edta, 0.25 Mm Mega 8, 23% V/V Methanol/Water In Reservoir, pH 6.9, Vapor Diffusion, Sitting Drop, Temperature 277.15K 

>  <REMARK_610>  (176) 
nan

>  <pH>  (176) 
6.9

>  <Cryst_Technique>  (176) 
soaked

>  <Sequence>  (176) 
GHMGNAAAAKKGSEQESVKEFLAKAKEEFLKKWESPSQNTAQLDHFDRIKTLGTGSFGRVMLVKHKETGNHYAMKILDKQKVVKLKQIEHTLNEKRILQAVNFPFLVKLEFSFKDNSNLYMVMEYVPGGEMFSHLRRIGRFSEPHARFYAAQIVLTFEYLHSLDLIYRDLKPENLLIDQQGYIQVTDFGFAKRVKGRTWTLCGTPEYLAPEIILSKGYNKAVDWWALGVLIYEMAAGYPPFFADQPIQIYEKIVSGKVRFPSHFSSDLKDLLRNLLQVDLTKRFGNLKNGVNDIKNHKWFATTDWIAIYQRKVEAPFIPKFKGPGDTSNFDDYEEEEIRVSINEKCGKEFTEF

>  <Sequence_Length>  (176) 
353.0

>  <Mutation_Count>  (176) 
0.0

>  <Gene_Name>  (176) 
PKACA

>  <MW>  (176) 
41.194

>  <Name>  (176) 
cAMP-Dependent Protein Kinase Catalytic Subunit Alpha

>  <Mutations>  (176) 
nan

>  <EC_Number>  (176) 
2.7.11.11

>  <Peptidic_Inhibitor>  (176) 
False

>  <Lig_Missing_Atoms>  (176) 
['No']

>  <PDBbind_Resolution>  (176) 
nan

>  <PDBbind_Release_Year>  (176) 
nan

>  <PDBbind_Comment>  (176) 
nan

>  <PDBbind_Uniprot_Id>  (176) 
nan

>  <PDBbind_Protein_Name>  (176) 
nan

>  <PDBbind_-Logkd/Ki>  (176) 
nan

>  <PDBbind_Kd/Ki>  (176) 
nan

>  <PDBbind_Kd_Or_Ki_Or_Ic50>  (176) 
nan

>  <PDBbind_Relation>  (176) 
nan

>  <PDBbind_Value>  (176) 
nan

>  <PDBbind_Unit>  (176) 
nan

>  <PDBbind_Standard_Value>  (176) 
nan

>  <PDBbind_Standard_Unit>  (176) 
nan

>  <PDB_Chain>  (176) 
['A']

>  <Num_Ligs>  (176) 
[1.0]

>  <Orthosteric>  (176) 
[1.0]

>  <Allosteric>  (176) 
[0.0]

>  <Pockets_Assigned>  (176) 
['A']

>  <Multisite>  (176) 
[False]

>  <Same_Number>  (176) 
True

>  <Same_Binding_Site>  (176) 
True

>  <Same_Orientation>  (176) 
True

>  <Lig_Order_in_.pdb>  (176) 
Orthosteric

$$$$

     RDKit          2D

 27 29  0  0  0  0  0  0  0  0999 V2000
    1.5000    0.0000    0.0000 C   0  0  0  0  0  0  0  0  0  0  0  0
    0.7500   -1.2990    0.0000 N   0  0  0  0  0  0  0  0  0  0  0  0
   -0.7500   -1.2990    0.0000 C   0  0  0  0  0  0  0  0  0  0  0  0
   -1.5000    0.0000    0.0000 C   0  0  0  0  0  0  0  0  0  0  0  0
   -0.7500    1.2990    0.0000 C   0  0  0  0  0  0  0  0  0  0  0  0
    0.7500    1.2990    0.0000 N   0  0  0  0  0  0  0  0  0  0  0  0
   -1.7537    2.4138    0.0000 N   0  0  0  0  0  0  0  0  0  0  0  0
   -3.1240    1.8037    0.0000 C   0  0  0  0  0  0  0  0  0  0  0  0
   -2.9672    0.3119    0.0000 N   0  0  0  0  0  0  0  0  0  0  0  0
   -1.4418    3.8810    0.0000 C   0  0  0  0  0  0  0  0  0  0  0  0
   -2.4455    4.9957    0.0000 C   0  0  0  0  0  0  0  0  0  0  0  0
   -1.6955    6.2947    0.0000 C   0  0  0  0  0  0  0  0  0  0  0  0
   -0.2283    5.9829    0.0000 C   0  0  0  0  0  0  0  0  0  0  0  0
   -0.0715    4.4911    0.0000 O   0  0  0  0  0  0  0  0  0  0  0  0
    0.8864    6.9866    0.0000 C   0  0  0  0  0  0  0  0  0  0  0  0
    2.3130    6.5230    0.0000 O   0  0  0  0  0  0  0  0  0  0  0  0
    3.4277    7.5267    0.0000 P   0  0  0  0  0  5  0  0  0  0  0  0
    2.4240    8.6414    0.0000 O   0  0  0  0  0  0  0  0  0  0  0  0
    4.4314    6.4120    0.0000 O   0  0  0  0  0  0  0  0  0  0  0  0
    4.5424    8.5304    0.0000 O   0  0  0  0  0  0  0  0  0  0  0  0
    4.2306    9.9976    0.0000 P   0  0  0  0  0  0  0  0  0  0  0  0
    5.6978   10.3095    0.0000 O   0  0  0  0  0  0  0  0  0  0  0  0
    2.7633    9.6858    0.0000 O   0  0  0  0  0  0  0  0  0  0  0  0
    3.9187   11.4649    0.0000 O   0  0  0  0  0  0  0  0  0  0  0  0
   -2.3056    7.6651    0.0000 O   0  0  0  0  0  0  0  0  0  0  0  0
   -3.9373    4.8389    0.0000 O   0  0  0  0  0  0  0  0  0  0  0  0
   -1.5000   -2.5981    0.0000 N   0  0  0  0  0  0  0  0  0  0  0  0
  1  2  2  0
  2  3  1  0
  3  4  2  0
  4  5  1  0
  5  6  2  0
  5  7  1  0
  7  8  1  0
  8  9  2  0
 10  7  1  1
 10 11  1  0
 11 12  1  0
 12 13  1  0
 13 14  1  0
 13 15  1  1
 15 16  1  0
 16 17  1  0
 17 18  2  0
 17 19  1  6
 17 20  1  0
 20 21  1  0
 21 22  2  0
 21 23  1  0
 21 24  1  0
 12 25  1  6
 11 26  1  6
  3 27  1  0
  6  1  1  0
  9  4  1  0
 14 10  1  0
M  END
>  <Structure>  (177) 
6EM6

>  <Dataset>  (177) 
PDB

>  <Chain>  (177) 
A

>  <Spatial_Label>  (177) 
DFGin

>  <Dihedral_Label>  (177) 
BLAminus

>  <C_Helix_Label>  (177) 
Chelix-in

>  <Lig_ID>  (177) 
ADP

>  <Lig_Entity_ID>  (177) 
6EM6_3

>  <Lig_Name>  (177) 
ADENOSINE-5'-DIPHOSPHATE

>  <Lig_Formula>  (177) 
C10H15N5O10P2

>  <Lig_SMILES>  (177) 
c1nc(c2c(n1)n(cn2)[C@H]3[C@@H]([C@@H]([C@H](O3)CO[P@](=O)(O)OP(=O)(O)O)O)O)N

>  <Lig_MW>  (177) 
427.201

>  <Lig_ChEMBL_ID>  (177) 
['CHEMBL14830']

>  <Lig_DrugBank_ID>  (177) 
['DB16833']

>  <Occurence>  (177) 
19.0

>  <Lig_SMILES_Uncharged>  (177) 
Nc1ncnc2c1ncn2[C@@H]1O[C@H](CO[P@](=O)(O)OP(=O)(O)O)[C@@H](O)[C@H]1O

>  <Lig_Conformer>  (177) 
['NaN']

>  <Lig_Of_Interest>  (177) 
['Y']

>  <Lig_Completeness>  (177) 
[1.0]

>  <Lig_Occupancy>  (177) 
[1.0]

>  <Lig_RSCC>  (177) 
[0.97]

>  <Lig_RSR>  (177) 
[0.061]

>  <Lig_RMSZ_Bonds>  (177) 
[0.81]

>  <Lig_RMSZ_Angles>  (177) 
[1.22]

>  <Lig_Alt_Conf>  (177) 
0.0

>  <Title>  (177) 
Crystal structure of the Protein-Kinase A catalytic subunit from Criteculus Griseus in complex with compounds RKp032 and ADP

>  <Nonpolymer_Entity_Count>  (177) 
4.0

>  <Protein_Entity_Count>  (177) 
2.0

>  <Exp_Method>  (177) 
X-Ray Diffraction

>  <Cryst_Method>  (177) 
Vapor Diffusion, Sitting Drop; 100 Mm Mes-Bis-Tris, 55 Mm Lithium Chloride, 10 Mm Magnesium Chloride, 1 Mm Dtt, 0.1 Mm Sodium Edta, 0.25 Mm Mega 8, 0.7 Mm Peptidic Ligand, 2 Mm Adp, 16% V/V Methanol/Water In Reservoir

>  <Deposit_Date>  (177) 
2017-10-01

>  <Resolution>  (177) 
1.64

>  <DOI>  (177) 
https://doi.org/10.1021/acsomega.8b02364

>  <Source_Organism>  (177) 
Cricetulus griseus

>  <R_Free>  (177) 
0.1909

>  <Keywords>  (177) 
Transferase

>  <REMARK_280>  (177) 
 Crystal Solvent Content, Vs (%): 52.45 Matthews Coefficient, Vm (Angstroms**3/Da): 2.59 Crystallization Conditions: 100 Mm Mes-Bis-Tris, 55 Mm Lithium Chloride, 10 Mm Magnesium Chloride, 1 Mm Dtt, 0.1 Mm Sodium Edta, 0.25 Mm Mega 8, 0.7 Mm Peptidic Ligand, 2 Mm Adp, 16% V/V Methanol/Water In Reservoir, pH 6.9, Vapor Diffusion, Sitting Drop, Temperature 277.15K 

>  <REMARK_610>  (177) 
nan

>  <pH>  (177) 
6.9

>  <Cryst_Technique>  (177) 
co-crystallized

>  <Sequence>  (177) 
GHMGNAAAAKKGSEQESVKEFLAKAKEEFLKKWESPSQNTAQLDHFDRIKTLGTGSFGRVMLVKHKETGNHYAMKILDKQKVVKLKQIEHTLNEKRILQAVNFPFLVKLEFSFKDNSNLYMVMEYVPGGEMFSHLRRIGRFSEPHARFYAAQIVLTFEYLHSLDLIYRDLKPENLLIDQQGYIQVTDFGFAKRVKGRTWTLCGTPEYLAPEIILSKGYNKAVDWWALGVLIYEMAAGYPPFFADQPIQIYEKIVSGKVRFPSHFSSDLKDLLRNLLQVDLTKRFGNLKNGVNDIKNHKWFATTDWIAIYQRKVEAPFIPKFKGPGDTSNFDDYEEEEIRVSINEKCGKEFTEF

>  <Sequence_Length>  (177) 
353.0

>  <Mutation_Count>  (177) 
0.0

>  <Gene_Name>  (177) 
PKACA

>  <MW>  (177) 
41.194

>  <Name>  (177) 
cAMP-Dependent Protein Kinase Catalytic Subunit Alpha

>  <Mutations>  (177) 
nan

>  <EC_Number>  (177) 
2.7.11.11

>  <Peptidic_Inhibitor>  (177) 
True

>  <Lig_Missing_Atoms>  (177) 
['No']

>  <PDBbind_Resolution>  (177) 
nan

>  <PDBbind_Release_Year>  (177) 
nan

>  <PDBbind_Comment>  (177) 
nan

>  <PDBbind_Uniprot_Id>  (177) 
nan

>  <PDBbind_Protein_Name>  (177) 
nan

>  <PDBbind_-Logkd/Ki>  (177) 
nan

>  <PDBbind_Kd/Ki>  (177) 
nan

>  <PDBbind_Kd_Or_Ki_Or_Ic50>  (177) 
nan

>  <PDBbind_Relation>  (177) 
nan

>  <PDBbind_Value>  (177) 
nan

>  <PDBbind_Unit>  (177) 
nan

>  <PDBbind_Standard_Value>  (177) 
nan

>  <PDBbind_Standard_Unit>  (177) 
nan

>  <PDB_Chain>  (177) 
['A']

>  <Num_Ligs>  (177) 
[1.0]

>  <Orthosteric>  (177) 
[1.0]

>  <Allosteric>  (177) 
[0.0]

>  <Pockets_Assigned>  (177) 
['A']

>  <Multisite>  (177) 
[False]

>  <Same_Number>  (177) 
True

>  <Same_Binding_Site>  (177) 
True

>  <Same_Orientation>  (177) 
True

>  <Lig_Order_in_.pdb>  (177) 
Orthosteric

$$$$

     RDKit          2D

 27 29  0  0  0  0  0  0  0  0999 V2000
    1.5000    0.0000    0.0000 C   0  0  0  0  0  0  0  0  0  0  0  0
    0.7500   -1.2990    0.0000 N   0  0  0  0  0  0  0  0  0  0  0  0
   -0.7500   -1.2990    0.0000 C   0  0  0  0  0  0  0  0  0  0  0  0
   -1.5000    0.0000    0.0000 C   0  0  0  0  0  0  0  0  0  0  0  0
   -0.7500    1.2990    0.0000 C   0  0  0  0  0  0  0  0  0  0  0  0
    0.7500    1.2990    0.0000 N   0  0  0  0  0  0  0  0  0  0  0  0
   -1.7537    2.4138    0.0000 N   0  0  0  0  0  0  0  0  0  0  0  0
   -3.1240    1.8037    0.0000 C   0  0  0  0  0  0  0  0  0  0  0  0
   -2.9672    0.3119    0.0000 N   0  0  0  0  0  0  0  0  0  0  0  0
   -1.4418    3.8810    0.0000 C   0  0  0  0  0  0  0  0  0  0  0  0
   -2.4455    4.9957    0.0000 C   0  0  0  0  0  0  0  0  0  0  0  0
   -1.6955    6.2947    0.0000 C   0  0  0  0  0  0  0  0  0  0  0  0
   -0.2283    5.9829    0.0000 C   0  0  0  0  0  0  0  0  0  0  0  0
   -0.0715    4.4911    0.0000 O   0  0  0  0  0  0  0  0  0  0  0  0
    0.8864    6.9866    0.0000 C   0  0  0  0  0  0  0  0  0  0  0  0
    2.3130    6.5230    0.0000 O   0  0  0  0  0  0  0  0  0  0  0  0
    3.4277    7.5267    0.0000 P   0  0  0  0  0  5  0  0  0  0  0  0
    2.4240    8.6414    0.0000 O   0  0  0  0  0  0  0  0  0  0  0  0
    4.4314    6.4120    0.0000 O   0  0  0  0  0  0  0  0  0  0  0  0
    4.5424    8.5304    0.0000 O   0  0  0  0  0  0  0  0  0  0  0  0
    4.2306    9.9976    0.0000 P   0  0  0  0  0  0  0  0  0  0  0  0
    5.6978   10.3095    0.0000 O   0  0  0  0  0  0  0  0  0  0  0  0
    2.7633    9.6858    0.0000 O   0  0  0  0  0  0  0  0  0  0  0  0
    3.9187   11.4649    0.0000 O   0  0  0  0  0  0  0  0  0  0  0  0
   -2.3056    7.6651    0.0000 O   0  0  0  0  0  0  0  0  0  0  0  0
   -3.9373    4.8389    0.0000 O   0  0  0  0  0  0  0  0  0  0  0  0
   -1.5000   -2.5981    0.0000 N   0  0  0  0  0  0  0  0  0  0  0  0
  1  2  2  0
  2  3  1  0
  3  4  2  0
  4  5  1  0
  5  6  2  0
  5  7  1  0
  7  8  1  0
  8  9  2  0
 10  7  1  1
 10 11  1  0
 11 12  1  0
 12 13  1  0
 13 14  1  0
 13 15  1  1
 15 16  1  0
 16 17  1  0
 17 18  2  0
 17 19  1  6
 17 20  1  0
 20 21  1  0
 21 22  2  0
 21 23  1  0
 21 24  1  0
 12 25  1  6
 11 26  1  6
  3 27  1  0
  6  1  1  0
  9  4  1  0
 14 10  1  0
M  END
>  <Structure>  (178) 
6EM7

>  <Dataset>  (178) 
PDB

>  <Chain>  (178) 
A

>  <Spatial_Label>  (178) 
DFGin

>  <Dihedral_Label>  (178) 
BLAminus

>  <C_Helix_Label>  (178) 
Chelix-in

>  <Lig_ID>  (178) 
ADP

>  <Lig_Entity_ID>  (178) 
6EM7_4

>  <Lig_Name>  (178) 
ADENOSINE-5'-DIPHOSPHATE

>  <Lig_Formula>  (178) 
C10H15N5O10P2

>  <Lig_SMILES>  (178) 
c1nc(c2c(n1)n(cn2)[C@H]3[C@@H]([C@@H]([C@H](O3)CO[P@](=O)(O)OP(=O)(O)O)O)O)N

>  <Lig_MW>  (178) 
427.201

>  <Lig_ChEMBL_ID>  (178) 
['CHEMBL14830']

>  <Lig_DrugBank_ID>  (178) 
['DB16833']

>  <Occurence>  (178) 
19.0

>  <Lig_SMILES_Uncharged>  (178) 
Nc1ncnc2c1ncn2[C@@H]1O[C@H](CO[P@](=O)(O)OP(=O)(O)O)[C@@H](O)[C@H]1O

>  <Lig_Conformer>  (178) 
['NaN']

>  <Lig_Of_Interest>  (178) 
['Y']

>  <Lig_Completeness>  (178) 
[0.8519]

>  <Lig_Occupancy>  (178) 
[0.8519]

>  <Lig_RSCC>  (178) 
[0.93]

>  <Lig_RSR>  (178) 
[0.082]

>  <Lig_RMSZ_Bonds>  (178) 
[0.89]

>  <Lig_RMSZ_Angles>  (178) 
[1.18]

>  <Lig_Alt_Conf>  (178) 
0.0

>  <Title>  (178) 
Crystal Structure of the Protein-Kinase A catalytic subunit from Criteculus Griseus in complex with compounds RKp120 and ADP

>  <Nonpolymer_Entity_Count>  (178) 
4.0

>  <Protein_Entity_Count>  (178) 
2.0

>  <Exp_Method>  (178) 
X-Ray Diffraction

>  <Cryst_Method>  (178) 
Vapor Diffusion, Sitting Drop; 100 Mm Mes-Bis-Tris, 55 Mm Lithium Chloride, 10 Mm Magnesium Chloride, 1 Mm Dtt, 0.1 Mm Sodium Edta, 0.25 Mm Mega 8, 0.7 Mm Peptidic Ligand, 5 Mm Adp, 20% V/V Methanol/Water In Reservoir

>  <Deposit_Date>  (178) 
2017-10-01

>  <Resolution>  (178) 
1.238

>  <DOI>  (178) 
https://doi.org/10.1021/acsomega.8b02364

>  <Source_Organism>  (178) 
Cricetulus griseus

>  <R_Free>  (178) 
0.1565

>  <Keywords>  (178) 
Transferase

>  <REMARK_280>  (178) 
 Crystal Solvent Content, Vs (%): 56.60 Matthews Coefficient, Vm (Angstroms**3/Da): 2.83 Crystallization Conditions: 100 Mm Mes-Bis-Tris, 55 Mm Lithium Chloride, 10 Mm Magnesium Chloride, 1 Mm Dtt, 0.1 Mm Sodium Edta, 0.25 Mm Mega 8, 0.7 Mm Peptidic Ligand, 5 Mm Adp, 20% V/V Methanol/Water In Reservoir, pH 6.9, Vapor Diffusion, Sitting Drop, Temperature 277.15K 

>  <REMARK_610>  (178) 
  ADP A 403 RIP D 101 

>  <pH>  (178) 
6.9

>  <Cryst_Technique>  (178) 
co-crystallized

>  <Sequence>  (178) 
GHMGNAAAAKKGSEQESVKEFLAKAKEEFLKKWESPSQNTAQLDHFDRIKTLGTGSFGRVMLVKHKETGNHYAMKILDKQKVVKLKQIEHTLNEKRILQAVNFPFLVKLEFSFKDNSNLYMVMEYVPGGEMFSHLRRIGRFSEPHARFYAAQIVLTFEYLHSLDLIYRDLKPENLLIDQQGYIQVTDFGFAKRVKGRTWTLCGTPEYLAPEIILSKGYNKAVDWWALGVLIYEMAAGYPPFFADQPIQIYEKIVSGKVRFPSHFSSDLKDLLRNLLQVDLTKRFGNLKNGVNDIKNHKWFATTDWIAIYQRKVEAPFIPKFKGPGDTSNFDDYEEEEIRVSINEKCGKEFTEF

>  <Sequence_Length>  (178) 
353.0

>  <Mutation_Count>  (178) 
0.0

>  <Gene_Name>  (178) 
PKACA

>  <MW>  (178) 
41.114

>  <Name>  (178) 
cAMP-Dependent Protein Kinase Catalytic Subunit Alpha

>  <Mutations>  (178) 
nan

>  <EC_Number>  (178) 
2.7.11.11

>  <Peptidic_Inhibitor>  (178) 
True

>  <Lig_Missing_Atoms>  (178) 
['No']

>  <PDBbind_Resolution>  (178) 
nan

>  <PDBbind_Release_Year>  (178) 
nan

>  <PDBbind_Comment>  (178) 
nan

>  <PDBbind_Uniprot_Id>  (178) 
nan

>  <PDBbind_Protein_Name>  (178) 
nan

>  <PDBbind_-Logkd/Ki>  (178) 
nan

>  <PDBbind_Kd/Ki>  (178) 
nan

>  <PDBbind_Kd_Or_Ki_Or_Ic50>  (178) 
nan

>  <PDBbind_Relation>  (178) 
nan

>  <PDBbind_Value>  (178) 
nan

>  <PDBbind_Unit>  (178) 
nan

>  <PDBbind_Standard_Value>  (178) 
nan

>  <PDBbind_Standard_Unit>  (178) 
nan

>  <PDB_Chain>  (178) 
['A']

>  <Num_Ligs>  (178) 
[1.0]

>  <Orthosteric>  (178) 
[1.0]

>  <Allosteric>  (178) 
[0.0]

>  <Pockets_Assigned>  (178) 
['A']

>  <Multisite>  (178) 
[False]

>  <Same_Number>  (178) 
True

>  <Same_Binding_Site>  (178) 
True

>  <Same_Orientation>  (178) 
True

>  <Lig_Order_in_.pdb>  (178) 
Orthosteric

$$$$

     RDKit          2D

 31 33  0  0  0  0  0  0  0  0999 V2000
    1.5000    0.0000    0.0000 C   0  0  0  0  0  0  0  0  0  0  0  0
    0.7500   -1.2990    0.0000 N   0  0  0  0  0  0  0  0  0  0  0  0
   -0.7500   -1.2990    0.0000 C   0  0  0  0  0  0  0  0  0  0  0  0
   -1.5000    0.0000    0.0000 C   0  0  0  0  0  0  0  0  0  0  0  0
   -0.7500    1.2990    0.0000 C   0  0  0  0  0  0  0  0  0  0  0  0
    0.7500    1.2990    0.0000 N   0  0  0  0  0  0  0  0  0  0  0  0
   -1.7537    2.4138    0.0000 N   0  0  0  0  0  0  0  0  0  0  0  0
   -3.1240    1.8037    0.0000 C   0  0  0  0  0  0  0  0  0  0  0  0
   -2.9672    0.3119    0.0000 N   0  0  0  0  0  0  0  0  0  0  0  0
   -1.4418    3.8810    0.0000 C   0  0  0  0  0  0  0  0  0  0  0  0
   -2.4455    4.9957    0.0000 C   0  0  0  0  0  0  0  0  0  0  0  0
   -1.6955    6.2947    0.0000 C   0  0  0  0  0  0  0  0  0  0  0  0
   -0.2283    5.9829    0.0000 C   0  0  0  0  0  0  0  0  0  0  0  0
   -0.0715    4.4911    0.0000 O   0  0  0  0  0  0  0  0  0  0  0  0
    0.8864    6.9866    0.0000 C   0  0  0  0  0  0  0  0  0  0  0  0
    2.3130    6.5230    0.0000 O   0  0  0  0  0  0  0  0  0  0  0  0
    3.4277    7.5267    0.0000 P   0  0  0  0  0  5  0  0  0  0  0  0
    2.4240    8.6414    0.0000 O   0  0  0  0  0  0  0  0  0  0  0  0
    4.4314    6.4120    0.0000 O   0  0  0  0  0  0  0  0  0  0  0  0
    4.5424    8.5304    0.0000 O   0  0  0  0  0  0  0  0  0  0  0  0
    4.2306    9.9976    0.0000 P   0  0  0  0  0  5  0  0  0  0  0  0
    5.6978   10.3095    0.0000 O   0  0  0  0  0  0  0  0  0  0  0  0
    2.7633    9.6858    0.0000 O   0  0  0  0  0  0  0  0  0  0  0  0
    3.9187   11.4649    0.0000 O   0  0  0  0  0  0  0  0  0  0  0  0
    2.4921   11.9284    0.0000 P   0  0  0  0  0  0  0  0  0  0  0  0
    2.9556   13.3550    0.0000 O   0  0  0  0  0  0  0  0  0  0  0  0
    2.0286   10.5018    0.0000 O   0  0  0  0  0  0  0  0  0  0  0  0
    1.0655   12.3919    0.0000 O   0  0  0  0  0  0  0  0  0  0  0  0
   -2.3056    7.6651    0.0000 O   0  0  0  0  0  0  0  0  0  0  0  0
   -3.9373    4.8389    0.0000 O   0  0  0  0  0  0  0  0  0  0  0  0
   -1.5000   -2.5981    0.0000 N   0  0  0  0  0  0  0  0  0  0  0  0
  1  2  2  0
  2  3  1  0
  3  4  2  0
  4  5  1  0
  5  6  2  0
  5  7  1  0
  7  8  1  0
  8  9  2  0
 10  7  1  1
 10 11  1  0
 11 12  1  0
 12 13  1  0
 13 14  1  0
 13 15  1  1
 15 16  1  0
 16 17  1  0
 17 18  2  0
 17 19  1  1
 17 20  1  0
 20 21  1  0
 21 22  2  0
 21 23  1  1
 21 24  1  0
 24 25  1  0
 25 26  2  0
 25 27  1  0
 25 28  1  0
 12 29  1  6
 11 30  1  6
  3 31  1  0
  6  1  1  0
  9  4  1  0
 14 10  1  0
M  END
>  <Structure>  (179) 
6EMA

>  <Dataset>  (179) 
PDB

>  <Chain>  (179) 
A

>  <Spatial_Label>  (179) 
DFGin

>  <Dihedral_Label>  (179) 
BLAminus

>  <C_Helix_Label>  (179) 
Chelix-in

>  <Lig_ID>  (179) 
ATP

>  <Lig_Entity_ID>  (179) 
6EMA_3

>  <Lig_Name>  (179) 
ADENOSINE-5'-TRIPHOSPHATE

>  <Lig_Formula>  (179) 
C10H16N5O13P3

>  <Lig_SMILES>  (179) 
c1nc(c2c(n1)n(cn2)[C@H]3[C@@H]([C@@H]([C@H](O3)CO[P@@](=O)(O)O[P@](=O)(O)OP(=O)(O)O)O)O)N

>  <Lig_MW>  (179) 
507.181

>  <Lig_ChEMBL_ID>  (179) 
['CHEMBL14249']

>  <Lig_DrugBank_ID>  (179) 
['DB00171']

>  <Occurence>  (179) 
14.0

>  <Lig_SMILES_Uncharged>  (179) 
Nc1ncnc2c1ncn2[C@@H]1O[C@H](CO[P@@](=O)(O)O[P@](=O)(O)OP(=O)(O)O)[C@@H](O)[C@H]1O

>  <Lig_Conformer>  (179) 
['NaN']

>  <Lig_Of_Interest>  (179) 
['Y']

>  <Lig_Completeness>  (179) 
[0.6129]

>  <Lig_Occupancy>  (179) 
[0.6129]

>  <Lig_RSCC>  (179) 
[0.968]

>  <Lig_RSR>  (179) 
[0.126]

>  <Lig_RMSZ_Bonds>  (179) 
[0.85]

>  <Lig_RMSZ_Angles>  (179) 
[1.09]

>  <Lig_Alt_Conf>  (179) 
0.0

>  <Title>  (179) 
Crystal Structure of the Protein-Kinase A catalytic subunit from Criteculus Griseus in complex with compounds RKp120 and ATP

>  <Nonpolymer_Entity_Count>  (179) 
2.0

>  <Protein_Entity_Count>  (179) 
2.0

>  <Exp_Method>  (179) 
X-Ray Diffraction

>  <Cryst_Method>  (179) 
Vapor Diffusion, Sitting Drop; 100 Mm Mes-Bis-Tris, 55 Mm Lithium Chloride, 10 Mm Magnesium Chloride, 1 Mm Dtt, 0.1 Mm Sodium Edta, 0.25 Mm Mega 8, 0.7 Mm Peptidic Ligand, 2 Mm Atp, 17% V/V Methanol/Water In Reservoir

>  <Deposit_Date>  (179) 
2017-10-01

>  <Resolution>  (179) 
1.88

>  <DOI>  (179) 
https://doi.org/10.1021/acsomega.8b02364

>  <Source_Organism>  (179) 
Cricetulus griseus

>  <R_Free>  (179) 
0.2128

>  <Keywords>  (179) 
Transferase

>  <REMARK_280>  (179) 
 Crystal Solvent Content, Vs (%): 49.30 Matthews Coefficient, Vm (Angstroms**3/Da): 2.42 Crystallization Conditions: 100 Mm Mes-Bis-Tris, 55 Mm Lithium Chloride, 10 Mm Magnesium Chloride, 1 Mm Dtt, 0.1 Mm Sodium Edta, 0.25 Mm Mega 8, 0.7 Mm Peptidic Ligand, 2 Mm Atp, 17% V/V Methanol/Water In Reservoir, pH 6.9, Vapor Diffusion, Sitting Drop, Temperature 277.15K 

>  <REMARK_610>  (179) 
  ATP A 401 

>  <pH>  (179) 
6.9

>  <Cryst_Technique>  (179) 
co-crystallized

>  <Sequence>  (179) 
GHMGNAAAAKKGSEQESVKEFLAKAKEEFLKKWESPSQNTAQLDHFDRIKTLGTGSFGRVMLVKHKETGNHYAMKILDKQKVVKLKQIEHTLNEKRILQAVNFPFLVKLEFSFKDNSNLYMVMEYVPGGEMFSHLRRIGRFSEPHARFYAAQIVLTFEYLHSLDLIYRDLKPENLLIDQQGYIQVTDFGFAKRVKGRTWTLCGTPEYLAPEIILSKGYNKAVDWWALGVLIYEMAAGYPPFFADQPIQIYEKIVSGKVRFPSHFSSDLKDLLRNLLQVDLTKRFGNLKNGVNDIKNHKWFATTDWIAIYQRKVEAPFIPKFKGPGDTSNFDDYEEEEIRVSINEKCGKEFTEF

>  <Sequence_Length>  (179) 
353.0

>  <Mutation_Count>  (179) 
0.0

>  <Gene_Name>  (179) 
PKACA

>  <MW>  (179) 
41.194

>  <Name>  (179) 
cAMP-Dependent Protein Kinase Catalytic Subunit Alpha

>  <Mutations>  (179) 
nan

>  <EC_Number>  (179) 
2.7.11.11

>  <Peptidic_Inhibitor>  (179) 
True

>  <Lig_Missing_Atoms>  (179) 
['No']

>  <PDBbind_Resolution>  (179) 
nan

>  <PDBbind_Release_Year>  (179) 
nan

>  <PDBbind_Comment>  (179) 
nan

>  <PDBbind_Uniprot_Id>  (179) 
nan

>  <PDBbind_Protein_Name>  (179) 
nan

>  <PDBbind_-Logkd/Ki>  (179) 
nan

>  <PDBbind_Kd/Ki>  (179) 
nan

>  <PDBbind_Kd_Or_Ki_Or_Ic50>  (179) 
nan

>  <PDBbind_Relation>  (179) 
nan

>  <PDBbind_Value>  (179) 
nan

>  <PDBbind_Unit>  (179) 
nan

>  <PDBbind_Standard_Value>  (179) 
nan

>  <PDBbind_Standard_Unit>  (179) 
nan

>  <PDB_Chain>  (179) 
['A']

>  <Num_Ligs>  (179) 
[1.0]

>  <Orthosteric>  (179) 
[1.0]

>  <Allosteric>  (179) 
[0.0]

>  <Pockets_Assigned>  (179) 
['A']

>  <Multisite>  (179) 
[False]

>  <Same_Number>  (179) 
True

>  <Same_Binding_Site>  (179) 
True

>  <Same_Orientation>  (179) 
True

>  <Lig_Order_in_.pdb>  (179) 
Orthosteric

$$$$

     RDKit          2D

 31 34  0  0  0  0  0  0  0  0999 V2000
   11.8403    0.1044    0.0000 B   0  0  0  0  0  4  0  0  0  0  0  0
   11.7282   -1.3914    0.0000 C   0  0  0  0  0  0  0  0  0  0  0  0
   12.9676   -2.2364    0.0000 C   0  0  0  0  0  0  0  0  0  0  0  0
   12.8555   -3.7322    0.0000 C   0  0  0  0  0  0  0  0  0  0  0  0
   11.5040   -4.3830    0.0000 C   0  0  0  0  0  0  0  0  0  0  0  0
   10.2647   -3.5380    0.0000 C   0  0  0  0  0  0  0  0  0  0  0  0
   10.3768   -2.0422    0.0000 C   0  0  0  0  0  0  0  0  0  0  0  0
    9.1374   -1.1973    0.0000 C   0  0  0  0  0  0  0  0  0  0  0  0
    7.7860   -1.8481    0.0000 N   0  0  0  0  0  0  0  0  0  0  0  0
    7.7860   -3.3481    0.0000 C   0  0  0  0  0  0  0  0  0  0  0  0
    6.6132   -4.2833    0.0000 C   0  0  0  0  0  0  0  0  0  0  0  0
    5.1508   -3.9495    0.0000 C   0  0  0  0  0  0  0  0  0  0  0  0
    4.5000   -2.5981    0.0000 N   0  0  0  0  0  0  0  0  0  0  0  0
    5.1508   -1.2466    0.0000 C   0  0  0  0  0  0  0  0  0  0  0  0
    6.6132   -0.9128    0.0000 C   0  0  0  0  0  0  0  0  0  0  0  0
    3.0000   -2.5981    0.0000 S   0  0  0  0  0  0  0  0  0  0  0  0
    3.0000   -4.0981    0.0000 O   0  0  0  0  0  0  0  0  0  0  0  0
    3.0000   -1.0981    0.0000 O   0  0  0  0  0  0  0  0  0  0  0  0
    1.5000   -2.5981    0.0000 C   0  0  0  0  0  0  0  0  0  0  0  0
    0.7500   -3.8971    0.0000 C   0  0  0  0  0  0  0  0  0  0  0  0
   -0.7500   -3.8971    0.0000 C   0  0  0  0  0  0  0  0  0  0  0  0
   -1.5000   -2.5981    0.0000 C   0  0  0  0  0  0  0  0  0  0  0  0
   -0.7500   -1.2990    0.0000 C   0  0  0  0  0  0  0  0  0  0  0  0
    0.7500   -1.2990    0.0000 C   0  0  0  0  0  0  0  0  0  0  0  0
    1.5000    0.0000    0.0000 C   0  0  0  0  0  0  0  0  0  0  0  0
    0.7500    1.2990    0.0000 C   0  0  0  0  0  0  0  0  0  0  0  0
   -0.7500    1.2990    0.0000 N   0  0  0  0  0  0  0  0  0  0  0  0
   -1.5000    0.0000    0.0000 C   0  0  0  0  0  0  0  0  0  0  0  0
   11.9524    1.6002    0.0000 O   0  0  0  0  0  0  0  0  0  0  0  0
   13.3361   -0.0077    0.0000 O   0  0  0  0  0  0  0  0  0  0  0  0
   10.3445    0.2165    0.0000 O   0  0  0  0  0  0  0  0  0  0  0  0
  1  2  1  0
  2  3  2  0
  3  4  1  0
  4  5  2  0
  5  6  1  0
  6  7  2  0
  7  8  1  0
  8  9  1  0
  9 10  1  0
 10 11  1  0
 11 12  1  0
 12 13  1  0
 13 14  1  0
 14 15  1  0
 13 16  1  0
 16 17  2  0
 16 18  2  0
 16 19  1  0
 19 20  2  0
 20 21  1  0
 21 22  2  0
 22 23  1  0
 23 24  2  0
 24 25  1  0
 25 26  2  0
 26 27  1  0
 27 28  2  0
  1 29  1  0
  1 30  1  0
  1 31  1  0
  7  2  1  0
 15  9  1  0
 24 19  1  0
 28 23  1  0
M  CHG  1   1  -1
M  END
>  <Structure>  (180) 
6ERT

>  <Dataset>  (180) 
PDB

>  <Chain>  (180) 
A

>  <Spatial_Label>  (180) 
DFGin

>  <Dihedral_Label>  (180) 
ABAminus

>  <C_Helix_Label>  (180) 
Chelix-in

>  <Lig_ID>  (180) 
BVZ

>  <Lig_Entity_ID>  (180) 
6ERT_3

>  <Lig_Name>  (180) 
[2-[(4-isoquinolin-5-ylsulfonyl-1,4-diazepan-1-yl)methyl]phenyl]-tris(oxidanyl)boranuide

>  <Lig_Formula>  (180) 
C21H25BN3O5S

>  <Lig_SMILES>  (180) 
[B-](c1ccccc1CN2CCCN(CC2)S(=O)(=O)c3cccc4c3ccnc4)(O)(O)O

>  <Lig_MW>  (180) 
442.316

>  <Lig_ChEMBL_ID>  (180) 
nan

>  <Lig_DrugBank_ID>  (180) 
nan

>  <Occurence>  (180) 
1.0

>  <Lig_SMILES_Uncharged>  (180) 
O=S(=O)(c1cccc2cnccc12)N1CCCN(Cc2ccccc2[B-](O)(O)O)CC1

>  <Lig_Conformer>  (180) 
['NaN']

>  <Lig_Of_Interest>  (180) 
['Y']

>  <Lig_Completeness>  (180) 
[1.0]

>  <Lig_Occupancy>  (180) 
[0.9677]

>  <Lig_RSCC>  (180) 
[0.958]

>  <Lig_RSR>  (180) 
[0.112]

>  <Lig_RMSZ_Bonds>  (180) 
[2.3]

>  <Lig_RMSZ_Angles>  (180) 
[1.18]

>  <Lig_Alt_Conf>  (180) 
0.0

>  <Title>  (180) 
Crystal Structure of the Protein-Kinase A catalytic subunit from Criteculus Griseus in complex with compounds RKp193 and RKp117

>  <Nonpolymer_Entity_Count>  (180) 
1.0

>  <Protein_Entity_Count>  (180) 
2.0

>  <Exp_Method>  (180) 
X-Ray Diffraction

>  <Cryst_Method>  (180) 
Vapor Diffusion, Sitting Drop; 100 Mm Mes-Bis-Tris, 75 Mm Lithium Chloride, 1 Mm Dtt, 0.1 Mm Sodium Edta, 0.25 Mm Mega 8, 0.7 Mm Peptidic Ligand, 5 Mm Rkp117, 17% V/V Methanol/Water In Reservoir

>  <Deposit_Date>  (180) 
2017-10-19

>  <Resolution>  (180) 
1.8

>  <DOI>  (180) 
https://doi.org/10.1021/acsomega.8b02364

>  <Source_Organism>  (180) 
Cricetulus griseus

>  <R_Free>  (180) 
0.2185

>  <Keywords>  (180) 
Transferase

>  <REMARK_280>  (180) 
 Crystal Solvent Content, Vs (%): 49.27 Matthews Coefficient, Vm (Angstroms**3/Da): 2.42 Crystallization Conditions: 100 Mm Mes-Bis-Tris, 75 Mm Lithium Chloride, 1 Mm Dtt, 0.1 Mm Sodium Edta, 0.25 Mm Mega 8, 0.7 Mm Peptidic Ligand, 5 Mm Rkp117, 17% V/V Methanol/Water In Reservoir, pH 6.9, Vapor Diffusion, Sitting Drop, Temperature 277.15K 

>  <REMARK_610>  (180) 
nan

>  <pH>  (180) 
6.9

>  <Cryst_Technique>  (180) 
co-crystallized

>  <Sequence>  (180) 
GHMGNAAAAKKGSEQESVKEFLAKAKEEFLKKWESPSQNTAQLDHFDRIKTLGTGSFGRVMLVKHKETGNHYAMKILDKQKVVKLKQIEHTLNEKRILQAVNFPFLVKLEFSFKDNSNLYMVMEYVPGGEMFSHLRRIGRFSEPHARFYAAQIVLTFEYLHSLDLIYRDLKPENLLIDQQGYIQVTDFGFAKRVKGRTWTLCGTPEYLAPEIILSKGYNKAVDWWALGVLIYEMAAGYPPFFADQPIQIYEKIVSGKVRFPSHFSSDLKDLLRNLLQVDLTKRFGNLKNGVNDIKNHKWFATTDWIAIYQRKVEAPFIPKFKGPGDTSNFDDYEEEEIRVSINEKCGKEFTEF

>  <Sequence_Length>  (180) 
353.0

>  <Mutation_Count>  (180) 
0.0

>  <Gene_Name>  (180) 
PKACA

>  <MW>  (180) 
41.194

>  <Name>  (180) 
cAMP-Dependent Protein Kinase Catalytic Subunit Alpha

>  <Mutations>  (180) 
nan

>  <EC_Number>  (180) 
2.7.11.11

>  <Peptidic_Inhibitor>  (180) 
True

>  <Lig_Missing_Atoms>  (180) 
['No']

>  <PDBbind_Resolution>  (180) 
1.8

>  <PDBbind_Release_Year>  (180) 
2018.0

>  <PDBbind_Comment>  (180) 
[Uncommon element] microscale thermophoresis assay, Kd(BVZ)=5.86+/-2.75uM

>  <PDBbind_Uniprot_Id>  (180) 
P25321

>  <PDBbind_Protein_Name>  (180) 
CAMP-DEPENDENT PROTEIN KINASE CATALYTIC SUBUNIT ALPHA

>  <PDBbind_-Logkd/Ki>  (180) 
5.23

>  <PDBbind_Kd/Ki>  (180) 
Kd=5.86uM

>  <PDBbind_Kd_Or_Ki_Or_Ic50>  (180) 
Kd

>  <PDBbind_Relation>  (180) 
=

>  <PDBbind_Value>  (180) 
5.86

>  <PDBbind_Unit>  (180) 
uM

>  <PDBbind_Standard_Value>  (180) 
5860.0

>  <PDBbind_Standard_Unit>  (180) 
nM

>  <PDB_Chain>  (180) 
['A']

>  <Num_Ligs>  (180) 
[1.0]

>  <Orthosteric>  (180) 
[1.0]

>  <Allosteric>  (180) 
[0.0]

>  <Pockets_Assigned>  (180) 
['A']

>  <Multisite>  (180) 
[False]

>  <Same_Number>  (180) 
True

>  <Same_Binding_Site>  (180) 
True

>  <Same_Orientation>  (180) 
True

>  <Lig_Order_in_.pdb>  (180) 
Orthosteric

$$$$

     RDKit          2D

 20 22  0  0  0  0  0  0  0  0999 V2000
    0.7500   -3.8971    0.0000 C   0  0  0  0  0  0  0  0  0  0  0  0
    1.5000   -2.5981    0.0000 C   0  0  0  0  0  0  0  0  0  0  0  0
    0.7500   -1.2990    0.0000 C   0  0  0  0  0  0  0  0  0  0  0  0
    1.5000    0.0000    0.0000 C   0  0  0  0  0  0  0  0  0  0  0  0
    0.7500    1.2990    0.0000 N   0  0  0  0  0  0  0  0  0  0  0  0
   -0.7500    1.2990    0.0000 C   0  0  0  0  0  0  0  0  0  0  0  0
   -1.5000    0.0000    0.0000 C   0  0  0  0  0  0  0  0  0  0  0  0
   -0.7500   -1.2990    0.0000 C   0  0  0  0  0  0  0  0  0  0  0  0
   -1.5000   -2.5981    0.0000 C   0  0  0  0  0  0  0  0  0  0  0  0
   -0.7500   -3.8971    0.0000 C   0  0  0  0  0  0  0  0  0  0  0  0
   -3.0000   -2.5981    0.0000 S   0  0  0  0  0  0  0  0  0  0  0  0
   -3.0000   -4.0981    0.0000 O   0  0  0  0  0  0  0  0  0  0  0  0
   -3.0000   -1.0981    0.0000 O   0  0  0  0  0  0  0  0  0  0  0  0
   -4.5000   -2.5981    0.0000 N   0  0  0  0  0  0  0  0  0  0  0  0
   -5.1508   -3.9495    0.0000 C   0  0  0  0  0  0  0  0  0  0  0  0
   -6.6132   -4.2833    0.0000 C   0  0  0  0  0  0  0  0  0  0  0  0
   -7.7860   -3.3481    0.0000 C   0  0  0  0  0  0  0  0  0  0  0  0
   -7.7860   -1.8481    0.0000 N   0  0  0  0  0  0  0  0  0  0  0  0
   -6.6132   -0.9128    0.0000 C   0  0  0  0  0  0  0  0  0  0  0  0
   -5.1508   -1.2466    0.0000 C   0  0  0  0  0  0  0  0  0  0  0  0
  1  2  2  0
  2  3  1  0
  3  4  2  0
  4  5  1  0
  5  6  2  0
  6  7  1  0
  7  8  2  0
  8  9  1  0
  9 10  2  0
  9 11  1  0
 11 12  2  0
 11 13  2  0
 11 14  1  0
 14 15  1  0
 15 16  1  0
 16 17  1  0
 17 18  1  0
 18 19  1  0
 19 20  1  0
 10  1  1  0
  8  3  1  0
 20 14  1  0
M  END
>  <Structure>  (181) 
6ERW

>  <Dataset>  (181) 
PDB

>  <Chain>  (181) 
A

>  <Spatial_Label>  (181) 
DFGin

>  <Dihedral_Label>  (181) 
ABAminus

>  <C_Helix_Label>  (181) 
Chelix-in

>  <Lig_ID>  (181) 
M77

>  <Lig_Entity_ID>  (181) 
6ERW_3

>  <Lig_Name>  (181) 
5-(1,4-DIAZEPAN-1-SULFONYL)ISOQUINOLINE

>  <Lig_Formula>  (181) 
C14H17N3O2S

>  <Lig_SMILES>  (181) 
c1cc2cnccc2c(c1)S(=O)(=O)N3CCCNCC3

>  <Lig_MW>  (181) 
291.369

>  <Lig_ChEMBL_ID>  (181) 
['CHEMBL38380']

>  <Lig_DrugBank_ID>  (181) 
['DB08162']

>  <Occurence>  (181) 
10.0

>  <Lig_SMILES_Uncharged>  (181) 
O=S(=O)(c1cccc2cnccc12)N1CCCNCC1

>  <Lig_Conformer>  (181) 
['NaN']

>  <Lig_Of_Interest>  (181) 
['Y']

>  <Lig_Completeness>  (181) 
[1.0]

>  <Lig_Occupancy>  (181) 
[1.0]

>  <Lig_RSCC>  (181) 
[0.959]

>  <Lig_RSR>  (181) 
[0.099]

>  <Lig_RMSZ_Bonds>  (181) 
[0.24]

>  <Lig_RMSZ_Angles>  (181) 
[0.41]

>  <Lig_Alt_Conf>  (181) 
0.0

>  <Title>  (181) 
Crystal Structure of the Protein-Kinase A catalytic subunit from Criteculus Griseus in complex with compounds RKp013 and Fasudil

>  <Nonpolymer_Entity_Count>  (181) 
2.0

>  <Protein_Entity_Count>  (181) 
2.0

>  <Exp_Method>  (181) 
X-Ray Diffraction

>  <Cryst_Method>  (181) 
Vapor Diffusion, Sitting Drop; 100 Mm Mes-Bis-Tris, 75 Mm Lithium Chloride, 1 Mm Dtt, 0.1 Mm Sodium Edta, 0.25 Mm Mega 8, 0.7 Mm Peptidic Ligand, 5 Mm Fasudil, 20% V/V Methanol/Water In Reservoir

>  <Deposit_Date>  (181) 
2017-10-19

>  <Resolution>  (181) 
1.89

>  <DOI>  (181) 
https://doi.org/10.1021/acsomega.8b02364

>  <Source_Organism>  (181) 
Cricetulus griseus

>  <R_Free>  (181) 
0.2292

>  <Keywords>  (181) 
Transferase

>  <REMARK_280>  (181) 
 Crystal Solvent Content, Vs (%): 57.25 Matthews Coefficient, Vm (Angstroms**3/Da): 2.88 Crystallization Conditions: 100 Mm Mes-Bis-Tris, 75 Mm Lithium Chloride, 1 Mm Dtt, 0.1 Mm Sodium Edta, 0.25 Mm Mega 8, 0.7 Mm Peptidic Ligand, 5 Mm Fasudil, 20% V/V Methanol/Water In Reservoir, pH 6.9, Vapor Diffusion, Sitting Drop, Temperature 277.15K 

>  <REMARK_610>  (181) 
nan

>  <pH>  (181) 
6.9

>  <Cryst_Technique>  (181) 
co-crystallized

>  <Sequence>  (181) 
GHMGNAAAAKKGSEQESVKEFLAKAKEEFLKKWESPSQNTAQLDHFDRIKTLGTGSFGRVMLVKHKETGNHYAMKILDKQKVVKLKQIEHTLNEKRILQAVNFPFLVKLEFSFKDNSNLYMVMEYVPGGEMFSHLRRIGRFSEPHARFYAAQIVLTFEYLHSLDLIYRDLKPENLLIDQQGYIQVTDFGFAKRVKGRTWTLCGTPEYLAPEIILSKGYNKAVDWWALGVLIYEMAAGYPPFFADQPIQIYEKIVSGKVRFPSHFSSDLKDLLRNLLQVDLTKRFGNLKNGVNDIKNHKWFATTDWIAIYQRKVEAPFIPKFKGPGDTSNFDDYEEEEIRVSINEKCGKEFTEF

>  <Sequence_Length>  (181) 
353.0

>  <Mutation_Count>  (181) 
0.0

>  <Gene_Name>  (181) 
PKACA

>  <MW>  (181) 
41.194

>  <Name>  (181) 
cAMP-Dependent Protein Kinase Catalytic Subunit Alpha

>  <Mutations>  (181) 
nan

>  <EC_Number>  (181) 
2.7.11.11

>  <Peptidic_Inhibitor>  (181) 
True

>  <Lig_Missing_Atoms>  (181) 
['No']

>  <PDBbind_Resolution>  (181) 
nan

>  <PDBbind_Release_Year>  (181) 
nan

>  <PDBbind_Comment>  (181) 
nan

>  <PDBbind_Uniprot_Id>  (181) 
nan

>  <PDBbind_Protein_Name>  (181) 
nan

>  <PDBbind_-Logkd/Ki>  (181) 
nan

>  <PDBbind_Kd/Ki>  (181) 
nan

>  <PDBbind_Kd_Or_Ki_Or_Ic50>  (181) 
nan

>  <PDBbind_Relation>  (181) 
nan

>  <PDBbind_Value>  (181) 
nan

>  <PDBbind_Unit>  (181) 
nan

>  <PDBbind_Standard_Value>  (181) 
nan

>  <PDBbind_Standard_Unit>  (181) 
nan

>  <PDB_Chain>  (181) 
['A']

>  <Num_Ligs>  (181) 
[1.0]

>  <Orthosteric>  (181) 
[1.0]

>  <Allosteric>  (181) 
[0.0]

>  <Pockets_Assigned>  (181) 
['A']

>  <Multisite>  (181) 
[False]

>  <Same_Number>  (181) 
True

>  <Same_Binding_Site>  (181) 
True

>  <Same_Orientation>  (181) 
True

>  <Lig_Order_in_.pdb>  (181) 
Orthosteric

$$$$

     RDKit          2D

 23 25  0  0  0  0  0  0  0  0999 V2000
    1.5000    0.0000    0.0000 C   0  0  0  0  0  0  0  0  0  0  0  0
    0.7500   -1.2990    0.0000 N   0  0  0  0  0  0  0  0  0  0  0  0
   -0.7500   -1.2990    0.0000 C   0  0  0  0  0  0  0  0  0  0  0  0
   -1.5000    0.0000    0.0000 C   0  0  0  0  0  0  0  0  0  0  0  0
   -0.7500    1.2990    0.0000 C   0  0  0  0  0  0  0  0  0  0  0  0
    0.7500    1.2990    0.0000 N   0  0  0  0  0  0  0  0  0  0  0  0
   -1.7537    2.4138    0.0000 N   0  0  0  0  0  0  0  0  0  0  0  0
   -3.1240    1.8037    0.0000 C   0  0  0  0  0  0  0  0  0  0  0  0
   -2.9672    0.3119    0.0000 N   0  0  0  0  0  0  0  0  0  0  0  0
   -1.4418    3.8810    0.0000 C   0  0  0  0  0  0  0  0  0  0  0  0
   -2.4455    4.9957    0.0000 C   0  0  0  0  0  0  0  0  0  0  0  0
   -1.6955    6.2947    0.0000 C   0  0  0  0  0  0  0  0  0  0  0  0
   -0.2283    5.9829    0.0000 C   0  0  0  0  0  0  0  0  0  0  0  0
   -0.0715    4.4911    0.0000 O   0  0  0  0  0  0  0  0  0  0  0  0
    0.8864    6.9866    0.0000 C   0  0  0  0  0  0  0  0  0  0  0  0
    2.3130    6.5230    0.0000 O   0  0  0  0  0  0  0  0  0  0  0  0
    3.4277    7.5267    0.0000 P   0  0  0  0  0  0  0  0  0  0  0  0
    4.4314    6.4120    0.0000 O   0  0  0  0  0  0  0  0  0  0  0  0
    2.4240    8.6414    0.0000 O   0  0  0  0  0  0  0  0  0  0  0  0
    4.5424    8.5304    0.0000 O   0  0  0  0  0  0  0  0  0  0  0  0
   -2.3056    7.6651    0.0000 O   0  0  0  0  0  0  0  0  0  0  0  0
   -3.9373    4.8389    0.0000 O   0  0  0  0  0  0  0  0  0  0  0  0
   -1.5000   -2.5981    0.0000 N   0  0  0  0  0  0  0  0  0  0  0  0
  1  2  2  0
  2  3  1  0
  3  4  2  0
  4  5  1  0
  5  6  2  0
  5  7  1  0
  7  8  1  0
  8  9  2  0
 10  7  1  1
 10 11  1  0
 11 12  1  0
 12 13  1  0
 13 14  1  0
 13 15  1  1
 15 16  1  0
 16 17  1  0
 17 18  2  0
 17 19  1  0
 17 20  1  0
 12 21  1  6
 11 22  1  6
  3 23  1  0
  6  1  1  0
  9  4  1  0
 14 10  1  0
M  END
>  <Structure>  (182) 
6ESA

>  <Dataset>  (182) 
PDB

>  <Chain>  (182) 
A

>  <Spatial_Label>  (182) 
DFGin

>  <Dihedral_Label>  (182) 
BLAminus

>  <C_Helix_Label>  (182) 
Chelix-in

>  <Lig_ID>  (182) 
AMP

>  <Lig_Entity_ID>  (182) 
6ESA_3

>  <Lig_Name>  (182) 
ADENOSINE MONOPHOSPHATE

>  <Lig_Formula>  (182) 
C10H14N5O7P

>  <Lig_SMILES>  (182) 
c1nc(c2c(n1)n(cn2)[C@H]3[C@@H]([C@@H]([C@H](O3)COP(=O)(O)O)O)O)N

>  <Lig_MW>  (182) 
347.221

>  <Lig_ChEMBL_ID>  (182) 
['CHEMBL752']

>  <Lig_DrugBank_ID>  (182) 
['DB00131']

>  <Occurence>  (182) 
2.0

>  <Lig_SMILES_Uncharged>  (182) 
Nc1ncnc2c1ncn2[C@@H]1O[C@H](COP(=O)(O)O)[C@@H](O)[C@H]1O

>  <Lig_Conformer>  (182) 
['NaN']

>  <Lig_Of_Interest>  (182) 
['Y']

>  <Lig_Completeness>  (182) 
[0.8261]

>  <Lig_Occupancy>  (182) 
[0.8261]

>  <Lig_RSCC>  (182) 
[0.98]

>  <Lig_RSR>  (182) 
[0.063]

>  <Lig_RMSZ_Bonds>  (182) 
[0.9]

>  <Lig_RMSZ_Angles>  (182) 
[0.94]

>  <Lig_Alt_Conf>  (182) 
0.0

>  <Title>  (182) 
Crystal Structure of the Protein-Kinase A catalytic subunit from Criteculus Griseus in complex with compounds RKp120 and AMP

>  <Nonpolymer_Entity_Count>  (182) 
4.0

>  <Protein_Entity_Count>  (182) 
2.0

>  <Exp_Method>  (182) 
X-Ray Diffraction

>  <Cryst_Method>  (182) 
Vapor Diffusion, Sitting Drop; 100 Mm Mes-Bis-Tris, 55 Mm Lithium Chloride, 10 Mm Magnesium Chloride 1 Mm Dtt, 0.1 Mm Sodium Edta, 0.25 Mm Mega 8, 0.7 Mm Peptidic Ligand, 5 Mm Amp, 20% V/V Methanol/Water In Reservoir

>  <Deposit_Date>  (182) 
2017-10-19

>  <Resolution>  (182) 
1.307

>  <DOI>  (182) 
https://doi.org/10.1021/acsomega.8b02364

>  <Source_Organism>  (182) 
Cricetulus griseus

>  <R_Free>  (182) 
0.1466

>  <Keywords>  (182) 
Transferase

>  <REMARK_280>  (182) 
 Crystal Solvent Content, Vs (%): 55.51 Matthews Coefficient, Vm (Angstroms**3/Da): 2.76 Crystallization Conditions: 100 Mm Mes-Bis-Tris, 55 Mm Lithium Chloride, 10 Mm Magnesium Chloride 1 Mm Dtt, 0.1 Mm Sodium Edta, 0.25 Mm Mega 8, 0.7 Mm Peptidic Ligand, 5 Mm Amp, 20% V/V Methanol/Water In Reservoir, pH 6.9, Vapor Diffusion, Sitting Drop, Temperature 277.15K 

>  <REMARK_610>  (182) 
  AMP A 401 RIP E 101 

>  <pH>  (182) 
6.9

>  <Cryst_Technique>  (182) 
co-crystallized

>  <Sequence>  (182) 
GHMGNAAAAKKGSEQESVKEFLAKAKEEFLKKWESPSQNTAQLDHFDRIKTLGTGSFGRVMLVKHKETGNHYAMKILDKQKVVKLKQIEHTLNEKRILQAVNFPFLVKLEFSFKDNSNLYMVMEYVPGGEMFSHLRRIGRFSEPHARFYAAQIVLTFEYLHSLDLIYRDLKPENLLIDQQGYIQVTDFGFAKRVKGRTWTLCGTPEYLAPEIILSKGYNKAVDWWALGVLIYEMAAGYPPFFADQPIQIYEKIVSGKVRFPSHFSSDLKDLLRNLLQVDLTKRFGNLKNGVNDIKNHKWFATTDWIAIYQRKVEAPFIPKFKGPGDTSNFDDYEEEEIRVSINEKCGKEFTEF

>  <Sequence_Length>  (182) 
353.0

>  <Mutation_Count>  (182) 
0.0

>  <Gene_Name>  (182) 
PKACA

>  <MW>  (182) 
41.194

>  <Name>  (182) 
cAMP-Dependent Protein Kinase Catalytic Subunit Alpha

>  <Mutations>  (182) 
nan

>  <EC_Number>  (182) 
2.7.11.11

>  <Peptidic_Inhibitor>  (182) 
True

>  <Lig_Missing_Atoms>  (182) 
['No']

>  <PDBbind_Resolution>  (182) 
nan

>  <PDBbind_Release_Year>  (182) 
nan

>  <PDBbind_Comment>  (182) 
nan

>  <PDBbind_Uniprot_Id>  (182) 
nan

>  <PDBbind_Protein_Name>  (182) 
nan

>  <PDBbind_-Logkd/Ki>  (182) 
nan

>  <PDBbind_Kd/Ki>  (182) 
nan

>  <PDBbind_Kd_Or_Ki_Or_Ic50>  (182) 
nan

>  <PDBbind_Relation>  (182) 
nan

>  <PDBbind_Value>  (182) 
nan

>  <PDBbind_Unit>  (182) 
nan

>  <PDBbind_Standard_Value>  (182) 
nan

>  <PDBbind_Standard_Unit>  (182) 
nan

>  <PDB_Chain>  (182) 
['A']

>  <Num_Ligs>  (182) 
[1.0]

>  <Orthosteric>  (182) 
[1.0]

>  <Allosteric>  (182) 
[0.0]

>  <Pockets_Assigned>  (182) 
['A']

>  <Multisite>  (182) 
[False]

>  <Same_Number>  (182) 
True

>  <Same_Binding_Site>  (182) 
True

>  <Same_Orientation>  (182) 
True

>  <Lig_Order_in_.pdb>  (182) 
Orthosteric

$$$$

     RDKit          2D

 10 11  0  0  0  0  0  0  0  0999 V2000
    1.5000    0.0000    0.0000 C   0  0  0  0  0  0  0  0  0  0  0  0
    0.7500   -1.2990    0.0000 C   0  0  0  0  0  0  0  0  0  0  0  0
   -0.7500   -1.2990    0.0000 C   0  0  0  0  0  0  0  0  0  0  0  0
   -1.5000    0.0000    0.0000 C   0  0  0  0  0  0  0  0  0  0  0  0
   -3.0000    0.0000    0.0000 C   0  0  0  0  0  0  0  0  0  0  0  0
   -3.7500    1.2990    0.0000 N   0  0  0  0  0  0  0  0  0  0  0  0
   -3.0000    2.5981    0.0000 C   0  0  0  0  0  0  0  0  0  0  0  0
   -1.5000    2.5981    0.0000 C   0  0  0  0  0  0  0  0  0  0  0  0
   -0.7500    1.2990    0.0000 C   0  0  0  0  0  0  0  0  0  0  0  0
    0.7500    1.2990    0.0000 C   0  0  0  0  0  0  0  0  0  0  0  0
  1  2  2  0
  2  3  1  0
  3  4  2  0
  4  5  1  0
  5  6  2  0
  6  7  1  0
  7  8  2  0
  8  9  1  0
  9 10  2  0
 10  1  1  0
  9  4  1  0
M  END
>  <Structure>  (183) 
6F14

>  <Dataset>  (183) 
PDB

>  <Chain>  (183) 
A

>  <Spatial_Label>  (183) 
DFGin

>  <Dihedral_Label>  (183) 
BLAminus

>  <C_Helix_Label>  (183) 
Chelix-in

>  <Lig_ID>  (183) 
ISQ

>  <Lig_Entity_ID>  (183) 
6F14_3

>  <Lig_Name>  (183) 
ISOQUINOLINE

>  <Lig_Formula>  (183) 
C9H7N

>  <Lig_SMILES>  (183) 
c1ccc2cnccc2c1

>  <Lig_MW>  (183) 
129.159

>  <Lig_ChEMBL_ID>  (183) 
['CHEMBL12315']

>  <Lig_DrugBank_ID>  (183) 
['DB04329']

>  <Occurence>  (183) 
2.0

>  <Lig_SMILES_Uncharged>  (183) 
c1ccc2cnccc2c1

>  <Lig_Conformer>  (183) 
['NaN']

>  <Lig_Of_Interest>  (183) 
['N']

>  <Lig_Completeness>  (183) 
[1.0]

>  <Lig_Occupancy>  (183) 
[0.84]

>  <Lig_RSCC>  (183) 
[0.926]

>  <Lig_RSR>  (183) 
[0.119]

>  <Lig_RMSZ_Bonds>  (183) 
[0.2]

>  <Lig_RMSZ_Angles>  (183) 
[0.29]

>  <Lig_Alt_Conf>  (183) 
0.0

>  <Title>  (183) 
Crystal structure of the cAMP-dependent protein kinase A cocrystallized with isoquinoline and PKI (5-24)

>  <Nonpolymer_Entity_Count>  (183) 
2.0

>  <Protein_Entity_Count>  (183) 
2.0

>  <Exp_Method>  (183) 
X-Ray Diffraction

>  <Cryst_Method>  (183) 
Vapor Diffusion, Hanging Drop; 30 Mm Mes-Bis-Tris-Buffer, 1Mm Dithiothreitol, 0.1 Mm Sodium Edta, 75 Mm Licl, 0.03 Mm Mega 8, 10 Mm Isoquinoline In Dmso, 0.07 Mm Pki (5-24) And Methanol 24 % (V/V)

>  <Deposit_Date>  (183) 
2017-11-21

>  <Resolution>  (183) 
1.867

>  <DOI>  (183) 
nan

>  <Source_Organism>  (183) 
Cricetulus griseus

>  <R_Free>  (183) 
0.2088

>  <Keywords>  (183) 
Transferase

>  <REMARK_280>  (183) 
 Crystal Solvent Content, Vs (%): 53.00 Matthews Coefficient, Vm (Angstroms**3/Da): 2.63 Crystallization Conditions: 30 Mm Mes-Bis-Tris-Buffer, 1Mm Dithiothreitol, 0.1 Mm Sodium Edta, 75 Mm Licl, 0.03 Mm Mega 8, 10 Mm Isoquinoline In Dmso, 0.07 Mm Pki (5-24) And Methanol 24 % (V/V), pH 7.0, Vapor Diffusion, Hanging Drop, Temperature 277K 

>  <REMARK_610>  (183) 
nan

>  <pH>  (183) 
7.0

>  <Cryst_Technique>  (183) 
nan

>  <Sequence>  (183) 
MGNAAAAKKGSEQESVKEFLAKAKEEFLKKWESPSQNTAQLDHFDRIKTLGTGSFGRVMLVKHKETGNHYAMKILDKQKVVKLKQIEHTLNEKRILQAVNFPFLVKLEFSFKDNSNLYMVMEYVPGGEMFSHLRRIGRFSEPHARFYAAQIVLTFEYLHSLDLIYRDLKPENLLIDQQGYIQVTDFGFAKRVKGRTWTLCGTPEYLAPEIILSKGYNKAVDWWALGVLIYEMAAGYPPFFADQPIQIYEKIVSGKVRFPSHFSSDLKDLLRNLLQVDLTKRFGNLKNGVNDIKNHKWFATTDWIAIYQRKVEAPFIPKFKGPGDTSNFDDYEEEEIRVSINEKCGKEFTEF

>  <Sequence_Length>  (183) 
351.0

>  <Mutation_Count>  (183) 
0.0

>  <Gene_Name>  (183) 
PKACA

>  <MW>  (183) 
40.839

>  <Name>  (183) 
cAMP-Dependent Protein Kinase Catalytic Subunit Alpha

>  <Mutations>  (183) 
nan

>  <EC_Number>  (183) 
2.7.11.11

>  <Peptidic_Inhibitor>  (183) 
True

>  <Lig_Missing_Atoms>  (183) 
['No']

>  <PDBbind_Resolution>  (183) 
nan

>  <PDBbind_Release_Year>  (183) 
nan

>  <PDBbind_Comment>  (183) 
nan

>  <PDBbind_Uniprot_Id>  (183) 
nan

>  <PDBbind_Protein_Name>  (183) 
nan

>  <PDBbind_-Logkd/Ki>  (183) 
nan

>  <PDBbind_Kd/Ki>  (183) 
nan

>  <PDBbind_Kd_Or_Ki_Or_Ic50>  (183) 
nan

>  <PDBbind_Relation>  (183) 
nan

>  <PDBbind_Value>  (183) 
nan

>  <PDBbind_Unit>  (183) 
nan

>  <PDBbind_Standard_Value>  (183) 
nan

>  <PDBbind_Standard_Unit>  (183) 
nan

>  <PDB_Chain>  (183) 
['A']

>  <Num_Ligs>  (183) 
[1.0]

>  <Orthosteric>  (183) 
[1.0]

>  <Allosteric>  (183) 
[0.0]

>  <Pockets_Assigned>  (183) 
['A']

>  <Multisite>  (183) 
[False]

>  <Same_Number>  (183) 
True

>  <Same_Binding_Site>  (183) 
True

>  <Same_Orientation>  (183) 
True

>  <Lig_Order_in_.pdb>  (183) 
Orthosteric

$$$$

     RDKit          2D

 26 28  0  0  0  0  0  0  0  0999 V2000
    6.0000   -2.5981    0.0000 C   0  0  0  0  0  0  0  0  0  0  0  0
    5.2500   -1.2990    0.0000 C   0  0  0  0  0  0  0  0  0  0  0  0
    3.7500   -1.2990    0.0000 C   0  0  0  0  0  0  0  0  0  0  0  0
    3.0000   -2.5981    0.0000 O   0  0  0  0  0  0  0  0  0  0  0  0
    3.0000    0.0000    0.0000 N   0  0  0  0  0  0  0  0  0  0  0  0
    1.5000    0.0000    0.0000 C   0  0  0  0  0  0  0  0  0  0  0  0
    0.7500   -1.2990    0.0000 C   0  0  0  0  0  0  0  0  0  0  0  0
   -0.7500   -1.2990    0.0000 C   0  0  0  0  0  0  0  0  0  0  0  0
   -1.5000    0.0000    0.0000 C   0  0  0  0  0  0  0  0  0  0  0  0
   -0.7500    1.2990    0.0000 C   0  0  0  0  0  0  0  0  0  0  0  0
    0.7500    1.2990    0.0000 C   0  0  0  0  0  0  0  0  0  0  0  0
   -1.5000    2.5981    0.0000 N   0  0  0  0  0  0  0  0  0  0  0  0
   -0.7500    3.8971    0.0000 C   0  0  0  0  0  0  0  0  0  0  0  0
    0.7500    3.8971    0.0000 C   0  0  0  0  0  0  0  0  0  0  0  0
    1.5000    5.1962    0.0000 C   0  0  0  0  0  0  0  0  0  0  0  0
    0.7500    6.4952    0.0000 N   0  0  0  0  0  0  0  0  0  0  0  0
   -0.7500    6.4952    0.0000 C   0  0  0  0  0  0  0  0  0  0  0  0
   -1.5000    5.1962    0.0000 N   0  0  0  0  0  0  0  0  0  0  0  0
   -1.5000    7.7942    0.0000 N   0  0  0  0  0  0  0  0  0  0  0  0
   -0.7500    9.0933    0.0000 C   0  0  0  0  0  0  0  0  0  0  0  0
    0.7500    9.0933    0.0000 C   0  0  0  0  0  0  0  0  0  0  0  0
    1.5000   10.3923    0.0000 C   0  0  0  0  0  0  0  0  0  0  0  0
    0.7500   11.6913    0.0000 C   0  0  0  0  0  0  0  0  0  0  0  0
   -0.7500   11.6913    0.0000 C   0  0  0  0  0  0  0  0  0  0  0  0
   -1.5000   10.3923    0.0000 C   0  0  0  0  0  0  0  0  0  0  0  0
    1.5000    2.5981    0.0000 Cl  0  0  0  0  0  0  0  0  0  0  0  0
  1  2  2  0
  2  3  1  0
  3  4  2  0
  3  5  1  0
  5  6  1  0
  6  7  2  0
  7  8  1  0
  8  9  2  0
  9 10  1  0
 10 11  2  0
 10 12  1  0
 12 13  1  0
 13 14  2  0
 14 15  1  0
 15 16  2  0
 16 17  1  0
 17 18  2  0
 17 19  1  0
 19 20  1  0
 20 21  2  0
 21 22  1  0
 22 23  2  0
 23 24  1  0
 24 25  2  0
 14 26  1  0
 11  6  1  0
 18 13  1  0
 25 20  1  0
M  END
>  <Structure>  (184) 
6FRX

>  <Dataset>  (184) 
PDB

>  <Chain>  (184) 
A

>  <Spatial_Label>  (184) 
DFGin

>  <Dihedral_Label>  (184) 
BLAminus

>  <C_Helix_Label>  (184) 
Chelix-in

>  <Lig_ID>  (184) 
E3Z

>  <Lig_Entity_ID>  (184) 
6FRX_3

>  <Lig_Name>  (184) 
~{N}-[3-[(5-chloranyl-2-phenylazanyl-pyrimidin-4-yl)amino]phenyl]prop-2-enamide

>  <Lig_Formula>  (184) 
C19H16ClN5O

>  <Lig_SMILES>  (184) 
C=CC(=O)Nc1cccc(c1)Nc2c(cnc(n2)Nc3ccccc3)Cl

>  <Lig_MW>  (184) 
365.816

>  <Lig_ChEMBL_ID>  (184) 
nan

>  <Lig_DrugBank_ID>  (184) 
nan

>  <Occurence>  (184) 
1.0

>  <Lig_SMILES_Uncharged>  (184) 
C=CC(=O)Nc1cccc(Nc2nc(Nc3ccccc3)ncc2Cl)c1

>  <Lig_Conformer>  (184) 
['NaN']

>  <Lig_Of_Interest>  (184) 
['Y']

>  <Lig_Completeness>  (184) 
[1.0]

>  <Lig_Occupancy>  (184) 
[1.0]

>  <Lig_RSCC>  (184) 
[0.926]

>  <Lig_RSR>  (184) 
[0.123]

>  <Lig_RMSZ_Bonds>  (184) 
[1.4]

>  <Lig_RMSZ_Angles>  (184) 
[3.26]

>  <Lig_Alt_Conf>  (184) 
0.0

>  <Title>  (184) 
PKA variant as Aurora B mimic in complex with a dianilinopyrimidine inhibitor

>  <Nonpolymer_Entity_Count>  (184) 
1.0

>  <Protein_Entity_Count>  (184) 
2.0

>  <Exp_Method>  (184) 
X-Ray Diffraction

>  <Cryst_Method>  (184) 
Vapor Diffusion, Hanging Drop; Pka-Au6 At 10Mg/Ml In 25Mm Bistris/Hcl (pH7.0), 150Mm Kcl, 1.5Mm Octanoyl-N-Methylglucamide And 0.8Mm Pki Was Equilibrated Against 12-26% (V/V) Methanol.

>  <Deposit_Date>  (184) 
2018-02-16

>  <Resolution>  (184) 
1.88

>  <DOI>  (184) 
nan

>  <Source_Organism>  (184) 
Homo sapiens

>  <R_Free>  (184) 
0.2264

>  <Keywords>  (184) 
Transferase

>  <REMARK_280>  (184) 
 Crystal Solvent Content, Vs (%): 51.92 Matthews Coefficient, Vm (Angstroms**3/Da): 2.56 Crystallization Conditions: Pka-Au6 At 10Mg/Ml In 25Mm Bistris/Hcl (pH7.0), 150Mm Kcl, 1.5Mm Octanoyl-N-Methylglucamide And 0.8Mm Pki Was Equilibrated Against 12-26% (V/V) Methanol., Vapor Diffusion, Hanging Drop, Temperature 277K 

>  <REMARK_610>  (184) 
nan

>  <pH>  (184) 
7.0

>  <Cryst_Technique>  (184) 
nan

>  <Sequence>  (184) 
MGNAAAAKKGSEQESVKEFLAKAKEDFLKKWESPAQNTAHLDQFERIRTLGTGSFGRVMLVKHKETGNHYAMKILDKQKVVKLKQIEHTLNEKRIQQAVNFPFLVKLEFSFKDNSNLYMVLEYAPGGEMFSHLRRIGRFSEPHARFYAAQIVLTFEYLHSLDLIYRDLKPENLLIDQQGYIKVADFGFAKRVKGRTWTLCGTPEYLAPEIILSKGYNKAVDWWALGVLIYEMAAGYPPFFADQPIQIYEKIVSGKVRFPSHFSSDLKDLLRNLLQVDLTKRFGNLKNGVNDIKNHKWFATTDWIAIYQRKVEAPFIPKFKGPGDTSNFDDYEEEEIRVSINEKCGKEFSEF

>  <Sequence_Length>  (184) 
351.0

>  <Mutation_Count>  (184) 
0.0

>  <Gene_Name>  (184) 
PKACA

>  <MW>  (184) 
40.856

>  <Name>  (184) 
cAMP-Dependent Protein Kinase Catalytic Subunit Alpha

>  <Mutations>  (184) 
nan

>  <EC_Number>  (184) 
2.7.11.11

>  <Peptidic_Inhibitor>  (184) 
True

>  <Lig_Missing_Atoms>  (184) 
['No']

>  <PDBbind_Resolution>  (184) 
nan

>  <PDBbind_Release_Year>  (184) 
nan

>  <PDBbind_Comment>  (184) 
nan

>  <PDBbind_Uniprot_Id>  (184) 
nan

>  <PDBbind_Protein_Name>  (184) 
nan

>  <PDBbind_-Logkd/Ki>  (184) 
nan

>  <PDBbind_Kd/Ki>  (184) 
nan

>  <PDBbind_Kd_Or_Ki_Or_Ic50>  (184) 
nan

>  <PDBbind_Relation>  (184) 
nan

>  <PDBbind_Value>  (184) 
nan

>  <PDBbind_Unit>  (184) 
nan

>  <PDBbind_Standard_Value>  (184) 
nan

>  <PDBbind_Standard_Unit>  (184) 
nan

>  <PDB_Chain>  (184) 
['A']

>  <Num_Ligs>  (184) 
[1.0]

>  <Orthosteric>  (184) 
[1.0]

>  <Allosteric>  (184) 
[0.0]

>  <Pockets_Assigned>  (184) 
['A']

>  <Multisite>  (184) 
[False]

>  <Same_Number>  (184) 
True

>  <Same_Binding_Site>  (184) 
True

>  <Same_Orientation>  (184) 
True

>  <Lig_Order_in_.pdb>  (184) 
Orthosteric

$$$$

     RDKit          2D

 20 22  0  0  0  0  0  0  0  0999 V2000
    0.7500   -3.8971    0.0000 C   0  0  0  0  0  0  0  0  0  0  0  0
    1.5000   -2.5981    0.0000 C   0  0  0  0  0  0  0  0  0  0  0  0
    0.7500   -1.2990    0.0000 C   0  0  0  0  0  0  0  0  0  0  0  0
    1.5000    0.0000    0.0000 C   0  0  0  0  0  0  0  0  0  0  0  0
    0.7500    1.2990    0.0000 N   0  0  0  0  0  0  0  0  0  0  0  0
   -0.7500    1.2990    0.0000 C   0  0  0  0  0  0  0  0  0  0  0  0
   -1.5000    0.0000    0.0000 C   0  0  0  0  0  0  0  0  0  0  0  0
   -0.7500   -1.2990    0.0000 C   0  0  0  0  0  0  0  0  0  0  0  0
   -1.5000   -2.5981    0.0000 C   0  0  0  0  0  0  0  0  0  0  0  0
   -0.7500   -3.8971    0.0000 C   0  0  0  0  0  0  0  0  0  0  0  0
   -3.0000   -2.5981    0.0000 S   0  0  0  0  0  0  0  0  0  0  0  0
   -3.0000   -4.0981    0.0000 O   0  0  0  0  0  0  0  0  0  0  0  0
   -3.0000   -1.0981    0.0000 O   0  0  0  0  0  0  0  0  0  0  0  0
   -4.5000   -2.5981    0.0000 N   0  0  0  0  0  0  0  0  0  0  0  0
   -5.1508   -3.9495    0.0000 C   0  0  0  0  0  0  0  0  0  0  0  0
   -6.6132   -4.2833    0.0000 C   0  0  0  0  0  0  0  0  0  0  0  0
   -7.7860   -3.3481    0.0000 C   0  0  0  0  0  0  0  0  0  0  0  0
   -7.7860   -1.8481    0.0000 N   0  0  0  0  0  0  0  0  0  0  0  0
   -6.6132   -0.9128    0.0000 C   0  0  0  0  0  0  0  0  0  0  0  0
   -5.1508   -1.2466    0.0000 C   0  0  0  0  0  0  0  0  0  0  0  0
  1  2  2  0
  2  3  1  0
  3  4  2  0
  4  5  1  0
  5  6  2  0
  6  7  1  0
  7  8  2  0
  8  9  1  0
  9 10  2  0
  9 11  1  0
 11 12  2  0
 11 13  2  0
 11 14  1  0
 14 15  1  0
 15 16  1  0
 16 17  1  0
 17 18  1  0
 18 19  1  0
 19 20  1  0
 10  1  1  0
  8  3  1  0
 20 14  1  0
M  END
>  <Structure>  (185) 
6I2A

>  <Dataset>  (185) 
PDB

>  <Chain>  (185) 
A

>  <Spatial_Label>  (185) 
DFGin

>  <Dihedral_Label>  (185) 
ABAminus

>  <C_Helix_Label>  (185) 
Chelix-in

>  <Lig_ID>  (185) 
M77

>  <Lig_Entity_ID>  (185) 
6I2A_3

>  <Lig_Name>  (185) 
5-(1,4-DIAZEPAN-1-SULFONYL)ISOQUINOLINE

>  <Lig_Formula>  (185) 
C14H17N3O2S

>  <Lig_SMILES>  (185) 
c1cc2cnccc2c(c1)S(=O)(=O)N3CCCNCC3

>  <Lig_MW>  (185) 
291.369

>  <Lig_ChEMBL_ID>  (185) 
['CHEMBL38380']

>  <Lig_DrugBank_ID>  (185) 
['DB08162']

>  <Occurence>  (185) 
10.0

>  <Lig_SMILES_Uncharged>  (185) 
O=S(=O)(c1cccc2cnccc12)N1CCCNCC1

>  <Lig_Conformer>  (185) 
['NaN']

>  <Lig_Of_Interest>  (185) 
['Y']

>  <Lig_Completeness>  (185) 
[1.0]

>  <Lig_Occupancy>  (185) 
[1.0]

>  <Lig_RSCC>  (185) 
[0.975]

>  <Lig_RSR>  (185) 
[0.082]

>  <Lig_RMSZ_Bonds>  (185) 
[0.34]

>  <Lig_RMSZ_Angles>  (185) 
[0.71]

>  <Lig_Alt_Conf>  (185) 
0.0

>  <Title>  (185) 
Crystal Structure of the Protein-Kinase A catalytic subunit from Cricetulus Griseus in complex with compounds RKp153 and Fasudil

>  <Nonpolymer_Entity_Count>  (185) 
2.0

>  <Protein_Entity_Count>  (185) 
2.0

>  <Exp_Method>  (185) 
X-Ray Diffraction

>  <Cryst_Method>  (185) 
Vapor Diffusion, Sitting Drop; 100 Mm Mes-Bis-Tris, 75 Mm Lithium Chloride, 1 Mm Dtt, 0.1 Mm Sodium Edta, 0.25 Mm Mega 8, 0.7 Mm Peptidic Ligand, 5 Mm Fasudil, 23% V/V Methanol/Water In Reservoir

>  <Deposit_Date>  (185) 
2018-11-01

>  <Resolution>  (185) 
1.75

>  <DOI>  (185) 
https://doi.org/10.1021/acsomega.8b02364

>  <Source_Organism>  (185) 
Cricetulus griseus

>  <R_Free>  (185) 
0.2068

>  <Keywords>  (185) 
Transferase

>  <REMARK_280>  (185) 
 Crystal Solvent Content, Vs (%): 58.15 Matthews Coefficient, Vm (Angstroms**3/Da): 2.94 Crystallization Conditions: 100 Mm Mes-Bis-Tris, 75 Mm Lithium Chloride, 1 Mm Dtt, 0.1 Mm Sodium Edta, 0.25 Mm Mega 8, 0.7 Mm Peptidic Ligand, 5 Mm Fasudil, 23% V/V Methanol/Water In Reservoir, pH 6.9, Vapor Diffusion, Sitting Drop, Temperature 277.15K 

>  <REMARK_610>  (185) 
nan

>  <pH>  (185) 
6.9

>  <Cryst_Technique>  (185) 
co-crystallized

>  <Sequence>  (185) 
GHMGNAAAAKKGSEQESVKEFLAKAKEEFLKKWESPSQNTAQLDHFDRIKTLGTGSFGRVMLVKHKETGNHYAMKILDKQKVVKLKQIEHTLNEKRILQAVNFPFLVKLEFSFKDNSNLYMVMEYVPGGEMFSHLRRIGRFSEPHARFYAAQIVLTFEYLHSLDLIYRDLKPENLLIDQQGYIQVTDFGFAKRVKGRTWTLCGTPEYLAPEIILSKGYNKAVDWWALGVLIYEMAAGYPPFFADQPIQIYEKIVSGKVRFPSHFSSDLKDLLRNLLQVDLTKRFGNLKNGVNDIKNHKWFATTDWIAIYQRKVEAPFIPKFKGPGDTSNFDDYEEEEIRVSINEKCGKEFTEF

>  <Sequence_Length>  (185) 
353.0

>  <Mutation_Count>  (185) 
0.0

>  <Gene_Name>  (185) 
PKACA

>  <MW>  (185) 
41.194

>  <Name>  (185) 
cAMP-Dependent Protein Kinase Catalytic Subunit Alpha

>  <Mutations>  (185) 
nan

>  <EC_Number>  (185) 
2.7.11.11

>  <Peptidic_Inhibitor>  (185) 
True

>  <Lig_Missing_Atoms>  (185) 
['No']

>  <PDBbind_Resolution>  (185) 
nan

>  <PDBbind_Release_Year>  (185) 
nan

>  <PDBbind_Comment>  (185) 
nan

>  <PDBbind_Uniprot_Id>  (185) 
nan

>  <PDBbind_Protein_Name>  (185) 
nan

>  <PDBbind_-Logkd/Ki>  (185) 
nan

>  <PDBbind_Kd/Ki>  (185) 
nan

>  <PDBbind_Kd_Or_Ki_Or_Ic50>  (185) 
nan

>  <PDBbind_Relation>  (185) 
nan

>  <PDBbind_Value>  (185) 
nan

>  <PDBbind_Unit>  (185) 
nan

>  <PDBbind_Standard_Value>  (185) 
nan

>  <PDBbind_Standard_Unit>  (185) 
nan

>  <PDB_Chain>  (185) 
['A']

>  <Num_Ligs>  (185) 
[1.0]

>  <Orthosteric>  (185) 
[1.0]

>  <Allosteric>  (185) 
[0.0]

>  <Pockets_Assigned>  (185) 
['A']

>  <Multisite>  (185) 
[False]

>  <Same_Number>  (185) 
True

>  <Same_Binding_Site>  (185) 
True

>  <Same_Orientation>  (185) 
True

>  <Lig_Order_in_.pdb>  (185) 
Orthosteric

$$$$

     RDKit          2D

 30 33  0  0  0  0  0  0  0  0999 V2000
   11.8403    0.1044    0.0000 B   0  0  0  0  0  0  0  0  0  0  0  0
   11.7282   -1.3914    0.0000 C   0  0  0  0  0  0  0  0  0  0  0  0
   12.9676   -2.2364    0.0000 C   0  0  0  0  0  0  0  0  0  0  0  0
   12.8555   -3.7322    0.0000 C   0  0  0  0  0  0  0  0  0  0  0  0
   11.5040   -4.3830    0.0000 C   0  0  0  0  0  0  0  0  0  0  0  0
   10.2647   -3.5380    0.0000 C   0  0  0  0  0  0  0  0  0  0  0  0
   10.3768   -2.0422    0.0000 C   0  0  0  0  0  0  0  0  0  0  0  0
    9.1374   -1.1973    0.0000 C   0  0  0  0  0  0  0  0  0  0  0  0
    7.7860   -1.8481    0.0000 N   0  0  0  0  0  0  0  0  0  0  0  0
    7.7860   -3.3481    0.0000 C   0  0  0  0  0  0  0  0  0  0  0  0
    6.6132   -4.2833    0.0000 C   0  0  0  0  0  0  0  0  0  0  0  0
    5.1508   -3.9495    0.0000 C   0  0  0  0  0  0  0  0  0  0  0  0
    4.5000   -2.5981    0.0000 N   0  0  0  0  0  0  0  0  0  0  0  0
    5.1508   -1.2466    0.0000 C   0  0  0  0  0  0  0  0  0  0  0  0
    6.6132   -0.9128    0.0000 C   0  0  0  0  0  0  0  0  0  0  0  0
    3.0000   -2.5981    0.0000 S   0  0  0  0  0  0  0  0  0  0  0  0
    3.0000   -4.0981    0.0000 O   0  0  0  0  0  0  0  0  0  0  0  0
    3.0000   -1.0981    0.0000 O   0  0  0  0  0  0  0  0  0  0  0  0
    1.5000   -2.5981    0.0000 C   0  0  0  0  0  0  0  0  0  0  0  0
    0.7500   -3.8971    0.0000 C   0  0  0  0  0  0  0  0  0  0  0  0
   -0.7500   -3.8971    0.0000 C   0  0  0  0  0  0  0  0  0  0  0  0
   -1.5000   -2.5981    0.0000 C   0  0  0  0  0  0  0  0  0  0  0  0
   -0.7500   -1.2990    0.0000 C   0  0  0  0  0  0  0  0  0  0  0  0
    0.7500   -1.2990    0.0000 C   0  0  0  0  0  0  0  0  0  0  0  0
    1.5000    0.0000    0.0000 C   0  0  0  0  0  0  0  0  0  0  0  0
    0.7500    1.2990    0.0000 C   0  0  0  0  0  0  0  0  0  0  0  0
   -0.7500    1.2990    0.0000 N   0  0  0  0  0  0  0  0  0  0  0  0
   -1.5000    0.0000    0.0000 C   0  0  0  0  0  0  0  0  0  0  0  0
   13.1918    0.7552    0.0000 O   0  0  0  0  0  0  0  0  0  0  0  0
   10.6010    0.9494    0.0000 O   0  0  0  0  0  0  0  0  0  0  0  0
  1  2  1  0
  2  3  2  0
  3  4  1  0
  4  5  2  0
  5  6  1  0
  6  7  2  0
  7  8  1  0
  8  9  1  0
  9 10  1  0
 10 11  1  0
 11 12  1  0
 12 13  1  0
 13 14  1  0
 14 15  1  0
 13 16  1  0
 16 17  2  0
 16 18  2  0
 16 19  1  0
 19 20  2  0
 20 21  1  0
 21 22  2  0
 22 23  1  0
 23 24  2  0
 24 25  1  0
 25 26  2  0
 26 27  1  0
 27 28  2  0
  1 29  1  0
  1 30  1  0
  7  2  1  0
 15  9  1  0
 24 19  1  0
 28 23  1  0
M  END
>  <Structure>  (186) 
6I2B

>  <Dataset>  (186) 
PDB

>  <Chain>  (186) 
A

>  <Spatial_Label>  (186) 
DFGin

>  <Dihedral_Label>  (186) 
ABAminus

>  <C_Helix_Label>  (186) 
Chelix-in

>  <Lig_ID>  (186) 
9LQ

>  <Lig_Entity_ID>  (186) 
6I2B_3

>  <Lig_Name>  (186) 
[2-[(4-isoquinolin-5-ylsulfonyl-1,4-diazepan-1-yl)methyl]phenyl]boronic acid

>  <Lig_Formula>  (186) 
C21H24BN3O4S

>  <Lig_SMILES>  (186) 
B(c1ccccc1CN2CCCN(CC2)S(=O)(=O)c3cccc4c3ccnc4)(O)O

>  <Lig_MW>  (186) 
425.309

>  <Lig_ChEMBL_ID>  (186) 
nan

>  <Lig_DrugBank_ID>  (186) 
nan

>  <Occurence>  (186) 
5.0

>  <Lig_SMILES_Uncharged>  (186) 
O=S(=O)(c1cccc2cnccc12)N1CCCN(Cc2ccccc2B(O)O)CC1

>  <Lig_Conformer>  (186) 
['NaN', 'NaN']

>  <Lig_Of_Interest>  (186) 
['Y', 'Y']

>  <Lig_Completeness>  (186) 
[1.0, 0.9]

>  <Lig_Occupancy>  (186) 
[1.0, 0.693]

>  <Lig_RSCC>  (186) 
[0.885, 0.891]

>  <Lig_RSR>  (186) 
[0.148, 0.164]

>  <Lig_RMSZ_Bonds>  (186) 
[0.9, 0.4]

>  <Lig_RMSZ_Angles>  (186) 
[1.75, 1.23]

>  <Lig_Alt_Conf>  (186) 
0.0

>  <Title>  (186) 
Crystal Structure of the Protein-Kinase A catalytic subunit from Cricetulus Griseus in complex with compounds RKp153 and RKp117

>  <Nonpolymer_Entity_Count>  (186) 
3.0

>  <Protein_Entity_Count>  (186) 
2.0

>  <Exp_Method>  (186) 
X-Ray Diffraction

>  <Cryst_Method>  (186) 
Vapor Diffusion, Sitting Drop; 100 Mm Mes-Bis-Tris, 75 Mm Lithium Chloride, 1 Mm Dtt, 0.1 Mm Sodium Edta, 0.25 Mm Mega 8, 0.7 Mm Peptidic Ligand, 5 Mm Rkp117, 15% V/V Methanol/Water In Reservoir

>  <Deposit_Date>  (186) 
2018-11-01

>  <Resolution>  (186) 
1.97

>  <DOI>  (186) 
https://doi.org/10.1021/acsomega.8b02364

>  <Source_Organism>  (186) 
Cricetulus griseus

>  <R_Free>  (186) 
0.2477

>  <Keywords>  (186) 
Transferase

>  <REMARK_280>  (186) 
 Crystal Solvent Content, Vs (%): 53.31 Matthews Coefficient, Vm (Angstroms**3/Da): 2.63 Crystallization Conditions: 100 Mm Mes-Bis-Tris, 75 Mm Lithium Chloride, 1 Mm Dtt, 0.1 Mm Sodium Edta, 0.25 Mm Mega 8, 0.7 Mm Peptidic Ligand, 5 Mm Rkp117, 15% V/V Methanol/Water In Reservoir, pH 6.9, Vapor Diffusion, Sitting Drop, Temperature 277.15K 

>  <REMARK_610>  (186) 
  9LQ A 402 RIP D 101 

>  <pH>  (186) 
6.9

>  <Cryst_Technique>  (186) 
co-crystallized

>  <Sequence>  (186) 
GHMGNAAAAKKGSEQESVKEFLAKAKEEFLKKWESPSQNTAQLDHFDRIKTLGTGSFGRVMLVKHKETGNHYAMKILDKQKVVKLKQIEHTLNEKRILQAVNFPFLVKLEFSFKDNSNLYMVMEYVPGGEMFSHLRRIGRFSEPHARFYAAQIVLTFEYLHSLDLIYRDLKPENLLIDQQGYIQVTDFGFAKRVKGRTWTLCGTPEYLAPEIILSKGYNKAVDWWALGVLIYEMAAGYPPFFADQPIQIYEKIVSGKVRFPSHFSSDLKDLLRNLLQVDLTKRFGNLKNGVNDIKNHKWFATTDWIAIYQRKVEAPFIPKFKGPGDTSNFDDYEEEEIRVSINEKCGKEFTEF

>  <Sequence_Length>  (186) 
353.0

>  <Mutation_Count>  (186) 
0.0

>  <Gene_Name>  (186) 
PKACA

>  <MW>  (186) 
41.194

>  <Name>  (186) 
cAMP-Dependent Protein Kinase Catalytic Subunit Alpha

>  <Mutations>  (186) 
nan

>  <EC_Number>  (186) 
2.7.11.11

>  <Peptidic_Inhibitor>  (186) 
True

>  <Lig_Missing_Atoms>  (186) 
['No', 'No']

>  <PDBbind_Resolution>  (186) 
nan

>  <PDBbind_Release_Year>  (186) 
nan

>  <PDBbind_Comment>  (186) 
nan

>  <PDBbind_Uniprot_Id>  (186) 
nan

>  <PDBbind_Protein_Name>  (186) 
nan

>  <PDBbind_-Logkd/Ki>  (186) 
nan

>  <PDBbind_Kd/Ki>  (186) 
nan

>  <PDBbind_Kd_Or_Ki_Or_Ic50>  (186) 
nan

>  <PDBbind_Relation>  (186) 
nan

>  <PDBbind_Value>  (186) 
nan

>  <PDBbind_Unit>  (186) 
nan

>  <PDBbind_Standard_Value>  (186) 
nan

>  <PDBbind_Standard_Unit>  (186) 
nan

>  <PDB_Chain>  (186) 
['A']

>  <Num_Ligs>  (186) 
[2.0]

>  <Orthosteric>  (186) 
[1.0]

>  <Allosteric>  (186) 
[1.0]

>  <Pockets_Assigned>  (186) 
['A, X']

>  <Multisite>  (186) 
[True]

>  <Same_Number>  (186) 
False

>  <Same_Binding_Site>  (186) 
True

>  <Same_Orientation>  (186) 
True

>  <Lig_Order_in_.pdb>  (186) 
Orthosteric, Allosteric

$$$$

     RDKit          2D

 20 22  0  0  0  0  0  0  0  0999 V2000
    0.7500   -3.8971    0.0000 C   0  0  0  0  0  0  0  0  0  0  0  0
    1.5000   -2.5981    0.0000 C   0  0  0  0  0  0  0  0  0  0  0  0
    0.7500   -1.2990    0.0000 C   0  0  0  0  0  0  0  0  0  0  0  0
    1.5000    0.0000    0.0000 C   0  0  0  0  0  0  0  0  0  0  0  0
    0.7500    1.2990    0.0000 N   0  0  0  0  0  0  0  0  0  0  0  0
   -0.7500    1.2990    0.0000 C   0  0  0  0  0  0  0  0  0  0  0  0
   -1.5000    0.0000    0.0000 C   0  0  0  0  0  0  0  0  0  0  0  0
   -0.7500   -1.2990    0.0000 C   0  0  0  0  0  0  0  0  0  0  0  0
   -1.5000   -2.5981    0.0000 C   0  0  0  0  0  0  0  0  0  0  0  0
   -0.7500   -3.8971    0.0000 C   0  0  0  0  0  0  0  0  0  0  0  0
   -3.0000   -2.5981    0.0000 S   0  0  0  0  0  0  0  0  0  0  0  0
   -3.0000   -4.0981    0.0000 O   0  0  0  0  0  0  0  0  0  0  0  0
   -3.0000   -1.0981    0.0000 O   0  0  0  0  0  0  0  0  0  0  0  0
   -4.5000   -2.5981    0.0000 N   0  0  0  0  0  0  0  0  0  0  0  0
   -5.1508   -3.9495    0.0000 C   0  0  0  0  0  0  0  0  0  0  0  0
   -6.6132   -4.2833    0.0000 C   0  0  0  0  0  0  0  0  0  0  0  0
   -7.7860   -3.3481    0.0000 C   0  0  0  0  0  0  0  0  0  0  0  0
   -7.7860   -1.8481    0.0000 N   0  0  0  0  0  0  0  0  0  0  0  0
   -6.6132   -0.9128    0.0000 C   0  0  0  0  0  0  0  0  0  0  0  0
   -5.1508   -1.2466    0.0000 C   0  0  0  0  0  0  0  0  0  0  0  0
  1  2  2  0
  2  3  1  0
  3  4  2  0
  4  5  1  0
  5  6  2  0
  6  7  1  0
  7  8  2  0
  8  9  1  0
  9 10  2  0
  9 11  1  0
 11 12  2  0
 11 13  2  0
 11 14  1  0
 14 15  1  0
 15 16  1  0
 16 17  1  0
 17 18  1  0
 18 19  1  0
 19 20  1  0
 10  1  1  0
  8  3  1  0
 20 14  1  0
M  END
>  <Structure>  (187) 
6I2C

>  <Dataset>  (187) 
PDB

>  <Chain>  (187) 
A

>  <Spatial_Label>  (187) 
DFGin

>  <Dihedral_Label>  (187) 
ABAminus

>  <C_Helix_Label>  (187) 
Chelix-in

>  <Lig_ID>  (187) 
M77

>  <Lig_Entity_ID>  (187) 
6I2C_3

>  <Lig_Name>  (187) 
5-(1,4-DIAZEPAN-1-SULFONYL)ISOQUINOLINE

>  <Lig_Formula>  (187) 
C14H17N3O2S

>  <Lig_SMILES>  (187) 
c1cc2cnccc2c(c1)S(=O)(=O)N3CCCNCC3

>  <Lig_MW>  (187) 
291.369

>  <Lig_ChEMBL_ID>  (187) 
['CHEMBL38380']

>  <Lig_DrugBank_ID>  (187) 
['DB08162']

>  <Occurence>  (187) 
10.0

>  <Lig_SMILES_Uncharged>  (187) 
O=S(=O)(c1cccc2cnccc12)N1CCCNCC1

>  <Lig_Conformer>  (187) 
['NaN']

>  <Lig_Of_Interest>  (187) 
['Y']

>  <Lig_Completeness>  (187) 
[1.0]

>  <Lig_Occupancy>  (187) 
[1.0]

>  <Lig_RSCC>  (187) 
[0.959]

>  <Lig_RSR>  (187) 
[0.122]

>  <Lig_RMSZ_Bonds>  (187) 
[0.42]

>  <Lig_RMSZ_Angles>  (187) 
[0.64]

>  <Lig_Alt_Conf>  (187) 
0.0

>  <Title>  (187) 
Crystal Structure of the Protein-Kinase A catalytic subunit from Cricetulus Griseus in complex with compounds RKp182 and Fasudil

>  <Nonpolymer_Entity_Count>  (187) 
2.0

>  <Protein_Entity_Count>  (187) 
2.0

>  <Exp_Method>  (187) 
X-Ray Diffraction

>  <Cryst_Method>  (187) 
Vapor Diffusion, Sitting Drop; 100 Mm Mes-Bis-Tris, 75 Mm Lithium Chloride, 1 Mm Dtt, 0.1 Mm Sodium Edta, 0.25 Mm Mega 8, 0.7 Mm Peptidic Ligand, 5 Mm Fasudil, 16% V/V Methanol/Water In Reservoir

>  <Deposit_Date>  (187) 
2018-11-01

>  <Resolution>  (187) 
1.82

>  <DOI>  (187) 
https://doi.org/10.1021/acsomega.8b02364

>  <Source_Organism>  (187) 
Cricetulus griseus

>  <R_Free>  (187) 
0.2211

>  <Keywords>  (187) 
Transferase

>  <REMARK_280>  (187) 
 Crystal Solvent Content, Vs (%): 51.74 Matthews Coefficient, Vm (Angstroms**3/Da): 2.55 Crystallization Conditions: 100 Mm Mes-Bis-Tris, 75 Mm Lithium Chloride, 1 Mm Dtt, 0.1 Mm Sodium Edta, 0.25 Mm Mega 8, 0.7 Mm Peptidic Ligand, 5 Mm Fasudil, 16% V/V Methanol/Water In Reservoir, pH 6.9, Vapor Diffusion, Sitting Drop, Temperature 277.15K 

>  <REMARK_610>  (187) 
  RIP B 101 

>  <pH>  (187) 
6.9

>  <Cryst_Technique>  (187) 
co-crystallized

>  <Sequence>  (187) 
GHMGNAAAAKKGSEQESVKEFLAKAKEEFLKKWESPSQNTAQLDHFDRIKTLGTGSFGRVMLVKHKETGNHYAMKILDKQKVVKLKQIEHTLNEKRILQAVNFPFLVKLEFSFKDNSNLYMVMEYVPGGEMFSHLRRIGRFSEPHARFYAAQIVLTFEYLHSLDLIYRDLKPENLLIDQQGYIQVTDFGFAKRVKGRTWTLCGTPEYLAPEIILSKGYNKAVDWWALGVLIYEMAAGYPPFFADQPIQIYEKIVSGKVRFPSHFSSDLKDLLRNLLQVDLTKRFGNLKNGVNDIKNHKWFATTDWIAIYQRKVEAPFIPKFKGPGDTSNFDDYEEEEIRVSINEKCGKEFTEF

>  <Sequence_Length>  (187) 
353.0

>  <Mutation_Count>  (187) 
0.0

>  <Gene_Name>  (187) 
PKACA

>  <MW>  (187) 
41.194

>  <Name>  (187) 
cAMP-Dependent Protein Kinase Catalytic Subunit Alpha

>  <Mutations>  (187) 
nan

>  <EC_Number>  (187) 
2.7.11.11

>  <Peptidic_Inhibitor>  (187) 
True

>  <Lig_Missing_Atoms>  (187) 
['No']

>  <PDBbind_Resolution>  (187) 
nan

>  <PDBbind_Release_Year>  (187) 
nan

>  <PDBbind_Comment>  (187) 
nan

>  <PDBbind_Uniprot_Id>  (187) 
nan

>  <PDBbind_Protein_Name>  (187) 
nan

>  <PDBbind_-Logkd/Ki>  (187) 
nan

>  <PDBbind_Kd/Ki>  (187) 
nan

>  <PDBbind_Kd_Or_Ki_Or_Ic50>  (187) 
nan

>  <PDBbind_Relation>  (187) 
nan

>  <PDBbind_Value>  (187) 
nan

>  <PDBbind_Unit>  (187) 
nan

>  <PDBbind_Standard_Value>  (187) 
nan

>  <PDBbind_Standard_Unit>  (187) 
nan

>  <PDB_Chain>  (187) 
['A']

>  <Num_Ligs>  (187) 
[1.0]

>  <Orthosteric>  (187) 
[1.0]

>  <Allosteric>  (187) 
[0.0]

>  <Pockets_Assigned>  (187) 
['A']

>  <Multisite>  (187) 
[False]

>  <Same_Number>  (187) 
True

>  <Same_Binding_Site>  (187) 
True

>  <Same_Orientation>  (187) 
True

>  <Lig_Order_in_.pdb>  (187) 
Orthosteric

$$$$

     RDKit          2D

 30 33  0  0  0  0  0  0  0  0999 V2000
   11.8403    0.1044    0.0000 B   0  0  0  0  0  0  0  0  0  0  0  0
   11.7282   -1.3914    0.0000 C   0  0  0  0  0  0  0  0  0  0  0  0
   12.9676   -2.2364    0.0000 C   0  0  0  0  0  0  0  0  0  0  0  0
   12.8555   -3.7322    0.0000 C   0  0  0  0  0  0  0  0  0  0  0  0
   11.5040   -4.3830    0.0000 C   0  0  0  0  0  0  0  0  0  0  0  0
   10.2647   -3.5380    0.0000 C   0  0  0  0  0  0  0  0  0  0  0  0
   10.3768   -2.0422    0.0000 C   0  0  0  0  0  0  0  0  0  0  0  0
    9.1374   -1.1973    0.0000 C   0  0  0  0  0  0  0  0  0  0  0  0
    7.7860   -1.8481    0.0000 N   0  0  0  0  0  0  0  0  0  0  0  0
    7.7860   -3.3481    0.0000 C   0  0  0  0  0  0  0  0  0  0  0  0
    6.6132   -4.2833    0.0000 C   0  0  0  0  0  0  0  0  0  0  0  0
    5.1508   -3.9495    0.0000 C   0  0  0  0  0  0  0  0  0  0  0  0
    4.5000   -2.5981    0.0000 N   0  0  0  0  0  0  0  0  0  0  0  0
    5.1508   -1.2466    0.0000 C   0  0  0  0  0  0  0  0  0  0  0  0
    6.6132   -0.9128    0.0000 C   0  0  0  0  0  0  0  0  0  0  0  0
    3.0000   -2.5981    0.0000 S   0  0  0  0  0  0  0  0  0  0  0  0
    3.0000   -4.0981    0.0000 O   0  0  0  0  0  0  0  0  0  0  0  0
    3.0000   -1.0981    0.0000 O   0  0  0  0  0  0  0  0  0  0  0  0
    1.5000   -2.5981    0.0000 C   0  0  0  0  0  0  0  0  0  0  0  0
    0.7500   -3.8971    0.0000 C   0  0  0  0  0  0  0  0  0  0  0  0
   -0.7500   -3.8971    0.0000 C   0  0  0  0  0  0  0  0  0  0  0  0
   -1.5000   -2.5981    0.0000 C   0  0  0  0  0  0  0  0  0  0  0  0
   -0.7500   -1.2990    0.0000 C   0  0  0  0  0  0  0  0  0  0  0  0
    0.7500   -1.2990    0.0000 C   0  0  0  0  0  0  0  0  0  0  0  0
    1.5000    0.0000    0.0000 C   0  0  0  0  0  0  0  0  0  0  0  0
    0.7500    1.2990    0.0000 C   0  0  0  0  0  0  0  0  0  0  0  0
   -0.7500    1.2990    0.0000 N   0  0  0  0  0  0  0  0  0  0  0  0
   -1.5000    0.0000    0.0000 C   0  0  0  0  0  0  0  0  0  0  0  0
   13.1918    0.7552    0.0000 O   0  0  0  0  0  0  0  0  0  0  0  0
   10.6010    0.9494    0.0000 O   0  0  0  0  0  0  0  0  0  0  0  0
  1  2  1  0
  2  3  2  0
  3  4  1  0
  4  5  2  0
  5  6  1  0
  6  7  2  0
  7  8  1  0
  8  9  1  0
  9 10  1  0
 10 11  1  0
 11 12  1  0
 12 13  1  0
 13 14  1  0
 14 15  1  0
 13 16  1  0
 16 17  2  0
 16 18  2  0
 16 19  1  0
 19 20  2  0
 20 21  1  0
 21 22  2  0
 22 23  1  0
 23 24  2  0
 24 25  1  0
 25 26  2  0
 26 27  1  0
 27 28  2  0
  1 29  1  0
  1 30  1  0
  7  2  1  0
 15  9  1  0
 24 19  1  0
 28 23  1  0
M  END
>  <Structure>  (188) 
6I2D

>  <Dataset>  (188) 
PDB

>  <Chain>  (188) 
A

>  <Spatial_Label>  (188) 
DFGin

>  <Dihedral_Label>  (188) 
ABAminus

>  <C_Helix_Label>  (188) 
Chelix-in

>  <Lig_ID>  (188) 
9LQ

>  <Lig_Entity_ID>  (188) 
6I2D_3

>  <Lig_Name>  (188) 
[2-[(4-isoquinolin-5-ylsulfonyl-1,4-diazepan-1-yl)methyl]phenyl]boronic acid

>  <Lig_Formula>  (188) 
C21H24BN3O4S

>  <Lig_SMILES>  (188) 
B(c1ccccc1CN2CCCN(CC2)S(=O)(=O)c3cccc4c3ccnc4)(O)O

>  <Lig_MW>  (188) 
425.309

>  <Lig_ChEMBL_ID>  (188) 
nan

>  <Lig_DrugBank_ID>  (188) 
nan

>  <Occurence>  (188) 
5.0

>  <Lig_SMILES_Uncharged>  (188) 
O=S(=O)(c1cccc2cnccc12)N1CCCN(Cc2ccccc2B(O)O)CC1

>  <Lig_Conformer>  (188) 
['NaN']

>  <Lig_Of_Interest>  (188) 
['Y']

>  <Lig_Completeness>  (188) 
[1.0]

>  <Lig_Occupancy>  (188) 
[1.0]

>  <Lig_RSCC>  (188) 
[0.91]

>  <Lig_RSR>  (188) 
[0.132]

>  <Lig_RMSZ_Bonds>  (188) 
[1.03]

>  <Lig_RMSZ_Angles>  (188) 
[2.61]

>  <Lig_Alt_Conf>  (188) 
0.0

>  <Title>  (188) 
Crystal Structure of the Protein-Kinase A catalytic subunit from Cricetulus Griseus in complex with compounds RKp182 and RKp117

>  <Nonpolymer_Entity_Count>  (188) 
1.0

>  <Protein_Entity_Count>  (188) 
2.0

>  <Exp_Method>  (188) 
X-Ray Diffraction

>  <Cryst_Method>  (188) 
Vapor Diffusion, Sitting Drop; 100 Mm Mes-Bis-Tris, 75 Mm Lithium Chloride, 1 Mm Dtt, 0.1 Mm Sodium Edta, 0.25 Mm Mega 8, 0.7 Mm Peptidic Ligand, 5 Mm Rkp117, 19% V/V Methanol/Water In Reservoir

>  <Deposit_Date>  (188) 
2018-11-01

>  <Resolution>  (188) 
1.91

>  <DOI>  (188) 
https://doi.org/10.1021/acsomega.8b02364

>  <Source_Organism>  (188) 
Cricetulus griseus

>  <R_Free>  (188) 
0.2217

>  <Keywords>  (188) 
Transferase

>  <REMARK_280>  (188) 
 Crystal Solvent Content, Vs (%): 53.57 Matthews Coefficient, Vm (Angstroms**3/Da): 2.65 Crystallization Conditions: 100 Mm Mes-Bis-Tris, 75 Mm Lithium Chloride, 1 Mm Dtt, 0.1 Mm Sodium Edta, 0.25 Mm Mega 8, 0.7 Mm Peptidic Ligand, 5 Mm Rkp117, 19% V/V Methanol/Water In Reservoir, pH 6.9, Vapor Diffusion, Sitting Drop, Temperature 277.15K 

>  <REMARK_610>  (188) 
nan

>  <pH>  (188) 
6.9

>  <Cryst_Technique>  (188) 
co-crystallized

>  <Sequence>  (188) 
GHMGNAAAAKKGSEQESVKEFLAKAKEEFLKKWESPSQNTAQLDHFDRIKTLGTGSFGRVMLVKHKETGNHYAMKILDKQKVVKLKQIEHTLNEKRILQAVNFPFLVKLEFSFKDNSNLYMVMEYVPGGEMFSHLRRIGRFSEPHARFYAAQIVLTFEYLHSLDLIYRDLKPENLLIDQQGYIQVTDFGFAKRVKGRTWTLCGTPEYLAPEIILSKGYNKAVDWWALGVLIYEMAAGYPPFFADQPIQIYEKIVSGKVRFPSHFSSDLKDLLRNLLQVDLTKRFGNLKNGVNDIKNHKWFATTDWIAIYQRKVEAPFIPKFKGPGDTSNFDDYEEEEIRVSINEKCGKEFTEF

>  <Sequence_Length>  (188) 
353.0

>  <Mutation_Count>  (188) 
0.0

>  <Gene_Name>  (188) 
PKACA

>  <MW>  (188) 
41.194

>  <Name>  (188) 
cAMP-Dependent Protein Kinase Catalytic Subunit Alpha

>  <Mutations>  (188) 
nan

>  <EC_Number>  (188) 
2.7.11.11

>  <Peptidic_Inhibitor>  (188) 
True

>  <Lig_Missing_Atoms>  (188) 
['No']

>  <PDBbind_Resolution>  (188) 
nan

>  <PDBbind_Release_Year>  (188) 
nan

>  <PDBbind_Comment>  (188) 
nan

>  <PDBbind_Uniprot_Id>  (188) 
nan

>  <PDBbind_Protein_Name>  (188) 
nan

>  <PDBbind_-Logkd/Ki>  (188) 
nan

>  <PDBbind_Kd/Ki>  (188) 
nan

>  <PDBbind_Kd_Or_Ki_Or_Ic50>  (188) 
nan

>  <PDBbind_Relation>  (188) 
nan

>  <PDBbind_Value>  (188) 
nan

>  <PDBbind_Unit>  (188) 
nan

>  <PDBbind_Standard_Value>  (188) 
nan

>  <PDBbind_Standard_Unit>  (188) 
nan

>  <PDB_Chain>  (188) 
['A']

>  <Num_Ligs>  (188) 
[1.0]

>  <Orthosteric>  (188) 
[1.0]

>  <Allosteric>  (188) 
[0.0]

>  <Pockets_Assigned>  (188) 
['A']

>  <Multisite>  (188) 
[True]

>  <Same_Number>  (188) 
False

>  <Same_Binding_Site>  (188) 
True

>  <Same_Orientation>  (188) 
True

>  <Lig_Order_in_.pdb>  (188) 
Orthosteric

$$$$

     RDKit          2D

 27 29  0  0  0  0  0  0  0  0999 V2000
    7.5000    2.5981    0.0000 B   0  0  0  0  0  0  0  0  0  0  0  0
    9.0000    2.5981    0.0000 C   0  0  0  0  0  0  0  0  0  0  0  0
    9.7500    3.8971    0.0000 C   0  0  0  0  0  0  0  0  0  0  0  0
   11.2500    3.8971    0.0000 C   0  0  0  0  0  0  0  0  0  0  0  0
   12.0000    2.5981    0.0000 C   0  0  0  0  0  0  0  0  0  0  0  0
   11.2500    1.2990    0.0000 C   0  0  0  0  0  0  0  0  0  0  0  0
    9.7500    1.2990    0.0000 C   0  0  0  0  0  0  0  0  0  0  0  0
    9.0000    0.0000    0.0000 C   0  0  0  0  0  0  0  0  0  0  0  0
    7.5000    0.0000    0.0000 N   0  0  0  0  0  0  0  0  0  0  0  0
    6.7500   -1.2990    0.0000 C   0  0  0  0  0  0  0  0  0  0  0  0
    5.2500   -1.2990    0.0000 C   0  0  0  0  0  0  0  0  0  0  0  0
    4.5000   -2.5981    0.0000 N   0  0  0  0  0  0  0  0  0  0  0  0
    3.0000   -2.5981    0.0000 S   0  0  0  0  0  0  0  0  0  0  0  0
    3.0000   -4.0981    0.0000 O   0  0  0  0  0  0  0  0  0  0  0  0
    3.0000   -1.0981    0.0000 O   0  0  0  0  0  0  0  0  0  0  0  0
    1.5000   -2.5981    0.0000 C   0  0  0  0  0  0  0  0  0  0  0  0
    0.7500   -3.8971    0.0000 C   0  0  0  0  0  0  0  0  0  0  0  0
   -0.7500   -3.8971    0.0000 C   0  0  0  0  0  0  0  0  0  0  0  0
   -1.5000   -2.5981    0.0000 C   0  0  0  0  0  0  0  0  0  0  0  0
   -0.7500   -1.2990    0.0000 C   0  0  0  0  0  0  0  0  0  0  0  0
    0.7500   -1.2990    0.0000 C   0  0  0  0  0  0  0  0  0  0  0  0
    1.5000    0.0000    0.0000 C   0  0  0  0  0  0  0  0  0  0  0  0
    0.7500    1.2990    0.0000 C   0  0  0  0  0  0  0  0  0  0  0  0
   -0.7500    1.2990    0.0000 N   0  0  0  0  0  0  0  0  0  0  0  0
   -1.5000    0.0000    0.0000 C   0  0  0  0  0  0  0  0  0  0  0  0
    6.7500    3.8971    0.0000 O   0  0  0  0  0  0  0  0  0  0  0  0
    6.7500    1.2990    0.0000 O   0  0  0  0  0  0  0  0  0  0  0  0
  1  2  1  0
  2  3  2  0
  3  4  1  0
  4  5  2  0
  5  6  1  0
  6  7  2  0
  7  8  1  0
  8  9  1  0
  9 10  1  0
 10 11  1  0
 11 12  1  0
 12 13  1  0
 13 14  2  0
 13 15  2  0
 13 16  1  0
 16 17  2  0
 17 18  1  0
 18 19  2  0
 19 20  1  0
 20 21  2  0
 21 22  1  0
 22 23  2  0
 23 24  1  0
 24 25  2  0
  1 26  1  0
  1 27  1  0
  7  2  1  0
 21 16  1  0
 25 20  1  0
M  END
>  <Structure>  (189) 
6I2H

>  <Dataset>  (189) 
PDB

>  <Chain>  (189) 
A

>  <Spatial_Label>  (189) 
DFGin

>  <Dihedral_Label>  (189) 
ABAminus

>  <C_Helix_Label>  (189) 
Chelix-in

>  <Lig_ID>  (189) 
AO8

>  <Lig_Entity_ID>  (189) 
6I2H_3

>  <Lig_Name>  (189) 
[2-[[2-(isoquinolin-5-ylsulfonylamino)ethylamino]methyl]phenyl]boronic acid

>  <Lig_Formula>  (189) 
C18H20BN3O4S

>  <Lig_SMILES>  (189) 
B(c1ccccc1CNCCNS(=O)(=O)c2cccc3c2ccnc3)(O)O

>  <Lig_MW>  (189) 
385.245

>  <Lig_ChEMBL_ID>  (189) 
nan

>  <Lig_DrugBank_ID>  (189) 
nan

>  <Occurence>  (189) 
3.0

>  <Lig_SMILES_Uncharged>  (189) 
O=S(=O)(NCCNCc1ccccc1B(O)O)c1cccc2cnccc12

>  <Lig_Conformer>  (189) 
['NaN']

>  <Lig_Of_Interest>  (189) 
['Y']

>  <Lig_Completeness>  (189) 
[0.8889]

>  <Lig_Occupancy>  (189) 
[0.8889]

>  <Lig_RSCC>  (189) 
[0.937]

>  <Lig_RSR>  (189) 
[0.104]

>  <Lig_RMSZ_Bonds>  (189) 
[0.39]

>  <Lig_RMSZ_Angles>  (189) 
[0.69]

>  <Lig_Alt_Conf>  (189) 
0.0

>  <Title>  (189) 
Crystal Structure of the Protein-Kinase A catalytic subunit from Cricetulus Griseus in complex with compounds RKp182 and RKp190

>  <Nonpolymer_Entity_Count>  (189) 
3.0

>  <Protein_Entity_Count>  (189) 
2.0

>  <Exp_Method>  (189) 
X-Ray Diffraction

>  <Cryst_Method>  (189) 
Vapor Diffusion, Sitting Drop; 100 Mm Mes-Bis-Tris, 75 Mm Lithium Chloride, 1 Mm Dtt, 0.1 Mm Sodium Edta, 0.25 Mm Mega 8, 0.7 Mm Peptidic Ligand, 5 Mm Rkp190, 20% V/V Methanol/Water In Reservoir

>  <Deposit_Date>  (189) 
2018-11-01

>  <Resolution>  (189) 
1.68

>  <DOI>  (189) 
nan

>  <Source_Organism>  (189) 
Cricetulus griseus

>  <R_Free>  (189) 
0.2018

>  <Keywords>  (189) 
Transferase

>  <REMARK_280>  (189) 
 Crystal Solvent Content, Vs (%): 57.07 Matthews Coefficient, Vm (Angstroms**3/Da): 2.86 Crystallization Conditions: 100 Mm Mes-Bis-Tris, 75 Mm Lithium Chloride, 1 Mm Dtt, 0.1 Mm Sodium Edta, 0.25 Mm Mega 8, 0.7 Mm Peptidic Ligand, 5 Mm Rkp190, 20% V/V Methanol/Water In Reservoir, pH 6.9, Vapor Diffusion, Sitting Drop, Temperature 277.15K 

>  <REMARK_610>  (189) 
  AO8 A 401 

>  <pH>  (189) 
6.9

>  <Cryst_Technique>  (189) 
nan

>  <Sequence>  (189) 
GHMGNAAAAKKGSEQESVKEFLAKAKEEFLKKWESPSQNTAQLDHFDRIKTLGTGSFGRVMLVKHKETGNHYAMKILDKQKVVKLKQIEHTLNEKRILQAVNFPFLVKLEFSFKDNSNLYMVMEYVPGGEMFSHLRRIGRFSEPHARFYAAQIVLTFEYLHSLDLIYRDLKPENLLIDQQGYIQVTDFGFAKRVKGRTWTLCGTPEYLAPEIILSKGYNKAVDWWALGVLIYEMAAGYPPFFADQPIQIYEKIVSGKVRFPSHFSSDLKDLLRNLLQVDLTKRFGNLKNGVNDIKNHKWFATTDWIAIYQRKVEAPFIPKFKGPGDTSNFDDYEEEEIRVSINEKCGKEFTEF

>  <Sequence_Length>  (189) 
353.0

>  <Mutation_Count>  (189) 
0.0

>  <Gene_Name>  (189) 
PKACA

>  <MW>  (189) 
41.194

>  <Name>  (189) 
cAMP-Dependent Protein Kinase Catalytic Subunit Alpha

>  <Mutations>  (189) 
nan

>  <EC_Number>  (189) 
2.7.11.11

>  <Peptidic_Inhibitor>  (189) 
True

>  <Lig_Missing_Atoms>  (189) 
['No']

>  <PDBbind_Resolution>  (189) 
nan

>  <PDBbind_Release_Year>  (189) 
nan

>  <PDBbind_Comment>  (189) 
nan

>  <PDBbind_Uniprot_Id>  (189) 
nan

>  <PDBbind_Protein_Name>  (189) 
nan

>  <PDBbind_-Logkd/Ki>  (189) 
nan

>  <PDBbind_Kd/Ki>  (189) 
nan

>  <PDBbind_Kd_Or_Ki_Or_Ic50>  (189) 
nan

>  <PDBbind_Relation>  (189) 
nan

>  <PDBbind_Value>  (189) 
nan

>  <PDBbind_Unit>  (189) 
nan

>  <PDBbind_Standard_Value>  (189) 
nan

>  <PDBbind_Standard_Unit>  (189) 
nan

>  <PDB_Chain>  (189) 
['A']

>  <Num_Ligs>  (189) 
[1.0]

>  <Orthosteric>  (189) 
[1.0]

>  <Allosteric>  (189) 
[0.0]

>  <Pockets_Assigned>  (189) 
['A']

>  <Multisite>  (189) 
[False]

>  <Same_Number>  (189) 
True

>  <Same_Binding_Site>  (189) 
True

>  <Same_Orientation>  (189) 
True

>  <Lig_Order_in_.pdb>  (189) 
Orthosteric

$$$$

     RDKit          2D

 31 33  0  0  0  0  0  0  0  0999 V2000
    1.5000    0.0000    0.0000 C   0  0  0  0  0  0  0  0  0  0  0  0
    0.7500   -1.2990    0.0000 N   0  0  0  0  0  0  0  0  0  0  0  0
   -0.7500   -1.2990    0.0000 C   0  0  0  0  0  0  0  0  0  0  0  0
   -1.5000    0.0000    0.0000 C   0  0  0  0  0  0  0  0  0  0  0  0
   -0.7500    1.2990    0.0000 C   0  0  0  0  0  0  0  0  0  0  0  0
    0.7500    1.2990    0.0000 N   0  0  0  0  0  0  0  0  0  0  0  0
   -1.7537    2.4138    0.0000 N   0  0  0  0  0  0  0  0  0  0  0  0
   -3.1240    1.8037    0.0000 C   0  0  0  0  0  0  0  0  0  0  0  0
   -2.9672    0.3119    0.0000 N   0  0  0  0  0  0  0  0  0  0  0  0
   -1.4418    3.8810    0.0000 C   0  0  0  0  0  0  0  0  0  0  0  0
   -2.4455    4.9957    0.0000 C   0  0  0  0  0  0  0  0  0  0  0  0
   -1.6955    6.2947    0.0000 C   0  0  0  0  0  0  0  0  0  0  0  0
   -0.2283    5.9829    0.0000 C   0  0  0  0  0  0  0  0  0  0  0  0
   -0.0715    4.4911    0.0000 O   0  0  0  0  0  0  0  0  0  0  0  0
    0.8864    6.9866    0.0000 C   0  0  0  0  0  0  0  0  0  0  0  0
    2.3130    6.5230    0.0000 O   0  0  0  0  0  0  0  0  0  0  0  0
    3.4277    7.5267    0.0000 P   0  0  0  0  0  5  0  0  0  0  0  0
    2.4240    8.6414    0.0000 O   0  0  0  0  0  0  0  0  0  0  0  0
    4.4314    6.4120    0.0000 O   0  0  0  0  0  0  0  0  0  0  0  0
    4.5424    8.5304    0.0000 O   0  0  0  0  0  0  0  0  0  0  0  0
    4.2306    9.9976    0.0000 P   0  0  0  0  0  5  0  0  0  0  0  0
    2.7633    9.6858    0.0000 O   0  0  0  0  0  0  0  0  0  0  0  0
    5.6978   10.3095    0.0000 N   0  0  0  0  0  0  0  0  0  0  0  0
    6.1613   11.7361    0.0000 P   0  0  0  0  0  0  0  0  0  0  0  0
    6.6248   13.1627    0.0000 O   0  0  0  0  0  0  0  0  0  0  0  0
    7.5879   11.2726    0.0000 O   0  0  0  0  0  0  0  0  0  0  0  0
    4.7347   12.1996    0.0000 O   0  0  0  0  0  0  0  0  0  0  0  0
    3.9187   11.4649    0.0000 O   0  0  0  0  0  0  0  0  0  0  0  0
   -2.3056    7.6651    0.0000 O   0  0  0  0  0  0  0  0  0  0  0  0
   -3.9373    4.8389    0.0000 O   0  0  0  0  0  0  0  0  0  0  0  0
   -1.5000   -2.5981    0.0000 N   0  0  0  0  0  0  0  0  0  0  0  0
  1  2  2  0
  2  3  1  0
  3  4  2  0
  4  5  1  0
  5  6  2  0
  5  7  1  0
  7  8  1  0
  8  9  2  0
 10  7  1  1
 10 11  1  0
 11 12  1  0
 12 13  1  0
 13 14  1  0
 13 15  1  1
 15 16  1  0
 16 17  1  0
 17 18  2  0
 17 19  1  6
 17 20  1  0
 20 21  1  0
 21 22  2  0
 21 23  1  0
 23 24  1  0
 24 25  2  0
 24 26  1  0
 24 27  1  0
 21 28  1  6
 12 29  1  6
 11 30  1  6
  3 31  1  0
  6  1  1  0
  9  4  1  0
 14 10  1  0
M  END
>  <Structure>  (190) 
6MM5

>  <Dataset>  (190) 
PDB

>  <Chain>  (190) 
E

>  <Spatial_Label>  (190) 
DFGin

>  <Dihedral_Label>  (190) 
BLAminus

>  <C_Helix_Label>  (190) 
Chelix-in

>  <Lig_ID>  (190) 
ANP

>  <Lig_Entity_ID>  (190) 
6MM5_4

>  <Lig_Name>  (190) 
PHOSPHOAMINOPHOSPHONIC ACID-ADENYLATE ESTER

>  <Lig_Formula>  (190) 
C10H17N6O12P3

>  <Lig_SMILES>  (190) 
c1nc(c2c(n1)n(cn2)[C@H]3[C@@H]([C@@H]([C@H](O3)CO[P@](=O)(O)O[P@@](=O)(NP(=O)(O)O)O)O)O)N

>  <Lig_MW>  (190) 
506.196

>  <Lig_ChEMBL_ID>  (190) 
['CHEMBL1230989']

>  <Lig_DrugBank_ID>  (190) 
nan

>  <Occurence>  (190) 
13.0

>  <Lig_SMILES_Uncharged>  (190) 
Nc1ncnc2c1ncn2[C@@H]1O[C@H](CO[P@](=O)(O)O[P@](=O)(O)NP(=O)(O)O)[C@@H](O)[C@H]1O

>  <Lig_Conformer>  (190) 
['B']

>  <Lig_Of_Interest>  (190) 
['Y']

>  <Lig_Completeness>  (190) 
[1.0]

>  <Lig_Occupancy>  (190) 
[1.0]

>  <Lig_RSCC>  (190) 
[0.98]

>  <Lig_RSR>  (190) 
[0.11]

>  <Lig_RMSZ_Bonds>  (190) 
[1.43]

>  <Lig_RMSZ_Angles>  (190) 
[1.26]

>  <Lig_Alt_Conf>  (190) 
1.0

>  <Title>  (190) 
Catalytic subunit of cAMP-dependent protein kinase A in complex with RyR2 peptide (2799-2810)

>  <Nonpolymer_Entity_Count>  (190) 
3.0

>  <Protein_Entity_Count>  (190) 
2.0

>  <Exp_Method>  (190) 
X-Ray Diffraction

>  <Cryst_Method>  (190) 
Vapor Diffusion, Sitting Drop; 0.2M Trimethylamine N-Oxide, 0.1 M Tris-Hcl, 20% (W/V) Peg Monomethyl Ether 2K
25% (V/V) Ethylene Glycol

>  <Deposit_Date>  (190) 
2018-09-29

>  <Resolution>  (190) 
1.95

>  <DOI>  (190) 
nan

>  <Source_Organism>  (190) 
Mus musculus

>  <R_Free>  (190) 
0.2265

>  <Keywords>  (190) 
Transferase/Protein Binding

>  <REMARK_280>  (190) 
 Crystal Solvent Content, Vs (%): 50.06 Matthews Coefficient, Vm (Angstroms**3/Da): 2.46 Crystallization Conditions: 0.2M Trimethylamine N-Oxide, 0.1 M Tris-Hcl, 20% (W/V) Peg Monomethyl Ether 2K 25% (V/V) Ethylene Glycol, pH 8.5, Vapor Diffusion, Sitting Drop, Temperature 277K 

>  <REMARK_610>  (190) 
nan

>  <pH>  (190) 
8.5

>  <Cryst_Technique>  (190) 
nan

>  <Sequence>  (190) 
SNAVKEFLAKAKEDFLKKWETPSQNTAQLDQFDRIKTLGTGSFGRVMLVKHKESGNHYAMKILDKQKVVKLKQIEHTLNEKRILQAVNFPFLVKLEFSFKDNSNLYMVMEYVAGGEMFSHLRRIGRFSEPHARFYAAQIVLTFEYLHSLDLIYRDLKPENLLIDQQGYIQVTDFGFAKRVKGRTWTLCGTPEYLAPEIILSKGYNKAVDWWALGVLIYEMAAGYPPFFADQPIQIYEKIVSGKVRFPSHFSSDLKDLLRNLLQVDLTKRFGNLKNGVNDIKNHKWFATTDWIAIYQRKVEAPFIPKFKGPGDTSNFDDYEEEEIRVSINEKCGKEFTEF

>  <Sequence_Length>  (190) 
339.0

>  <Mutation_Count>  (190) 
0.0

>  <Gene_Name>  (190) 
PKACA

>  <MW>  (190) 
39.598

>  <Name>  (190) 
cAMP-Dependent Protein Kinase Catalytic Subunit Alpha

>  <Mutations>  (190) 
nan

>  <EC_Number>  (190) 
2.7.11.11

>  <Peptidic_Inhibitor>  (190) 
True

>  <Lig_Missing_Atoms>  (190) 
['No']

>  <PDBbind_Resolution>  (190) 
nan

>  <PDBbind_Release_Year>  (190) 
nan

>  <PDBbind_Comment>  (190) 
nan

>  <PDBbind_Uniprot_Id>  (190) 
nan

>  <PDBbind_Protein_Name>  (190) 
nan

>  <PDBbind_-Logkd/Ki>  (190) 
nan

>  <PDBbind_Kd/Ki>  (190) 
nan

>  <PDBbind_Kd_Or_Ki_Or_Ic50>  (190) 
nan

>  <PDBbind_Relation>  (190) 
nan

>  <PDBbind_Value>  (190) 
nan

>  <PDBbind_Unit>  (190) 
nan

>  <PDBbind_Standard_Value>  (190) 
nan

>  <PDBbind_Standard_Unit>  (190) 
nan

>  <PDB_Chain>  (190) 
['E']

>  <Num_Ligs>  (190) 
[1.0]

>  <Orthosteric>  (190) 
[1.0]

>  <Allosteric>  (190) 
[0.0]

>  <Pockets_Assigned>  (190) 
['A']

>  <Multisite>  (190) 
[False]

>  <Same_Number>  (190) 
True

>  <Same_Binding_Site>  (190) 
True

>  <Same_Orientation>  (190) 
True

>  <Lig_Order_in_.pdb>  (190) 
Orthosteric

$$$$

     RDKit          2D

 26 27  0  0  0  0  0  0  0  0999 V2000
    3.7500   -1.2990    0.0000 C   0  0  0  0  0  0  0  0  0  0  0  0
    3.0000    0.0000    0.0000 C   0  0  0  0  0  0  0  0  0  0  0  0
    1.5000    0.0000    0.0000 C   0  0  0  0  0  0  0  0  0  0  0  0
    0.7500   -1.2990    0.0000 C   0  0  0  0  0  0  0  0  0  0  0  0
   -0.7500   -1.2990    0.0000 C   0  0  0  0  0  0  0  0  0  0  0  0
   -1.5000    0.0000    0.0000 C   0  0  0  0  0  0  0  0  0  0  0  0
   -0.7500    1.2990    0.0000 C   0  0  0  0  0  0  0  0  0  0  0  0
    0.7500    1.2990    0.0000 C   0  0  0  0  0  0  0  0  0  0  0  0
    1.5000    2.5981    0.0000 C   0  0  0  0  0  0  0  0  0  0  0  0
    3.0000    2.5981    0.0000 O   0  0  0  0  0  0  0  0  0  0  0  0
    0.7500    3.8971    0.0000 N   0  0  0  0  0  0  0  0  0  0  0  0
    1.5000    5.1962    0.0000 N   0  0  0  0  0  0  0  0  0  0  0  0
    0.7500    6.4952    0.0000 C   0  0  0  0  0  0  0  0  0  0  0  0
   -0.7500    6.4952    0.0000 O   0  0  0  0  0  0  0  0  0  0  0  0
    1.5000    7.7942    0.0000 C   0  0  0  0  0  0  0  0  0  0  0  0
    0.7500    9.0933    0.0000 C   0  0  0  0  0  0  0  0  0  0  0  0
    1.5000   10.3923    0.0000 C   0  0  0  0  0  0  0  0  0  0  0  0
    0.7500   11.6913    0.0000 C   0  0  0  0  0  0  0  0  0  0  0  0
   -0.7500   11.6913    0.0000 C   0  0  0  0  0  0  0  0  0  0  0  0
   -1.5000   10.3923    0.0000 C   0  0  0  0  0  0  0  0  0  0  0  0
   -0.7500    9.0933    0.0000 C   0  0  0  0  0  0  0  0  0  0  0  0
   -3.0000   10.3923    0.0000 F   0  0  0  0  0  0  0  0  0  0  0  0
    1.5000   12.9904    0.0000 F   0  0  0  0  0  0  0  0  0  0  0  0
    3.0000    7.7942    0.0000 O   0  0  0  0  0  0  0  0  0  0  0  0
   -1.5000   -2.5981    0.0000 O   0  0  0  0  0  0  0  0  0  0  0  0
    1.5000   -2.5981    0.0000 C   0  0  0  0  0  0  0  0  0  0  0  0
  1  2  1  0
  2  3  1  0
  3  4  2  0
  4  5  1  0
  5  6  2  0
  6  7  1  0
  7  8  2  0
  8  9  1  0
  9 10  2  0
  9 11  1  0
 11 12  1  0
 12 13  1  0
 13 14  2  0
 13 15  1  0
 15 16  1  0
 16 17  2  0
 17 18  1  0
 18 19  2  0
 19 20  1  0
 20 21  2  0
 20 22  1  0
 18 23  1  0
 15 24  1  6
  5 25  1  0
  4 26  1  0
  8  3  1  0
 21 16  1  0
M  END
>  <Structure>  (191) 
6QJ7

>  <Dataset>  (191) 
PDB

>  <Chain>  (191) 
A

>  <Spatial_Label>  (191) 
DFGin

>  <Dihedral_Label>  (191) 
BLAminus

>  <C_Helix_Label>  (191) 
Chelix-in

>  <Lig_ID>  (191) 
J4B

>  <Lig_Entity_ID>  (191) 
6QJ7_3

>  <Lig_Name>  (191) 
~{N}'-[(2~{S})-2-[3,5-bis(fluoranyl)phenyl]-2-oxidanyl-ethanoyl]-2-ethyl-3-methyl-4-oxidanyl-benzohydrazide

>  <Lig_Formula>  (191) 
C18H18F2N2O4

>  <Lig_SMILES>  (191) 
CCc1c(c(ccc1C(=O)NNC(=O)[C@H](c2cc(cc(c2)F)F)O)O)C

>  <Lig_MW>  (191) 
364.343

>  <Lig_ChEMBL_ID>  (191) 
nan

>  <Lig_DrugBank_ID>  (191) 
nan

>  <Occurence>  (191) 
1.0

>  <Lig_SMILES_Uncharged>  (191) 
CCc1c(C(=O)NNC(=O)[C@@H](O)c2cc(F)cc(F)c2)ccc(O)c1C

>  <Lig_Conformer>  (191) 
['NaN']

>  <Lig_Of_Interest>  (191) 
['Y']

>  <Lig_Completeness>  (191) 
[1.0]

>  <Lig_Occupancy>  (191) 
[1.0]

>  <Lig_RSCC>  (191) 
[0.928]

>  <Lig_RSR>  (191) 
[0.088]

>  <Lig_RMSZ_Bonds>  (191) 
[0.86]

>  <Lig_RMSZ_Angles>  (191) 
[1.57]

>  <Lig_Alt_Conf>  (191) 
0.0

>  <Title>  (191) 
Difluorophenyl diacylhydrazides: Potent inhibitors of Serum- and Glucocorticoid-inducible Kinase 1 (SGK1)

>  <Nonpolymer_Entity_Count>  (191) 
1.0

>  <Protein_Entity_Count>  (191) 
2.0

>  <Exp_Method>  (191) 
X-Ray Diffraction

>  <Cryst_Method>  (191) 
Vapor Diffusion, Hanging Drop; 5Mm Mes, 5Mm Bis-Tris-Propane, 75Mm Licl, 1Mm Dtt, 0.1Mm Edta, 1.4Mm Pka-Peptide, 1.4Mm Mega-8, 14% Et-Oh As Well Solution

>  <Deposit_Date>  (191) 
2019-01-23

>  <Resolution>  (191) 
1.69

>  <DOI>  (191) 
nan

>  <Source_Organism>  (191) 
Homo sapiens

>  <R_Free>  (191) 
0.214

>  <Keywords>  (191) 
Transferase

>  <REMARK_280>  (191) 
 Crystal Solvent Content, Vs (%): 52.09 Matthews Coefficient, Vm (Angstroms**3/Da): 2.57 Crystallization Conditions: 5Mm Mes, 5Mm Bis-Tris-Propane, 75Mm Licl, 1Mm Dtt, 0.1Mm Edta, 1.4Mm Pka-Peptide, 1.4Mm Mega-8, 14% Et-Oh As Well Solution, Vapor Diffusion, Hanging Drop, Temperature 293K 

>  <REMARK_610>  (191) 
nan

>  <pH>  (191) 
nan

>  <Cryst_Technique>  (191) 
nan

>  <Sequence>  (191) 
MGNAAAAKKGSEQESVKEFLAKAKEDFLKKWESPAQNTAHLDQFERIKTLGTGSFGRVMLVKHKETGNHYAMKILDKQKVVKLKQIEHTLNEKRILQAVNFPFLVKLEFSFKDNSNLYMVMEYVPGGEMFSHLRRIGRFSEPHARFYAAQIVLTFEYLHSLDLIYRDLKPENLLIDQQGYIQVTDFGFAKRVKGRTWTLCGTPEYLAPEIILSKGYNKAVDWWALGVLIYEMAAGYPPFFADQPIQIYEKIVSGKVRFPSHFSSDLKDLLRNLLQVDLTKRFGNLKNGVNDIKNHKWFATTDWIAIYQRKVEAPFIPKFKGPGDTSNFDDYEEEEIRVSINEKCGKEFSEF

>  <Sequence_Length>  (191) 
351.0

>  <Mutation_Count>  (191) 
0.0

>  <Gene_Name>  (191) 
PKACA

>  <MW>  (191) 
40.809

>  <Name>  (191) 
cAMP-Dependent Protein Kinase Catalytic Subunit Alpha

>  <Mutations>  (191) 
nan

>  <EC_Number>  (191) 
2.7.11.11

>  <Peptidic_Inhibitor>  (191) 
True

>  <Lig_Missing_Atoms>  (191) 
['No']

>  <PDBbind_Resolution>  (191) 
nan

>  <PDBbind_Release_Year>  (191) 
nan

>  <PDBbind_Comment>  (191) 
nan

>  <PDBbind_Uniprot_Id>  (191) 
nan

>  <PDBbind_Protein_Name>  (191) 
nan

>  <PDBbind_-Logkd/Ki>  (191) 
nan

>  <PDBbind_Kd/Ki>  (191) 
nan

>  <PDBbind_Kd_Or_Ki_Or_Ic50>  (191) 
nan

>  <PDBbind_Relation>  (191) 
nan

>  <PDBbind_Value>  (191) 
nan

>  <PDBbind_Unit>  (191) 
nan

>  <PDBbind_Standard_Value>  (191) 
nan

>  <PDBbind_Standard_Unit>  (191) 
nan

>  <PDB_Chain>  (191) 
['A']

>  <Num_Ligs>  (191) 
[1.0]

>  <Orthosteric>  (191) 
[1.0]

>  <Allosteric>  (191) 
[0.0]

>  <Pockets_Assigned>  (191) 
['A']

>  <Multisite>  (191) 
[False]

>  <Same_Number>  (191) 
True

>  <Same_Binding_Site>  (191) 
True

>  <Same_Orientation>  (191) 
True

>  <Lig_Order_in_.pdb>  (191) 
Orthosteric

$$$$

     RDKit          2D

  9  9  0  0  0  0  0  0  0  0999 V2000
    1.5000    0.0000    0.0000 C   0  0  0  0  0  0  0  0  0  0  0  0
    0.7500   -1.2990    0.0000 C   0  0  0  0  0  0  0  0  0  0  0  0
   -0.7500   -1.2990    0.0000 C   0  0  0  0  0  0  0  0  0  0  0  0
   -1.5000    0.0000    0.0000 C   0  0  0  0  0  0  0  0  0  0  0  0
   -0.7500    1.2990    0.0000 C   0  0  0  0  0  0  0  0  0  0  0  0
    0.7500    1.2990    0.0000 C   0  0  0  0  0  0  0  0  0  0  0  0
   -3.0000    0.0000    0.0000 C   0  0  0  0  0  0  0  0  0  0  0  0
   -3.7500   -1.2990    0.0000 O   0  0  0  0  0  0  0  0  0  0  0  0
   -3.7500    1.2990    0.0000 O   0  0  0  0  0  0  0  0  0  0  0  0
  1  2  2  0
  2  3  1  0
  3  4  2  0
  4  5  1  0
  5  6  2  0
  4  7  1  0
  7  8  2  0
  7  9  1  0
  6  1  1  0
M  END
>  <Structure>  (192) 
6SNN

>  <Dataset>  (192) 
PDB

>  <Chain>  (192) 
A

>  <Spatial_Label>  (192) 
DFGin

>  <Dihedral_Label>  (192) 
BLAminus

>  <C_Helix_Label>  (192) 
Chelix-in

>  <Lig_ID>  (192) 
BEZ

>  <Lig_Entity_ID>  (192) 
6SNN_2

>  <Lig_Name>  (192) 
BENZOIC ACID

>  <Lig_Formula>  (192) 
C7H6O2

>  <Lig_SMILES>  (192) 
c1ccc(cc1)C(=O)O

>  <Lig_MW>  (192) 
122.121

>  <Lig_ChEMBL_ID>  (192) 
['CHEMBL541']

>  <Lig_DrugBank_ID>  (192) 
['DB03793']

>  <Occurence>  (192) 
1.0

>  <Lig_SMILES_Uncharged>  (192) 
O=C(O)c1ccccc1

>  <Lig_Conformer>  (192) 
['NaN', 'NaN']

>  <Lig_Of_Interest>  (192) 
['Y', 'Y']

>  <Lig_Completeness>  (192) 
[1.0, 1.0]

>  <Lig_Occupancy>  (192) 
[1.0, 1.0]

>  <Lig_RSCC>  (192) 
[0.968, 0.937]

>  <Lig_RSR>  (192) 
[0.085, 0.12]

>  <Lig_RMSZ_Bonds>  (192) 
[0.18, 0.14]

>  <Lig_RMSZ_Angles>  (192) 
[0.25, 0.17]

>  <Lig_Alt_Conf>  (192) 
0.0

>  <Title>  (192) 
Crystal structure of cAMP-dependent protein kinase A (CHO PKA) in complex with benzoic acid

>  <Nonpolymer_Entity_Count>  (192) 
2.0

>  <Protein_Entity_Count>  (192) 
1.0

>  <Exp_Method>  (192) 
X-Ray Diffraction

>  <Cryst_Method>  (192) 
Vapor Diffusion, Sitting Drop; 100 Mm Mes-Bis-Tris-Buffer, 1Mm Dithiothreitol, 0.1 Mm Sodium Edta, 75 Mm Licl, 0.03 Mm Mega 8 And 23 % Methanol (V/V)
0.003 Ml Drop Volume, 0.5 Ml Reservoir Volume

>  <Deposit_Date>  (192) 
2019-08-27

>  <Resolution>  (192) 
1.817

>  <DOI>  (192) 
https://doi.org/10.1002/anie.202011295

>  <Source_Organism>  (192) 
Cricetulus griseus

>  <R_Free>  (192) 
0.209

>  <Keywords>  (192) 
Transferase

>  <REMARK_280>  (192) 
 Crystal Solvent Content, Vs (%): 45.30 Matthews Coefficient, Vm (Angstroms**3/Da): 2.25 Crystallization Conditions: 100 Mm Mes-Bis-Tris-Buffer, 1Mm Dithiothreitol, 0.1 Mm Sodium Edta, 75 Mm Licl, 0.03 Mm Mega 8 And 23 % Methanol (V/V) 0.003 Ml Drop Volume, 0.5 Ml Reservoir Volume, pH 6.9, Vapor Diffusion, Sitting Drop, Temperature 277K 

>  <REMARK_610>  (192) 
nan

>  <pH>  (192) 
6.9

>  <Cryst_Technique>  (192) 
soaked

>  <Sequence>  (192) 
MGNAAAAKKGSEQESVKEFLAKAKEEFLKKWESPSQNTAQLDHFDRIKTLGTGSFGRVMLVKHKETGNHYAMKILDKQKVVKLKQIEHTLNEKRILQAVNFPFLVKLEFSFKDNSNLYMVMEYVPGGEMFSHLRRIGRFSEPHARFYAAQIVLTFEYLHSLDLIYRDLKPENLLIDQQGYIQVTDFGFAKRVKGRTWTLCGTPEYLAPEIILSKGYNKAVDWWALGVLIYEMAAGYPPFFADQPIQIYEKIVSGKVRFPSHFSSDLKDLLRNLLQVDLTKRFGNLKNGVNDIKNHKWFATTDWIAIYQRKVEAPFIPKFKGPGDTSNFDDYEEEEIRVSINEKCGKEFTEF

>  <Sequence_Length>  (192) 
351.0

>  <Mutation_Count>  (192) 
0.0

>  <Gene_Name>  (192) 
PKACA

>  <MW>  (192) 
40.919

>  <Name>  (192) 
cAMP-Dependent Protein Kinase Catalytic Subunit Alpha

>  <Mutations>  (192) 
nan

>  <EC_Number>  (192) 
2.7.11.11

>  <Peptidic_Inhibitor>  (192) 
False

>  <Lig_Missing_Atoms>  (192) 
['No', 'No']

>  <PDBbind_Resolution>  (192) 
nan

>  <PDBbind_Release_Year>  (192) 
nan

>  <PDBbind_Comment>  (192) 
nan

>  <PDBbind_Uniprot_Id>  (192) 
nan

>  <PDBbind_Protein_Name>  (192) 
nan

>  <PDBbind_-Logkd/Ki>  (192) 
nan

>  <PDBbind_Kd/Ki>  (192) 
nan

>  <PDBbind_Kd_Or_Ki_Or_Ic50>  (192) 
nan

>  <PDBbind_Relation>  (192) 
nan

>  <PDBbind_Value>  (192) 
nan

>  <PDBbind_Unit>  (192) 
nan

>  <PDBbind_Standard_Value>  (192) 
nan

>  <PDBbind_Standard_Unit>  (192) 
nan

>  <PDB_Chain>  (192) 
['A']

>  <Num_Ligs>  (192) 
[2.0]

>  <Orthosteric>  (192) 
[1.0]

>  <Allosteric>  (192) 
[1.0]

>  <Pockets_Assigned>  (192) 
['A, X']

>  <Multisite>  (192) 
[True]

>  <Same_Number>  (192) 
True

>  <Same_Binding_Site>  (192) 
True

>  <Same_Orientation>  (192) 
True

>  <Lig_Order_in_.pdb>  (192) 
Orthosteric, Allosteric

$$$$

     RDKit          2D

  9  9  0  0  0  0  0  0  0  0999 V2000
    1.5000    0.0000    0.0000 C   0  0  0  0  0  0  0  0  0  0  0  0
    0.7500   -1.2990    0.0000 C   0  0  0  0  0  0  0  0  0  0  0  0
   -0.7500   -1.2990    0.0000 C   0  0  0  0  0  0  0  0  0  0  0  0
   -1.5000    0.0000    0.0000 C   0  0  0  0  0  0  0  0  0  0  0  0
   -0.7500    1.2990    0.0000 C   0  0  0  0  0  0  0  0  0  0  0  0
    0.7500    1.2990    0.0000 C   0  0  0  0  0  0  0  0  0  0  0  0
   -3.0000    0.0000    0.0000 C   0  0  0  0  0  0  0  0  0  0  0  0
   -3.7500   -1.2990    0.0000 O   0  0  0  0  0  0  0  0  0  0  0  0
   -3.7500    1.2990    0.0000 N   0  0  0  0  0  0  0  0  0  0  0  0
  1  2  2  0
  2  3  1  0
  3  4  2  0
  4  5  1  0
  5  6  2  0
  4  7  1  0
  7  8  2  0
  7  9  1  0
  6  1  1  0
M  END
>  <Structure>  (193) 
6SNX

>  <Dataset>  (193) 
PDB

>  <Chain>  (193) 
A

>  <Spatial_Label>  (193) 
DFGin

>  <Dihedral_Label>  (193) 
BLAminus

>  <C_Helix_Label>  (193) 
Chelix-in

>  <Lig_ID>  (193) 
UNU

>  <Lig_Entity_ID>  (193) 
6SNX_2

>  <Lig_Name>  (193) 
BENZAMIDE

>  <Lig_Formula>  (193) 
C7H7NO

>  <Lig_SMILES>  (193) 
c1ccc(cc1)C(=O)N

>  <Lig_MW>  (193) 
121.137

>  <Lig_ChEMBL_ID>  (193) 
['CHEMBL267373']

>  <Lig_DrugBank_ID>  (193) 
nan

>  <Occurence>  (193) 
1.0

>  <Lig_SMILES_Uncharged>  (193) 
NC(=O)c1ccccc1

>  <Lig_Conformer>  (193) 
['NaN', 'NaN']

>  <Lig_Of_Interest>  (193) 
['N', 'N']

>  <Lig_Completeness>  (193) 
[1.0, 1.0]

>  <Lig_Occupancy>  (193) 
[1.0, 1.0]

>  <Lig_RSCC>  (193) 
[0.813, 0.966]

>  <Lig_RSR>  (193) 
[0.178, 0.073]

>  <Lig_RMSZ_Bonds>  (193) 
[0.31, 0.45]

>  <Lig_RMSZ_Angles>  (193) 
[0.19, 0.27]

>  <Lig_Alt_Conf>  (193) 
0.0

>  <Title>  (193) 
Crystal structure of cAMP-dependent protein kinase A (CHO PKA) in complex with benzamide

>  <Nonpolymer_Entity_Count>  (193) 
2.0

>  <Protein_Entity_Count>  (193) 
1.0

>  <Exp_Method>  (193) 
X-Ray Diffraction

>  <Cryst_Method>  (193) 
Vapor Diffusion, Sitting Drop; 100 Mm Mes-Bis-Tris-Buffer, 1 Mm Dithiothreitol, 0.1 Mm Sodium Edta, 75 Mm Licl, 0.03 Mega 8 And 23 % Methanol (V/V)
0.003 Ml Drop Volume, 0.5 Ml Reservoir Volume

>  <Deposit_Date>  (193) 
2019-08-27

>  <Resolution>  (193) 
1.4

>  <DOI>  (193) 
https://doi.org/10.1002/anie.202011295

>  <Source_Organism>  (193) 
Cricetulus griseus

>  <R_Free>  (193) 
0.1734

>  <Keywords>  (193) 
Transferase

>  <REMARK_280>  (193) 
 Crystal Solvent Content, Vs (%): 43.70 Matthews Coefficient, Vm (Angstroms**3/Da): 2.18 Crystallization Conditions: 100 Mm Mes-Bis-Tris-Buffer, 1 Mm Dithiothreitol, 0.1 Mm Sodium Edta, 75 Mm Licl, 0.03 Mega 8 And 23 % Methanol (V/V) 0.003 Ml Drop Volume, 0.5 Ml Reservoir Volume, pH 6.9, Vapor Diffusion, Sitting Drop, Temperature 277K 

>  <REMARK_610>  (193) 
nan

>  <pH>  (193) 
6.9

>  <Cryst_Technique>  (193) 
soaked

>  <Sequence>  (193) 
GHMGNAAAAKKGSEQESVKEFLAKAKEEFLKKWESPSQNTAQLDHFDRIKTLGTGSFGRVMLVKHKETGNHYAMKILDKQKVVKLKQIEHTLNEKRILQAVNFPFLVKLEFSFKDNSNLYMVMEYVPGGEMFSHLRRIGRFSEPHARFYAAQIVLTFEYLHSLDLIYRDLKPENLLIDQQGYIQVTDFGFAKRVKGRTWTLCGTPEYLAPEIILSKGYNKAVDWWALGVLIYEMAAGYPPFFADQPIQIYEKIVSGKVRFPSHFSSDLKDLLRNLLQVDLTKRFGNLKNGVNDIKNHKWFATTDWIAIYQRKVEAPFIPKFKGPGDTSNFDDYEEEEIRVSINEKCGKEFTEF

>  <Sequence_Length>  (193) 
353.0

>  <Mutation_Count>  (193) 
0.0

>  <Gene_Name>  (193) 
PKACA

>  <MW>  (193) 
41.114

>  <Name>  (193) 
cAMP-Dependent Protein Kinase Catalytic Subunit Alpha

>  <Mutations>  (193) 
nan

>  <EC_Number>  (193) 
2.7.11.11

>  <Peptidic_Inhibitor>  (193) 
False

>  <Lig_Missing_Atoms>  (193) 
['No', 'No']

>  <PDBbind_Resolution>  (193) 
nan

>  <PDBbind_Release_Year>  (193) 
nan

>  <PDBbind_Comment>  (193) 
nan

>  <PDBbind_Uniprot_Id>  (193) 
nan

>  <PDBbind_Protein_Name>  (193) 
nan

>  <PDBbind_-Logkd/Ki>  (193) 
nan

>  <PDBbind_Kd/Ki>  (193) 
nan

>  <PDBbind_Kd_Or_Ki_Or_Ic50>  (193) 
nan

>  <PDBbind_Relation>  (193) 
nan

>  <PDBbind_Value>  (193) 
nan

>  <PDBbind_Unit>  (193) 
nan

>  <PDBbind_Standard_Value>  (193) 
nan

>  <PDBbind_Standard_Unit>  (193) 
nan

>  <PDB_Chain>  (193) 
['A']

>  <Num_Ligs>  (193) 
[2.0]

>  <Orthosteric>  (193) 
[1.0]

>  <Allosteric>  (193) 
[1.0]

>  <Pockets_Assigned>  (193) 
['A, X']

>  <Multisite>  (193) 
[True]

>  <Same_Number>  (193) 
True

>  <Same_Binding_Site>  (193) 
True

>  <Same_Orientation>  (193) 
True

>  <Lig_Order_in_.pdb>  (193) 
Orthosteric, Allosteric

$$$$

     RDKit          2D

 12 12  0  0  0  0  0  0  0  0999 V2000
    1.5000    0.0000    0.0000 C   0  0  0  0  0  0  0  0  0  0  0  0
    0.7500   -1.2990    0.0000 C   0  0  0  0  0  0  0  0  0  0  0  0
   -0.7500   -1.2990    0.0000 C   0  0  0  0  0  0  0  0  0  0  0  0
   -1.5000    0.0000    0.0000 C   0  0  0  0  0  0  0  0  0  0  0  0
   -0.7500    1.2990    0.0000 C   0  0  0  0  0  0  0  0  0  0  0  0
    0.7500    1.2990    0.0000 C   0  0  0  0  0  0  0  0  0  0  0  0
    1.5000    2.5981    0.0000 C   0  0  0  0  0  0  0  0  0  0  0  0
    0.7500    3.8971    0.0000 O   0  0  0  0  0  0  0  0  0  0  0  0
    3.0000    2.5981    0.0000 N   0  0  0  0  0  0  0  0  0  0  0  0
   -1.5000   -2.5981    0.0000 C   0  0  0  0  0  0  0  0  0  0  0  0
   -0.7500   -3.8971    0.0000 O   0  0  0  0  0  0  0  0  0  0  0  0
   -3.0000   -2.5981    0.0000 O   0  0  0  0  0  0  0  0  0  0  0  0
  1  2  2  0
  2  3  1  0
  3  4  2  0
  4  5  1  0
  5  6  2  0
  6  7  1  0
  7  8  2  0
  7  9  1  0
  3 10  1  0
 10 11  2  0
 10 12  1  0
  6  1  1  0
M  END
>  <Structure>  (194) 
6SOX

>  <Dataset>  (194) 
PDB

>  <Chain>  (194) 
A

>  <Spatial_Label>  (194) 
DFGin

>  <Dihedral_Label>  (194) 
BLAminus

>  <C_Helix_Label>  (194) 
Chelix-in

>  <Lig_ID>  (194) 
LQ2

>  <Lig_Entity_ID>  (194) 
6SOX_2

>  <Lig_Name>  (194) 
4-aminocarbonylbenzoic acid

>  <Lig_Formula>  (194) 
C8H7NO3

>  <Lig_SMILES>  (194) 
c1cc(ccc1C(=O)N)C(=O)O

>  <Lig_MW>  (194) 
165.146

>  <Lig_ChEMBL_ID>  (194) 
['CHEMBL335258']

>  <Lig_DrugBank_ID>  (194) 
nan

>  <Occurence>  (194) 
1.0

>  <Lig_SMILES_Uncharged>  (194) 
NC(=O)c1ccc(C(=O)O)cc1

>  <Lig_Conformer>  (194) 
['NaN']

>  <Lig_Of_Interest>  (194) 
['Y']

>  <Lig_Completeness>  (194) 
[1.0]

>  <Lig_Occupancy>  (194) 
[1.0]

>  <Lig_RSCC>  (194) 
[0.893]

>  <Lig_RSR>  (194) 
[0.127]

>  <Lig_RMSZ_Bonds>  (194) 
[0.42]

>  <Lig_RMSZ_Angles>  (194) 
[0.28]

>  <Lig_Alt_Conf>  (194) 
0.0

>  <Title>  (194) 
Crystal structure of cAMP-dependent protein kinase A (CHO PKA) in complex with 4-carbamoylbenzoic acid

>  <Nonpolymer_Entity_Count>  (194) 
5.0

>  <Protein_Entity_Count>  (194) 
1.0

>  <Exp_Method>  (194) 
X-Ray Diffraction

>  <Cryst_Method>  (194) 
Vapor Diffusion, Sitting Drop; 100 Mm Mes-Bis-Tris-Buffer, 1 Mm Dithiothreitol, 0.1 Mm Sodium Edta, 75 Mm Licl, 0.03 Mega 8 And 23 % Methanol (V/V)0.003 Ml Drop Volume, 0.5 Ml Reservoir Volume

>  <Deposit_Date>  (194) 
2019-08-30

>  <Resolution>  (194) 
1.38

>  <DOI>  (194) 
https://doi.org/10.1002/anie.202011295

>  <Source_Organism>  (194) 
Cricetulus griseus

>  <R_Free>  (194) 
0.1676

>  <Keywords>  (194) 
Transferase

>  <REMARK_280>  (194) 
 Crystal Solvent Content, Vs (%): 44.08 Matthews Coefficient, Vm (Angstroms**3/Da): 2.20 Crystallization Conditions: 100 Mm Mes-Bis-Tris-Buffer, 1 Mm Dithiothreitol, 0.1 Mm Sodium Edta, 75 Mm Licl, 0.03 Mega 8 And 23 % Methanol (V/V)0.003 Ml Drop Volume, 0.5 Ml Reservoir Volume, pH 6.9, Vapor Diffusion, Sitting Drop, Temperature 277K 

>  <REMARK_610>  (194) 
nan

>  <pH>  (194) 
6.9

>  <Cryst_Technique>  (194) 
soaked

>  <Sequence>  (194) 
GHMGNAAAAKKGSEQESVKEFLAKAKEEFLKKWESPSQNTAQLDHFDRIKTLGTGSFGRVMLVKHKETGNHYAMKILDKQKVVKLKQIEHTLNEKRILQAVNFPFLVKLEFSFKDNSNLYMVMEYVPGGEMFSHLRRIGRFSEPHARFYAAQIVLTFEYLHSLDLIYRDLKPENLLIDQQGYIQVTDFGFAKRVKGRTWTLCGTPEYLAPEIILSKGYNKAVDWWALGVLIYEMAAGYPPFFADQPIQIYEKIVSGKVRFPSHFSSDLKDLLRNLLQVDLTKRFGNLKNGVNDIKNHKWFATTDWIAIYQRKVEAPFIPKFKGPGDTSNFDDYEEEEIRVSINEKCGKEFTEF

>  <Sequence_Length>  (194) 
353.0

>  <Mutation_Count>  (194) 
0.0

>  <Gene_Name>  (194) 
PKACA

>  <MW>  (194) 
41.114

>  <Name>  (194) 
cAMP-Dependent Protein Kinase Catalytic Subunit Alpha

>  <Mutations>  (194) 
nan

>  <EC_Number>  (194) 
2.7.11.11

>  <Peptidic_Inhibitor>  (194) 
False

>  <Lig_Missing_Atoms>  (194) 
['No']

>  <PDBbind_Resolution>  (194) 
nan

>  <PDBbind_Release_Year>  (194) 
nan

>  <PDBbind_Comment>  (194) 
nan

>  <PDBbind_Uniprot_Id>  (194) 
nan

>  <PDBbind_Protein_Name>  (194) 
nan

>  <PDBbind_-Logkd/Ki>  (194) 
nan

>  <PDBbind_Kd/Ki>  (194) 
nan

>  <PDBbind_Kd_Or_Ki_Or_Ic50>  (194) 
nan

>  <PDBbind_Relation>  (194) 
nan

>  <PDBbind_Value>  (194) 
nan

>  <PDBbind_Unit>  (194) 
nan

>  <PDBbind_Standard_Value>  (194) 
nan

>  <PDBbind_Standard_Unit>  (194) 
nan

>  <PDB_Chain>  (194) 
['A']

>  <Num_Ligs>  (194) 
[1.0]

>  <Orthosteric>  (194) 
[1.0]

>  <Allosteric>  (194) 
[0.0]

>  <Pockets_Assigned>  (194) 
['A']

>  <Multisite>  (194) 
[False]

>  <Same_Number>  (194) 
True

>  <Same_Binding_Site>  (194) 
True

>  <Same_Orientation>  (194) 
True

>  <Lig_Order_in_.pdb>  (194) 
Orthosteric

$$$$

     RDKit          2D

 13 13  0  0  0  0  0  0  0  0999 V2000
    1.5000    0.0000    0.0000 C   0  0  0  0  0  0  0  0  0  0  0  0
    0.7500   -1.2990    0.0000 C   0  0  0  0  0  0  0  0  0  0  0  0
   -0.7500   -1.2990    0.0000 C   0  0  0  0  0  0  0  0  0  0  0  0
   -1.5000    0.0000    0.0000 C   0  0  0  0  0  0  0  0  0  0  0  0
   -0.7500    1.2990    0.0000 C   0  0  0  0  0  0  0  0  0  0  0  0
    0.7500    1.2990    0.0000 C   0  0  0  0  0  0  0  0  0  0  0  0
    1.5000    2.5981    0.0000 C   0  0  0  0  0  0  0  0  0  0  0  0
    0.7500    3.8971    0.0000 O   0  0  0  0  0  0  0  0  0  0  0  0
    3.0000    2.5981    0.0000 O   0  0  0  0  0  0  0  0  0  0  0  0
   -1.5000   -2.5981    0.0000 C   0  0  0  0  0  0  0  0  0  0  0  0
   -2.2500   -3.8971    0.0000 F   0  0  0  0  0  0  0  0  0  0  0  0
   -2.7990   -1.8481    0.0000 F   0  0  0  0  0  0  0  0  0  0  0  0
   -0.2010   -3.3481    0.0000 F   0  0  0  0  0  0  0  0  0  0  0  0
  1  2  2  0
  2  3  1  0
  3  4  2  0
  4  5  1  0
  5  6  2  0
  6  7  1  0
  7  8  2  0
  7  9  1  0
  3 10  1  0
 10 11  1  0
 10 12  1  0
 10 13  1  0
  6  1  1  0
M  END
>  <Structure>  (195) 
6SPM

>  <Dataset>  (195) 
PDB

>  <Chain>  (195) 
A

>  <Spatial_Label>  (195) 
DFGin

>  <Dihedral_Label>  (195) 
BLAminus

>  <C_Helix_Label>  (195) 
Chelix-in

>  <Lig_ID>  (195) 
3AE

>  <Lig_Entity_ID>  (195) 
6SPM_2

>  <Lig_Name>  (195) 
4-(trifluoromethyl)benzoic acid

>  <Lig_Formula>  (195) 
C8H5F3O2

>  <Lig_SMILES>  (195) 
c1cc(ccc1C(=O)O)C(F)(F)F

>  <Lig_MW>  (195) 
190.119

>  <Lig_ChEMBL_ID>  (195) 
['CHEMBL443234']

>  <Lig_DrugBank_ID>  (195) 
nan

>  <Occurence>  (195) 
1.0

>  <Lig_SMILES_Uncharged>  (195) 
O=C(O)c1ccc(C(F)(F)F)cc1

>  <Lig_Conformer>  (195) 
['NaN']

>  <Lig_Of_Interest>  (195) 
['Y']

>  <Lig_Completeness>  (195) 
[1.0]

>  <Lig_Occupancy>  (195) 
[1.0]

>  <Lig_RSCC>  (195) 
[0.96]

>  <Lig_RSR>  (195) 
[0.066]

>  <Lig_RMSZ_Bonds>  (195) 
[1.11]

>  <Lig_RMSZ_Angles>  (195) 
[0.81]

>  <Lig_Alt_Conf>  (195) 
0.0

>  <Title>  (195) 
Crystal structure of cAMP-dependent protein kinase A (CHO PKA) in complex with 4-(trifluoromethyl)benzoic acid

>  <Nonpolymer_Entity_Count>  (195) 
4.0

>  <Protein_Entity_Count>  (195) 
1.0

>  <Exp_Method>  (195) 
X-Ray Diffraction

>  <Cryst_Method>  (195) 
Vapor Diffusion, Sitting Drop; 100 Mm Mes-Bis-Tris-Buffer, 1 Mm Dithiothreitol, 0.1 Mm Sodium Edta, 75 Mm Licl, 0.03 Mega 8 And 23 % Methanol (V/V)0.003 Ml Drop Volume, 0.5 Ml Reservoir Volume

>  <Deposit_Date>  (195) 
2019-09-02

>  <Resolution>  (195) 
1.37

>  <DOI>  (195) 
https://doi.org/10.1002/anie.202011295

>  <Source_Organism>  (195) 
Cricetulus griseus

>  <R_Free>  (195) 
0.1695

>  <Keywords>  (195) 
Transferase

>  <REMARK_280>  (195) 
 Crystal Solvent Content, Vs (%): 43.95 Matthews Coefficient, Vm (Angstroms**3/Da): 2.19 Crystallization Conditions: 100 Mm Mes-Bis-Tris-Buffer, 1 Mm Dithiothreitol, 0.1 Mm Sodium Edta, 75 Mm Licl, 0.03 Mega 8 And 23 % Methanol (V/V)0.003 Ml Drop Volume, 0.5 Ml Reservoir Volume, pH 6.9, Vapor Diffusion, Sitting Drop, Temperature 277K 

>  <REMARK_610>  (195) 
nan

>  <pH>  (195) 
6.9

>  <Cryst_Technique>  (195) 
soaked

>  <Sequence>  (195) 
GHMGNAAAAKKGSEQESVKEFLAKAKEEFLKKWESPSQNTAQLDHFDRIKTLGTGSFGRVMLVKHKETGNHYAMKILDKQKVVKLKQIEHTLNEKRILQAVNFPFLVKLEFSFKDNSNLYMVMEYVPGGEMFSHLRRIGRFSEPHARFYAAQIVLTFEYLHSLDLIYRDLKPENLLIDQQGYIQVTDFGFAKRVKGRTWTLCGTPEYLAPEIILSKGYNKAVDWWALGVLIYEMAAGYPPFFADQPIQIYEKIVSGKVRFPSHFSSDLKDLLRNLLQVDLTKRFGNLKNGVNDIKNHKWFATTDWIAIYQRKVEAPFIPKFKGPGDTSNFDDYEEEEIRVSINEKCGKEFTEF

>  <Sequence_Length>  (195) 
353.0

>  <Mutation_Count>  (195) 
0.0

>  <Gene_Name>  (195) 
PKACA

>  <MW>  (195) 
41.114

>  <Name>  (195) 
cAMP-Dependent Protein Kinase Catalytic Subunit Alpha

>  <Mutations>  (195) 
nan

>  <EC_Number>  (195) 
2.7.11.11

>  <Peptidic_Inhibitor>  (195) 
False

>  <Lig_Missing_Atoms>  (195) 
['No']

>  <PDBbind_Resolution>  (195) 
nan

>  <PDBbind_Release_Year>  (195) 
nan

>  <PDBbind_Comment>  (195) 
nan

>  <PDBbind_Uniprot_Id>  (195) 
nan

>  <PDBbind_Protein_Name>  (195) 
nan

>  <PDBbind_-Logkd/Ki>  (195) 
nan

>  <PDBbind_Kd/Ki>  (195) 
nan

>  <PDBbind_Kd_Or_Ki_Or_Ic50>  (195) 
nan

>  <PDBbind_Relation>  (195) 
nan

>  <PDBbind_Value>  (195) 
nan

>  <PDBbind_Unit>  (195) 
nan

>  <PDBbind_Standard_Value>  (195) 
nan

>  <PDBbind_Standard_Unit>  (195) 
nan

>  <PDB_Chain>  (195) 
['A']

>  <Num_Ligs>  (195) 
[1.0]

>  <Orthosteric>  (195) 
[1.0]

>  <Allosteric>  (195) 
[0.0]

>  <Pockets_Assigned>  (195) 
['A']

>  <Multisite>  (195) 
[False]

>  <Same_Number>  (195) 
True

>  <Same_Binding_Site>  (195) 
True

>  <Same_Orientation>  (195) 
True

>  <Lig_Order_in_.pdb>  (195) 
Orthosteric

$$$$

     RDKit          2D

 13 13  0  0  0  0  0  0  0  0999 V2000
    1.5000    0.0000    0.0000 C   0  0  0  0  0  0  0  0  0  0  0  0
    0.7500   -1.2990    0.0000 C   0  0  0  0  0  0  0  0  0  0  0  0
   -0.7500   -1.2990    0.0000 C   0  0  0  0  0  0  0  0  0  0  0  0
   -1.5000    0.0000    0.0000 C   0  0  0  0  0  0  0  0  0  0  0  0
   -0.7500    1.2990    0.0000 C   0  0  0  0  0  0  0  0  0  0  0  0
    0.7500    1.2990    0.0000 C   0  0  0  0  0  0  0  0  0  0  0  0
    1.5000    2.5981    0.0000 C   0  0  0  0  0  0  0  0  0  0  0  0
    0.7500    3.8971    0.0000 O   0  0  0  0  0  0  0  0  0  0  0  0
    3.0000    2.5981    0.0000 N   0  0  0  0  0  0  0  0  0  0  0  0
   -1.5000   -2.5981    0.0000 C   0  0  0  0  0  0  0  0  0  0  0  0
   -2.2500   -3.8971    0.0000 F   0  0  0  0  0  0  0  0  0  0  0  0
   -2.7990   -1.8481    0.0000 F   0  0  0  0  0  0  0  0  0  0  0  0
   -0.2010   -3.3481    0.0000 F   0  0  0  0  0  0  0  0  0  0  0  0
  1  2  2  0
  2  3  1  0
  3  4  2  0
  4  5  1  0
  5  6  2  0
  6  7  1  0
  7  8  2  0
  7  9  1  0
  3 10  1  0
 10 11  1  0
 10 12  1  0
 10 13  1  0
  6  1  1  0
M  END
>  <Structure>  (196) 
6SPS

>  <Dataset>  (196) 
PDB

>  <Chain>  (196) 
A

>  <Spatial_Label>  (196) 
DFGin

>  <Dihedral_Label>  (196) 
BLAminus

>  <C_Helix_Label>  (196) 
Chelix-in

>  <Lig_ID>  (196) 
LR5

>  <Lig_Entity_ID>  (196) 
6SPS_4

>  <Lig_Name>  (196) 
4-(trifluoromethyl)benzamide

>  <Lig_Formula>  (196) 
C8H6F3NO

>  <Lig_SMILES>  (196) 
c1cc(ccc1C(=O)N)C(F)(F)F

>  <Lig_MW>  (196) 
189.135

>  <Lig_ChEMBL_ID>  (196) 
['CHEMBL4065573']

>  <Lig_DrugBank_ID>  (196) 
nan

>  <Occurence>  (196) 
1.0

>  <Lig_SMILES_Uncharged>  (196) 
NC(=O)c1ccc(C(F)(F)F)cc1

>  <Lig_Conformer>  (196) 
['NaN']

>  <Lig_Of_Interest>  (196) 
['Y']

>  <Lig_Completeness>  (196) 
[1.0]

>  <Lig_Occupancy>  (196) 
[1.0]

>  <Lig_RSCC>  (196) 
[0.954]

>  <Lig_RSR>  (196) 
[0.069]

>  <Lig_RMSZ_Bonds>  (196) 
[0.16]

>  <Lig_RMSZ_Angles>  (196) 
[0.46]

>  <Lig_Alt_Conf>  (196) 
0.0

>  <Title>  (196) 
Crystal structure of cAMP-dependent protein kinase A (CHO PKA) in complex with 4-(trifluoromethyl)benzamide

>  <Nonpolymer_Entity_Count>  (196) 
3.0

>  <Protein_Entity_Count>  (196) 
1.0

>  <Exp_Method>  (196) 
X-Ray Diffraction

>  <Cryst_Method>  (196) 
Vapor Diffusion, Sitting Drop; 100 Mm Mes-Bis-Tris-Buffer, 1 Mm Dithiothreitol, 0.1 Mm Sodium Edta, 75 Mm Licl, 0.03 Mega 8 And 23 % Methanol (V/V)0.003 Ml Drop Volume, 0.5 Ml Reservoir Volume

>  <Deposit_Date>  (196) 
2019-09-02

>  <Resolution>  (196) 
1.65

>  <DOI>  (196) 
https://doi.org/10.1002/anie.202011295

>  <Source_Organism>  (196) 
Cricetulus griseus

>  <R_Free>  (196) 
0.2225

>  <Keywords>  (196) 
Transferase

>  <REMARK_280>  (196) 
 Crystal Solvent Content, Vs (%): 43.80 Matthews Coefficient, Vm (Angstroms**3/Da): 2.19 Crystallization Conditions: 100 Mm Mes-Bis-Tris-Buffer, 1 Mm Dithiothreitol, 0.1 Mm Sodium Edta, 75 Mm Licl, 0.03 Mega 8 And 23 % Methanol (V/V)0.003 Ml Drop Volume, 0.5 Ml Reservoir Volume, pH 6.9, Vapor Diffusion, Sitting Drop, Temperature 277K 

>  <REMARK_610>  (196) 
nan

>  <pH>  (196) 
6.9

>  <Cryst_Technique>  (196) 
soaked

>  <Sequence>  (196) 
GHMGNAAAAKKGSEQESVKEFLAKAKEEFLKKWESPSQNTAQLDHFDRIKTLGTGSFGRVMLVKHKETGNHYAMKILDKQKVVKLKQIEHTLNEKRILQAVNFPFLVKLEFSFKDNSNLYMVMEYVPGGEMFSHLRRIGRFSEPHARFYAAQIVLTFEYLHSLDLIYRDLKPENLLIDQQGYIQVTDFGFAKRVKGRTWTLCGTPEYLAPEIILSKGYNKAVDWWALGVLIYEMAAGYPPFFADQPIQIYEKIVSGKVRFPSHFSSDLKDLLRNLLQVDLTKRFGNLKNGVNDIKNHKWFATTDWIAIYQRKVEAPFIPKFKGPGDTSNFDDYEEEEIRVSINEKCGKEFTEF

>  <Sequence_Length>  (196) 
353.0

>  <Mutation_Count>  (196) 
0.0

>  <Gene_Name>  (196) 
PKACA

>  <MW>  (196) 
41.114

>  <Name>  (196) 
cAMP-Dependent Protein Kinase Catalytic Subunit Alpha

>  <Mutations>  (196) 
nan

>  <EC_Number>  (196) 
2.7.11.11

>  <Peptidic_Inhibitor>  (196) 
False

>  <Lig_Missing_Atoms>  (196) 
['No']

>  <PDBbind_Resolution>  (196) 
nan

>  <PDBbind_Release_Year>  (196) 
nan

>  <PDBbind_Comment>  (196) 
nan

>  <PDBbind_Uniprot_Id>  (196) 
nan

>  <PDBbind_Protein_Name>  (196) 
nan

>  <PDBbind_-Logkd/Ki>  (196) 
nan

>  <PDBbind_Kd/Ki>  (196) 
nan

>  <PDBbind_Kd_Or_Ki_Or_Ic50>  (196) 
nan

>  <PDBbind_Relation>  (196) 
nan

>  <PDBbind_Value>  (196) 
nan

>  <PDBbind_Unit>  (196) 
nan

>  <PDBbind_Standard_Value>  (196) 
nan

>  <PDBbind_Standard_Unit>  (196) 
nan

>  <PDB_Chain>  (196) 
['A']

>  <Num_Ligs>  (196) 
[1.0]

>  <Orthosteric>  (196) 
[1.0]

>  <Allosteric>  (196) 
[0.0]

>  <Pockets_Assigned>  (196) 
['A']

>  <Multisite>  (196) 
[False]

>  <Same_Number>  (196) 
True

>  <Same_Binding_Site>  (196) 
True

>  <Same_Orientation>  (196) 
True

>  <Lig_Order_in_.pdb>  (196) 
Orthosteric

$$$$

     RDKit          2D

 10 10  0  0  0  0  0  0  0  0999 V2000
    1.5000    0.0000    0.0000 C   0  0  0  0  0  0  0  0  0  0  0  0
    0.7500   -1.2990    0.0000 C   0  0  0  0  0  0  0  0  0  0  0  0
   -0.7500   -1.2990    0.0000 C   0  0  0  0  0  0  0  0  0  0  0  0
   -1.5000    0.0000    0.0000 C   0  0  0  0  0  0  0  0  0  0  0  0
   -0.7500    1.2990    0.0000 C   0  0  0  0  0  0  0  0  0  0  0  0
    0.7500    1.2990    0.0000 C   0  0  0  0  0  0  0  0  0  0  0  0
   -1.5000    2.5981    0.0000 N   0  0  0  0  0  0  0  0  0  0  0  0
   -1.5000   -2.5981    0.0000 C   0  0  0  0  0  0  0  0  0  0  0  0
   -0.7500   -3.8971    0.0000 O   0  0  0  0  0  0  0  0  0  0  0  0
   -3.0000   -2.5981    0.0000 O   0  0  0  0  0  0  0  0  0  0  0  0
  1  2  2  0
  2  3  1  0
  3  4  2  0
  4  5  1  0
  5  6  2  0
  5  7  1  0
  3  8  1  0
  8  9  2  0
  8 10  1  0
  6  1  1  0
M  END
>  <Structure>  (197) 
6SPU

>  <Dataset>  (197) 
PDB

>  <Chain>  (197) 
A

>  <Spatial_Label>  (197) 
DFGin

>  <Dihedral_Label>  (197) 
BLAminus

>  <C_Helix_Label>  (197) 
Chelix-in

>  <Lig_ID>  (197) 
GAB

>  <Lig_Entity_ID>  (197) 
6SPU_3

>  <Lig_Name>  (197) 
3-AMINOBENZOIC ACID

>  <Lig_Formula>  (197) 
C7H7NO2

>  <Lig_SMILES>  (197) 
c1cc(cc(c1)N)C(=O)O

>  <Lig_MW>  (197) 
137.136

>  <Lig_ChEMBL_ID>  (197) 
['CHEMBL307782']

>  <Lig_DrugBank_ID>  (197) 
['DB02054']

>  <Occurence>  (197) 
1.0

>  <Lig_SMILES_Uncharged>  (197) 
Nc1cccc(C(=O)O)c1

>  <Lig_Conformer>  (197) 
['NaN']

>  <Lig_Of_Interest>  (197) 
['Y']

>  <Lig_Completeness>  (197) 
[1.0]

>  <Lig_Occupancy>  (197) 
[1.0]

>  <Lig_RSCC>  (197) 
[0.985]

>  <Lig_RSR>  (197) 
[0.064]

>  <Lig_RMSZ_Bonds>  (197) 
[1.18]

>  <Lig_RMSZ_Angles>  (197) 
[0.94]

>  <Lig_Alt_Conf>  (197) 
0.0

>  <Title>  (197) 
Crystal structure of cAMP-dependent protein kinase A (CHO PKA) in complex with 3-aminobenzoic acid

>  <Nonpolymer_Entity_Count>  (197) 
5.0

>  <Protein_Entity_Count>  (197) 
1.0

>  <Exp_Method>  (197) 
X-Ray Diffraction

>  <Cryst_Method>  (197) 
Vapor Diffusion, Sitting Drop; 100 Mm Mes-Bis-Tris-Buffer, 1 Mm Dithiothreitol, 0.1 Mm Sodium Edta, 75 Mm Licl, 0.03 Mega 8 And 23 % Methanol (V/V)0.003 Ml Drop Volume, 0.5 Ml Reservoir Volume

>  <Deposit_Date>  (197) 
2019-09-02

>  <Resolution>  (197) 
1.39

>  <DOI>  (197) 
https://doi.org/10.1002/anie.202011295

>  <Source_Organism>  (197) 
Cricetulus griseus

>  <R_Free>  (197) 
0.1843

>  <Keywords>  (197) 
Transferase

>  <REMARK_280>  (197) 
 Crystal Solvent Content, Vs (%): 44.01 Matthews Coefficient, Vm (Angstroms**3/Da): 2.20 Crystallization Conditions: 100 Mm Mes-Bis-Tris-Buffer, 1 Mm Dithiothreitol, 0.1 Mm Sodium Edta, 75 Mm Licl, 0.03 Mega 8 And 23 % Methanol (V/V)0.003 Ml Drop Volume, 0.5 Ml Reservoir Volume, pH 6.9, Vapor Diffusion, Sitting Drop, Temperature 277K 

>  <REMARK_610>  (197) 
nan

>  <pH>  (197) 
6.9

>  <Cryst_Technique>  (197) 
soaked

>  <Sequence>  (197) 
GHMGNAAAAKKGSEQESVKEFLAKAKEEFLKKWESPSQNTAQLDHFDRIKTLGTGSFGRVMLVKHKETGNHYAMKILDKQKVVKLKQIEHTLNEKRILQAVNFPFLVKLEFSFKDNSNLYMVMEYVPGGEMFSHLRRIGRFSEPHARFYAAQIVLTFEYLHSLDLIYRDLKPENLLIDQQGYIQVTDFGFAKRVKGRTWTLCGTPEYLAPEIILSKGYNKAVDWWALGVLIYEMAAGYPPFFADQPIQIYEKIVSGKVRFPSHFSSDLKDLLRNLLQVDLTKRFGNLKNGVNDIKNHKWFATTDWIAIYQRKVEAPFIPKFKGPGDTSNFDDYEEEEIRVSINEKCGKEFTEF

>  <Sequence_Length>  (197) 
353.0

>  <Mutation_Count>  (197) 
0.0

>  <Gene_Name>  (197) 
PKACA

>  <MW>  (197) 
41.114

>  <Name>  (197) 
cAMP-Dependent Protein Kinase Catalytic Subunit Alpha

>  <Mutations>  (197) 
nan

>  <EC_Number>  (197) 
2.7.11.11

>  <Peptidic_Inhibitor>  (197) 
False

>  <Lig_Missing_Atoms>  (197) 
['No']

>  <PDBbind_Resolution>  (197) 
nan

>  <PDBbind_Release_Year>  (197) 
nan

>  <PDBbind_Comment>  (197) 
nan

>  <PDBbind_Uniprot_Id>  (197) 
nan

>  <PDBbind_Protein_Name>  (197) 
nan

>  <PDBbind_-Logkd/Ki>  (197) 
nan

>  <PDBbind_Kd/Ki>  (197) 
nan

>  <PDBbind_Kd_Or_Ki_Or_Ic50>  (197) 
nan

>  <PDBbind_Relation>  (197) 
nan

>  <PDBbind_Value>  (197) 
nan

>  <PDBbind_Unit>  (197) 
nan

>  <PDBbind_Standard_Value>  (197) 
nan

>  <PDBbind_Standard_Unit>  (197) 
nan

>  <PDB_Chain>  (197) 
['A']

>  <Num_Ligs>  (197) 
[1.0]

>  <Orthosteric>  (197) 
[1.0]

>  <Allosteric>  (197) 
[0.0]

>  <Pockets_Assigned>  (197) 
['A']

>  <Multisite>  (197) 
[False]

>  <Same_Number>  (197) 
True

>  <Same_Binding_Site>  (197) 
True

>  <Same_Orientation>  (197) 
True

>  <Lig_Order_in_.pdb>  (197) 
Orthosteric

$$$$

     RDKit          2D

 15 16  0  0  0  0  0  0  0  0999 V2000
    1.5000    0.0000    0.0000 C   0  0  0  0  0  0  0  0  0  0  0  0
    0.7500   -1.2990    0.0000 C   0  0  0  0  0  0  0  0  0  0  0  0
   -0.7500   -1.2990    0.0000 C   0  0  0  0  0  0  0  0  0  0  0  0
   -1.5000    0.0000    0.0000 N   0  0  0  0  0  0  0  0  0  0  0  0
   -0.7500    1.2990    0.0000 C   0  0  0  0  0  0  0  0  0  0  0  0
    0.7500    1.2990    0.0000 C   0  0  0  0  0  0  0  0  0  0  0  0
    1.5000    2.5981    0.0000 C   0  0  0  0  0  0  0  0  0  0  0  0
    0.7500    3.8971    0.0000 O   0  0  0  0  0  0  0  0  0  0  0  0
    3.0000    2.5981    0.0000 N   0  0  0  0  0  0  0  0  0  0  0  0
   -1.5000   -2.5981    0.0000 N   0  0  0  0  0  0  0  0  0  0  0  0
   -3.0000   -2.5981    0.0000 C   0  0  0  0  0  0  0  0  0  0  0  0
   -3.7500   -3.8971    0.0000 C   0  0  0  0  0  0  0  0  0  0  0  0
   -3.0000   -5.1962    0.0000 O   0  0  0  0  0  0  0  0  0  0  0  0
   -1.5000   -5.1962    0.0000 C   0  0  0  0  0  0  0  0  0  0  0  0
   -0.7500   -3.8971    0.0000 C   0  0  0  0  0  0  0  0  0  0  0  0
  1  2  2  0
  2  3  1  0
  3  4  2  0
  4  5  1  0
  5  6  2  0
  6  7  1  0
  7  8  2  0
  7  9  1  0
  3 10  1  0
 10 11  1  0
 11 12  1  0
 12 13  1  0
 13 14  1  0
 14 15  1  0
  6  1  1  0
 15 10  1  0
M  END
>  <Structure>  (198) 
6SPY

>  <Dataset>  (198) 
PDB

>  <Chain>  (198) 
A

>  <Spatial_Label>  (198) 
DFGin

>  <Dihedral_Label>  (198) 
BLAminus

>  <C_Helix_Label>  (198) 
Chelix-in

>  <Lig_ID>  (198) 
LR8

>  <Lig_Entity_ID>  (198) 
6SPY_2

>  <Lig_Name>  (198) 
6-morpholin-4-ylpyridine-3-carboxamide

>  <Lig_Formula>  (198) 
C10H13N3O2

>  <Lig_SMILES>  (198) 
c1cc(ncc1C(=O)N)N2CCOCC2

>  <Lig_MW>  (198) 
207.229

>  <Lig_ChEMBL_ID>  (198) 
['CHEMBL1720183']

>  <Lig_DrugBank_ID>  (198) 
nan

>  <Occurence>  (198) 
1.0

>  <Lig_SMILES_Uncharged>  (198) 
NC(=O)c1ccc(N2CCOCC2)nc1

>  <Lig_Conformer>  (198) 
['NaN']

>  <Lig_Of_Interest>  (198) 
['Y']

>  <Lig_Completeness>  (198) 
[1.0]

>  <Lig_Occupancy>  (198) 
[1.0]

>  <Lig_RSCC>  (198) 
[0.937]

>  <Lig_RSR>  (198) 
[0.087]

>  <Lig_RMSZ_Bonds>  (198) 
[0.39]

>  <Lig_RMSZ_Angles>  (198) 
[0.5]

>  <Lig_Alt_Conf>  (198) 
0.0

>  <Title>  (198) 
Crystal structure of cAMP-dependent protein kinase A (CHO PKA) in complex with 6-(morpholin-4-yl)pyridine-3-carboxamide

>  <Nonpolymer_Entity_Count>  (198) 
3.0

>  <Protein_Entity_Count>  (198) 
1.0

>  <Exp_Method>  (198) 
X-Ray Diffraction

>  <Cryst_Method>  (198) 
Vapor Diffusion, Sitting Drop; 100 Mm Mes-Bis-Tris-Buffer, 1 Mm Dithiothreitol, 0.1 Mm Sodium Edta, 75 Mm Licl, 0.03 Mega 8 And 23 % Methanol (V/V)0.003 Ml Drop Volume, 0.5 Ml Reservoir Volume

>  <Deposit_Date>  (198) 
2019-09-03

>  <Resolution>  (198) 
1.6

>  <DOI>  (198) 
https://doi.org/10.1002/anie.202011295

>  <Source_Organism>  (198) 
Cricetulus griseus

>  <R_Free>  (198) 
0.1821

>  <Keywords>  (198) 
Transferase

>  <REMARK_280>  (198) 
 Crystal Solvent Content, Vs (%): 43.67 Matthews Coefficient, Vm (Angstroms**3/Da): 2.18 Crystallization Conditions: 100 Mm Mes-Bis-Tris-Buffer, 1 Mm Dithiothreitol, 0.1 Mm Sodium Edta, 75 Mm Licl, 0.03 Mega 8 And 23 % Methanol (V/V)0.003 Ml Drop Volume, 0.5 Ml Reservoir Volume, pH 6.9, Vapor Diffusion, Sitting Drop, Temperature 277K 

>  <REMARK_610>  (198) 
nan

>  <pH>  (198) 
6.9

>  <Cryst_Technique>  (198) 
soaked

>  <Sequence>  (198) 
GHMGNAAAAKKGSEQESVKEFLAKAKEEFLKKWESPSQNTAQLDHFDRIKTLGTGSFGRVMLVKHKETGNHYAMKILDKQKVVKLKQIEHTLNEKRILQAVNFPFLVKLEFSFKDNSNLYMVMEYVPGGEMFSHLRRIGRFSEPHARFYAAQIVLTFEYLHSLDLIYRDLKPENLLIDQQGYIQVTDFGFAKRVKGRTWTLCGTPEYLAPEIILSKGYNKAVDWWALGVLIYEMAAGYPPFFADQPIQIYEKIVSGKVRFPSHFSSDLKDLLRNLLQVDLTKRFGNLKNGVNDIKNHKWFATTDWIAIYQRKVEAPFIPKFKGPGDTSNFDDYEEEEIRVSINEKCGKEFTEF

>  <Sequence_Length>  (198) 
353.0

>  <Mutation_Count>  (198) 
0.0

>  <Gene_Name>  (198) 
PKACA

>  <MW>  (198) 
41.114

>  <Name>  (198) 
cAMP-Dependent Protein Kinase Catalytic Subunit Alpha

>  <Mutations>  (198) 
nan

>  <EC_Number>  (198) 
2.7.11.11

>  <Peptidic_Inhibitor>  (198) 
False

>  <Lig_Missing_Atoms>  (198) 
['No']

>  <PDBbind_Resolution>  (198) 
nan

>  <PDBbind_Release_Year>  (198) 
nan

>  <PDBbind_Comment>  (198) 
nan

>  <PDBbind_Uniprot_Id>  (198) 
nan

>  <PDBbind_Protein_Name>  (198) 
nan

>  <PDBbind_-Logkd/Ki>  (198) 
nan

>  <PDBbind_Kd/Ki>  (198) 
nan

>  <PDBbind_Kd_Or_Ki_Or_Ic50>  (198) 
nan

>  <PDBbind_Relation>  (198) 
nan

>  <PDBbind_Value>  (198) 
nan

>  <PDBbind_Unit>  (198) 
nan

>  <PDBbind_Standard_Value>  (198) 
nan

>  <PDBbind_Standard_Unit>  (198) 
nan

>  <PDB_Chain>  (198) 
['A']

>  <Num_Ligs>  (198) 
[1.0]

>  <Orthosteric>  (198) 
[1.0]

>  <Allosteric>  (198) 
[0.0]

>  <Pockets_Assigned>  (198) 
['A']

>  <Multisite>  (198) 
[False]

>  <Same_Number>  (198) 
True

>  <Same_Binding_Site>  (198) 
True

>  <Same_Orientation>  (198) 
True

>  <Lig_Order_in_.pdb>  (198) 
Orthosteric

$$$$

     RDKit          2D

 21 23  0  0  0  0  0  0  0  0999 V2000
    1.5000    0.0000    0.0000 C   0  0  0  0  0  0  0  0  0  0  0  0
    0.7500   -1.2990    0.0000 C   0  0  0  0  0  0  0  0  0  0  0  0
   -0.7500   -1.2990    0.0000 C   0  0  0  0  0  0  0  0  0  0  0  0
   -1.5000    0.0000    0.0000 C   0  0  0  0  0  0  0  0  0  0  0  0
   -3.0000    0.0000    0.0000 C   0  0  0  0  0  0  0  0  0  0  0  0
   -3.7500   -1.2990    0.0000 C   0  0  0  0  0  0  0  0  0  0  0  0
   -3.0000   -2.5981    0.0000 N   0  0  0  0  0  0  0  0  0  0  0  0
   -1.5000   -2.5981    0.0000 C   0  0  0  0  0  0  0  0  0  0  0  0
   -0.7500   -3.8971    0.0000 N   0  0  0  0  0  0  0  0  0  0  0  0
   -0.7500    1.2990    0.0000 C   0  0  0  0  0  0  0  0  0  0  0  0
    0.7500    1.2990    0.0000 C   0  0  0  0  0  0  0  0  0  0  0  0
   -1.5000    2.5981    0.0000 S   0  0  0  0  0  0  0  0  0  0  0  0
   -0.2010    3.3481    0.0000 O   0  0  0  0  0  0  0  0  0  0  0  0
   -2.7990    1.8481    0.0000 O   0  0  0  0  0  0  0  0  0  0  0  0
   -2.2500    3.8971    0.0000 N   0  0  0  0  0  0  0  0  0  0  0  0
   -3.7458    3.7850    0.0000 C   0  0  0  0  0  0  0  0  0  0  0  0
   -4.7661    4.8846    0.0000 C   0  0  0  0  0  0  0  0  0  0  0  0
   -4.5425    6.3678    0.0000 C   0  0  0  0  0  0  0  0  0  0  0  0
   -3.2435    7.1178    0.0000 N   0  0  0  0  0  0  0  0  0  0  0  0
   -1.8472    6.5698    0.0000 C   0  0  0  0  0  0  0  0  0  0  0  0
   -1.4050    5.1365    0.0000 C   0  0  0  0  0  0  0  0  0  0  0  0
  1  2  2  0
  2  3  1  0
  3  4  2  0
  4  5  1  0
  5  6  2  0
  6  7  1  0
  7  8  2  0
  8  9  1  0
  4 10  1  0
 10 11  2  0
 10 12  1  0
 12 13  2  0
 12 14  2  0
 12 15  1  0
 15 16  1  0
 16 17  1  0
 17 18  1  0
 18 19  1  0
 19 20  1  0
 20 21  1  0
 11  1  1  0
  8  3  1  0
 21 15  1  0
M  END
>  <Structure>  (199) 
6SQ1

>  <Dataset>  (199) 
PDB

>  <Chain>  (199) 
A

>  <Spatial_Label>  (199) 
DFGin

>  <Dihedral_Label>  (199) 
BLAminus

>  <C_Helix_Label>  (199) 
Chelix-in

>  <Lig_ID>  (199) 
LRT

>  <Lig_Entity_ID>  (199) 
6SQ1_3

>  <Lig_Name>  (199) 
5-(1,4-diazepan-1-ylsulfonyl)isoquinolin-1-amine

>  <Lig_Formula>  (199) 
C14H18N4O2S

>  <Lig_SMILES>  (199) 
c1cc2c(ccnc2N)c(c1)S(=O)(=O)N3CCCNCC3

>  <Lig_MW>  (199) 
306.383

>  <Lig_ChEMBL_ID>  (199) 
['CHEMBL1667963']

>  <Lig_DrugBank_ID>  (199) 
nan

>  <Occurence>  (199) 
3.0

>  <Lig_SMILES_Uncharged>  (199) 
Nc1nccc2c(S(=O)(=O)N3CCCNCC3)cccc12

>  <Lig_Conformer>  (199) 
['A', 'B']

>  <Lig_Of_Interest>  (199) 
['Y', 'Y']

>  <Lig_Completeness>  (199) 
[1.0, 1.0]

>  <Lig_Occupancy>  (199) 
[0.48, 0.52]

>  <Lig_RSCC>  (199) 
[0.981, 0.981]

>  <Lig_RSR>  (199) 
[0.085, 0.085]

>  <Lig_RMSZ_Bonds>  (199) 
[0.16, 0.18]

>  <Lig_RMSZ_Angles>  (199) 
[0.65, 0.51]

>  <Lig_Alt_Conf>  (199) 
2.0

>  <Title>  (199) 
Crystal structure of cAMP-dependent Protein Kinase A (CHO PKA) in complex with Aminofasudil

>  <Nonpolymer_Entity_Count>  (199) 
5.0

>  <Protein_Entity_Count>  (199) 
1.0

>  <Exp_Method>  (199) 
X-Ray Diffraction

>  <Cryst_Method>  (199) 
Vapor Diffusion, Sitting Drop; 100 Mm Mes-Bis-Tris-Buffer, 1 Mm Dithiothreitol, 0.1 Mm Sodium Edta, 75 Mm Licl, 0.03 Mega 8 And 23 % Methanol (V/V)0.003 Ml Drop Volume, 0.5 Ml Reservoir Volume

>  <Deposit_Date>  (199) 
2019-09-03

>  <Resolution>  (199) 
1.49

>  <DOI>  (199) 
nan

>  <Source_Organism>  (199) 
Cricetulus griseus

>  <R_Free>  (199) 
0.1772

>  <Keywords>  (199) 
Transferase

>  <REMARK_280>  (199) 
 Crystal Solvent Content, Vs (%): 44.36 Matthews Coefficient, Vm (Angstroms**3/Da): 2.21 Crystallization Conditions: 100 Mm Mes-Bis-Tris-Buffer, 1 Mm Dithiothreitol, 0.1 Mm Sodium Edta, 75 Mm Licl, 0.03 Mega 8 And 23 % Methanol (V/V)0.003 Ml Drop Volume, 0.5 Ml Reservoir Volume, pH 6.9, Vapor Diffusion, Sitting Drop, Temperature 277K 

>  <REMARK_610>  (199) 
nan

>  <pH>  (199) 
6.9

>  <Cryst_Technique>  (199) 
nan

>  <Sequence>  (199) 
GHMGNAAAAKKGSEQESVKEFLAKAKEEFLKKWESPSQNTAQLDHFDRIKTLGTGSFGRVMLVKHKETGNHYAMKILDKQKVVKLKQIEHTLNEKRILQAVNFPFLVKLEFSFKDNSNLYMVMEYVPGGEMFSHLRRIGRFSEPHARFYAAQIVLTFEYLHSLDLIYRDLKPENLLIDQQGYIQVTDFGFAKRVKGRTWTLCGTPEYLAPEIILSKGYNKAVDWWALGVLIYEMAAGYPPFFADQPIQIYEKIVSGKVRFPSHFSSDLKDLLRNLLQVDLTKRFGNLKNGVNDIKNHKWFATTDWIAIYQRKVEAPFIPKFKGPGDTSNFDDYEEEEIRVSINEKCGKEFTEF

>  <Sequence_Length>  (199) 
353.0

>  <Mutation_Count>  (199) 
0.0

>  <Gene_Name>  (199) 
PKACA

>  <MW>  (199) 
41.114

>  <Name>  (199) 
cAMP-Dependent Protein Kinase Catalytic Subunit Alpha

>  <Mutations>  (199) 
nan

>  <EC_Number>  (199) 
2.7.11.11

>  <Peptidic_Inhibitor>  (199) 
False

>  <Lig_Missing_Atoms>  (199) 
['No', 'No']

>  <PDBbind_Resolution>  (199) 
nan

>  <PDBbind_Release_Year>  (199) 
nan

>  <PDBbind_Comment>  (199) 
nan

>  <PDBbind_Uniprot_Id>  (199) 
nan

>  <PDBbind_Protein_Name>  (199) 
nan

>  <PDBbind_-Logkd/Ki>  (199) 
nan

>  <PDBbind_Kd/Ki>  (199) 
nan

>  <PDBbind_Kd_Or_Ki_Or_Ic50>  (199) 
nan

>  <PDBbind_Relation>  (199) 
nan

>  <PDBbind_Value>  (199) 
nan

>  <PDBbind_Unit>  (199) 
nan

>  <PDBbind_Standard_Value>  (199) 
nan

>  <PDBbind_Standard_Unit>  (199) 
nan

>  <PDB_Chain>  (199) 
['A']

>  <Num_Ligs>  (199) 
[1.0]

>  <Orthosteric>  (199) 
[1.0]

>  <Allosteric>  (199) 
[0.0]

>  <Pockets_Assigned>  (199) 
['A']

>  <Multisite>  (199) 
[False]

>  <Same_Number>  (199) 
True

>  <Same_Binding_Site>  (199) 
True

>  <Same_Orientation>  (199) 
True

>  <Lig_Order_in_.pdb>  (199) 
Orthosteric

$$$$

     RDKit          2D

 10 11  0  0  0  0  0  0  0  0999 V2000
    1.2760    0.0000    0.0000 C   0  0  0  0  0  0  0  0  0  0  0  0
    0.3943    1.2135    0.0000 N   0  0  0  0  0  0  0  0  0  0  0  0
   -1.0323    0.7500    0.0000 C   0  0  0  0  0  0  0  0  0  0  0  0
   -1.0323   -0.7500    0.0000 C   0  0  0  0  0  0  0  0  0  0  0  0
    0.3943   -1.2135    0.0000 N   0  0  0  0  0  0  0  0  0  0  0  0
   -2.3313   -1.5000    0.0000 C   0  0  0  0  0  0  0  0  0  0  0  0
   -3.6304   -0.7500    0.0000 N   0  0  0  0  0  0  0  0  0  0  0  0
   -3.6304    0.7500    0.0000 C   0  0  0  0  0  0  0  0  0  0  0  0
   -2.3313    1.5000    0.0000 N   0  0  0  0  0  0  0  0  0  0  0  0
   -2.3313   -3.0000    0.0000 N   0  0  0  0  0  0  0  0  0  0  0  0
  1  2  1  0
  2  3  1  0
  3  4  2  0
  4  5  1  0
  4  6  1  0
  6  7  2  0
  7  8  1  0
  8  9  2  0
  6 10  1  0
  5  1  2  0
  9  3  1  0
M  END
>  <Structure>  (200) 
6Y05

>  <Dataset>  (200) 
PDB

>  <Chain>  (200) 
A

>  <Spatial_Label>  (200) 
DFGin

>  <Dihedral_Label>  (200) 
BLAminus

>  <C_Helix_Label>  (200) 
Chelix-in

>  <Lig_ID>  (200) 
ADE

>  <Lig_Entity_ID>  (200) 
6Y05_3

>  <Lig_Name>  (200) 
ADENINE

>  <Lig_Formula>  (200) 
C5H5N5

>  <Lig_SMILES>  (200) 
c1[nH]c2c(n1)c(ncn2)N

>  <Lig_MW>  (200) 
135.127

>  <Lig_ChEMBL_ID>  (200) 
['CHEMBL226345']

>  <Lig_DrugBank_ID>  (200) 
['DB00173']

>  <Occurence>  (200) 
1.0

>  <Lig_SMILES_Uncharged>  (200) 
Nc1ncnc2[nH]cnc12

>  <Lig_Conformer>  (200) 
['NaN']

>  <Lig_Of_Interest>  (200) 
['Y']

>  <Lig_Completeness>  (200) 
[1.0]

>  <Lig_Occupancy>  (200) 
[1.0]

>  <Lig_RSCC>  (200) 
[0.932]

>  <Lig_RSR>  (200) 
[0.091]

>  <Lig_RMSZ_Bonds>  (200) 
[0.98]

>  <Lig_RMSZ_Angles>  (200) 
[1.03]

>  <Lig_Alt_Conf>  (200) 
0.0

>  <Title>  (200) 
Crystal structure of the cAMP-dependent protein kinase A cocrystallized with adenine and PKI (5-24)

>  <Nonpolymer_Entity_Count>  (200) 
4.0

>  <Protein_Entity_Count>  (200) 
2.0

>  <Exp_Method>  (200) 
X-Ray Diffraction

>  <Cryst_Method>  (200) 
Vapor Diffusion, Hanging Drop; 100 Mm Mes-Bis-Tris-Buffer, 1 Mm Dithiothreitol, 0.1 Mm Sodium Edta, 75 Mm Licl, 0.2 Mega 8, 10Mm Adenine In Dmso, 0.5 Mm Pki (5-24) And 23 % Methanol (V/V)0.004 Ml Drop Volume, 0.5 Ml Reservoir Volume

>  <Deposit_Date>  (200) 
2020-02-06

>  <Resolution>  (200) 
1.7

>  <DOI>  (200) 
nan

>  <Source_Organism>  (200) 
Cricetulus griseus

>  <R_Free>  (200) 
0.2048

>  <Keywords>  (200) 
Transferase

>  <REMARK_280>  (200) 
 Crystal Solvent Content, Vs (%): 54.40 Matthews Coefficient, Vm (Angstroms**3/Da): 2.70 Crystallization Conditions: 100 Mm Mes-Bis-Tris-Buffer, 1 Mm Dithiothreitol, 0.1 Mm Sodium Edta, 75 Mm Licl, 0.2 Mega 8, 10Mm Adenine In Dmso, 0.5 Mm Pki (5-24) And 23 % Methanol (V/V)0.004 Ml Drop Volume, 0.5 Ml Reservoir Volume, pH 6.9, Vapor Diffusion, Hanging Drop, Temperature 277K 

>  <REMARK_610>  (200) 
nan

>  <pH>  (200) 
6.9

>  <Cryst_Technique>  (200) 
nan

>  <Sequence>  (200) 
GHMGNAAAAKKGSEQESVKEFLAKAKEEFLKKWESPSQNTAQLDHFDRIKTLGTGSFGRVMLVKHKETGNHYAMKILDKQKVVKLKQIEHTLNEKRILQAVNFPFLVKLEFSFKDNSNLYMVMEYVPGGEMFSHLRRIGRFSEPHARFYAAQIVLTFEYLHSLDLIYRDLKPENLLIDQQGYIQVTDFGFAKRVKGRTWTLCGTPEYLAPEIILSKGYNKAVDWWALGVLIYEMAAGYPPFFADQPIQIYEKIVSGKVRFPSHFSSDLKDLLRNLLQVDLTKRFGNLKNGVNDIKNHKWFATTDWIAIYQRKVEAPFIPKFKGPGDTSNFDDYEEEEIRVSINEKCGKEFTEF

>  <Sequence_Length>  (200) 
353.0

>  <Mutation_Count>  (200) 
0.0

>  <Gene_Name>  (200) 
PKACA

>  <MW>  (200) 
41.034

>  <Name>  (200) 
cAMP-Dependent Protein Kinase Catalytic Subunit Alpha

>  <Mutations>  (200) 
nan

>  <EC_Number>  (200) 
2.7.11.11

>  <Peptidic_Inhibitor>  (200) 
True

>  <Lig_Missing_Atoms>  (200) 
['No']

>  <PDBbind_Resolution>  (200) 
nan

>  <PDBbind_Release_Year>  (200) 
nan

>  <PDBbind_Comment>  (200) 
nan

>  <PDBbind_Uniprot_Id>  (200) 
nan

>  <PDBbind_Protein_Name>  (200) 
nan

>  <PDBbind_-Logkd/Ki>  (200) 
nan

>  <PDBbind_Kd/Ki>  (200) 
nan

>  <PDBbind_Kd_Or_Ki_Or_Ic50>  (200) 
nan

>  <PDBbind_Relation>  (200) 
nan

>  <PDBbind_Value>  (200) 
nan

>  <PDBbind_Unit>  (200) 
nan

>  <PDBbind_Standard_Value>  (200) 
nan

>  <PDBbind_Standard_Unit>  (200) 
nan

>  <PDB_Chain>  (200) 
['A']

>  <Num_Ligs>  (200) 
[1.0]

>  <Orthosteric>  (200) 
[1.0]

>  <Allosteric>  (200) 
[0.0]

>  <Pockets_Assigned>  (200) 
['A']

>  <Multisite>  (200) 
[False]

>  <Same_Number>  (200) 
True

>  <Same_Binding_Site>  (200) 
True

>  <Same_Orientation>  (200) 
True

>  <Lig_Order_in_.pdb>  (200) 
Orthosteric

$$$$

     RDKit          2D

 11 12  0  0  0  0  0  0  0  0999 V2000
    1.5000    0.0000    0.0000 C   0  0  0  0  0  0  0  0  0  0  0  0
    0.7500   -1.2990    0.0000 C   0  0  0  0  0  0  0  0  0  0  0  0
   -0.7500   -1.2990    0.0000 C   0  0  0  0  0  0  0  0  0  0  0  0
   -1.5000    0.0000    0.0000 C   0  0  0  0  0  0  0  0  0  0  0  0
   -0.7500    1.2990    0.0000 C   0  0  0  0  0  0  0  0  0  0  0  0
    0.7500    1.2990    0.0000 C   0  0  0  0  0  0  0  0  0  0  0  0
   -1.5000    2.5981    0.0000 C   0  0  0  0  0  0  0  0  0  0  0  0
   -3.0000    2.5981    0.0000 N   0  0  0  0  0  0  0  0  0  0  0  0
   -3.7500    1.2990    0.0000 C   0  0  0  0  0  0  0  0  0  0  0  0
   -3.0000    0.0000    0.0000 N   0  0  0  0  0  0  0  0  0  0  0  0
   -0.7500    3.8971    0.0000 N   0  0  0  0  0  0  0  0  0  0  0  0
  1  2  2  0
  2  3  1  0
  3  4  2  0
  4  5  1  0
  5  6  2  0
  5  7  1  0
  7  8  2  0
  8  9  1  0
  9 10  2  0
  7 11  1  0
  6  1  1  0
 10  4  1  0
M  END
>  <Structure>  (201) 
6Y0B

>  <Dataset>  (201) 
PDB

>  <Chain>  (201) 
A

>  <Spatial_Label>  (201) 
DFGin

>  <Dihedral_Label>  (201) 
ABAminus

>  <C_Helix_Label>  (201) 
Chelix-in

>  <Lig_ID>  (201) 
1LQ

>  <Lig_Entity_ID>  (201) 
6Y0B_3

>  <Lig_Name>  (201) 
quinazolin-4-amine

>  <Lig_Formula>  (201) 
C8H7N3

>  <Lig_SMILES>  (201) 
c1ccc2c(c1)c(ncn2)N

>  <Lig_MW>  (201) 
145.161

>  <Lig_ChEMBL_ID>  (201) 
['CHEMBL266128']

>  <Lig_DrugBank_ID>  (201) 
nan

>  <Occurence>  (201) 
1.0

>  <Lig_SMILES_Uncharged>  (201) 
Nc1ncnc2ccccc12

>  <Lig_Conformer>  (201) 
['NaN']

>  <Lig_Of_Interest>  (201) 
['Y']

>  <Lig_Completeness>  (201) 
[1.0]

>  <Lig_Occupancy>  (201) 
[1.0]

>  <Lig_RSCC>  (201) 
[0.959]

>  <Lig_RSR>  (201) 
[0.078]

>  <Lig_RMSZ_Bonds>  (201) 
[0.26]

>  <Lig_RMSZ_Angles>  (201) 
[0.66]

>  <Lig_Alt_Conf>  (201) 
0.0

>  <Title>  (201) 
Crystal structure of the cAMP-dependent protein kinase A cocrystallized with quinazolin-4-amine and PKI (5-24)

>  <Nonpolymer_Entity_Count>  (201) 
2.0

>  <Protein_Entity_Count>  (201) 
2.0

>  <Exp_Method>  (201) 
X-Ray Diffraction

>  <Cryst_Method>  (201) 
Vapor Diffusion, Hanging Drop; 100 Mm Mes-Bis-Tris-Buffer, 1 Mm Dithiothreitol, 0.1 Mm Sodium Edta, 75 Mm Licl, 0.2 Mega 8, 10Mm Quinazolin-4-Amine In Dmso, 0.5 Mm Pki (5-24) And 22 % Methanol (V/V)0.003 Ml Drop Volume, 0.5 Ml Reservoir Volume

>  <Deposit_Date>  (201) 
2020-02-07

>  <Resolution>  (201) 
1.71

>  <DOI>  (201) 
nan

>  <Source_Organism>  (201) 
Cricetulus griseus

>  <R_Free>  (201) 
0.2122

>  <Keywords>  (201) 
Transferase

>  <REMARK_280>  (201) 
 Crystal Solvent Content, Vs (%): 55.81 Matthews Coefficient, Vm (Angstroms**3/Da): 2.78 Crystallization Conditions: 100 Mm Mes-Bis-Tris-Buffer, 1 Mm Dithiothreitol, 0.1 Mm Sodium Edta, 75 Mm Licl, 0.2 Mega 8, 10Mm Quinazolin-4-Amine In Dmso, 0.5 Mm Pki (5-24) And 22 % Methanol (V/V)0.003 Ml Drop Volume, 0.5 Ml Reservoir Volume, pH 6.9, Vapor Diffusion, Hanging Drop, Temperature 277K 

>  <REMARK_610>  (201) 
nan

>  <pH>  (201) 
6.9

>  <Cryst_Technique>  (201) 
nan

>  <Sequence>  (201) 
GHMGNAAAAKKGSEQESVKEFLAKAKEEFLKKWESPSQNTAQLDHFDRIKTLGTGSFGRVMLVKHKETGNHYAMKILDKQKVVKLKQIEHTLNEKRILQAVNFPFLVKLEFSFKDNSNLYMVMEYVPGGEMFSHLRRIGRFSEPHARFYAAQIVLTFEYLHSLDLIYRDLKPENLLIDQQGYIQVTDFGFAKRVKGRTWTLCGTPEYLAPEIILSKGYNKAVDWWALGVLIYEMAAGYPPFFADQPIQIYEKIVSGKVRFPSHFSSDLKDLLRNLLQVDLTKRFGNLKNGVNDIKNHKWFATTDWIAIYQRKVEAPFIPKFKGPGDTSNFDDYEEEEIRVSINEKCGKEFTEF

>  <Sequence_Length>  (201) 
353.0

>  <Mutation_Count>  (201) 
0.0

>  <Gene_Name>  (201) 
PKACA

>  <MW>  (201) 
41.114

>  <Name>  (201) 
cAMP-Dependent Protein Kinase Catalytic Subunit Alpha

>  <Mutations>  (201) 
nan

>  <EC_Number>  (201) 
2.7.11.11

>  <Peptidic_Inhibitor>  (201) 
True

>  <Lig_Missing_Atoms>  (201) 
['No']

>  <PDBbind_Resolution>  (201) 
nan

>  <PDBbind_Release_Year>  (201) 
nan

>  <PDBbind_Comment>  (201) 
nan

>  <PDBbind_Uniprot_Id>  (201) 
nan

>  <PDBbind_Protein_Name>  (201) 
nan

>  <PDBbind_-Logkd/Ki>  (201) 
nan

>  <PDBbind_Kd/Ki>  (201) 
nan

>  <PDBbind_Kd_Or_Ki_Or_Ic50>  (201) 
nan

>  <PDBbind_Relation>  (201) 
nan

>  <PDBbind_Value>  (201) 
nan

>  <PDBbind_Unit>  (201) 
nan

>  <PDBbind_Standard_Value>  (201) 
nan

>  <PDBbind_Standard_Unit>  (201) 
nan

>  <PDB_Chain>  (201) 
['A']

>  <Num_Ligs>  (201) 
[1.0]

>  <Orthosteric>  (201) 
[1.0]

>  <Allosteric>  (201) 
[0.0]

>  <Pockets_Assigned>  (201) 
['A']

>  <Multisite>  (201) 
[False]

>  <Same_Number>  (201) 
True

>  <Same_Binding_Site>  (201) 
True

>  <Same_Orientation>  (201) 
True

>  <Lig_Order_in_.pdb>  (201) 
Orthosteric

$$$$

     RDKit          2D

 11 12  0  0  0  0  0  0  0  0999 V2000
    1.5000    0.0000    0.0000 C   0  0  0  0  0  0  0  0  0  0  0  0
    0.7500   -1.2990    0.0000 C   0  0  0  0  0  0  0  0  0  0  0  0
   -0.7500   -1.2990    0.0000 C   0  0  0  0  0  0  0  0  0  0  0  0
   -1.5000   -2.5981    0.0000 C   0  0  0  0  0  0  0  0  0  0  0  0
   -3.0000   -2.5981    0.0000 C   0  0  0  0  0  0  0  0  0  0  0  0
   -3.7500   -1.2990    0.0000 N   0  0  0  0  0  0  0  0  0  0  0  0
   -3.0000    0.0000    0.0000 C   0  0  0  0  0  0  0  0  0  0  0  0
   -1.5000    0.0000    0.0000 C   0  0  0  0  0  0  0  0  0  0  0  0
   -0.7500    1.2990    0.0000 N   0  0  0  0  0  0  0  0  0  0  0  0
    0.7500    1.2990    0.0000 C   0  0  0  0  0  0  0  0  0  0  0  0
   -3.7500    1.2990    0.0000 N   0  0  0  0  0  0  0  0  0  0  0  0
  1  2  2  0
  2  3  1  0
  3  4  2  0
  4  5  1  0
  5  6  2  0
  6  7  1  0
  7  8  2  0
  8  9  1  0
  9 10  2  0
  7 11  1  0
 10  1  1  0
  8  3  1  0
M  END
>  <Structure>  (202) 
6Y2O

>  <Dataset>  (202) 
PDB

>  <Chain>  (202) 
A

>  <Spatial_Label>  (202) 
DFGin

>  <Dihedral_Label>  (202) 
BLAminus

>  <C_Helix_Label>  (202) 
Chelix-in

>  <Lig_ID>  (202) 
O72

>  <Lig_Entity_ID>  (202) 
6Y2O_4

>  <Lig_Name>  (202) 
1,7-naphthyridin-8-amine

>  <Lig_Formula>  (202) 
C8H7N3

>  <Lig_SMILES>  (202) 
c1cc2ccnc(c2nc1)N

>  <Lig_MW>  (202) 
145.161

>  <Lig_ChEMBL_ID>  (202) 
nan

>  <Lig_DrugBank_ID>  (202) 
nan

>  <Occurence>  (202) 
2.0

>  <Lig_SMILES_Uncharged>  (202) 
Nc1nccc2cccnc12

>  <Lig_Conformer>  (202) 
['NaN']

>  <Lig_Of_Interest>  (202) 
['Y']

>  <Lig_Completeness>  (202) 
[1.0]

>  <Lig_Occupancy>  (202) 
[1.0]

>  <Lig_RSCC>  (202) 
[0.957]

>  <Lig_RSR>  (202) 
[0.127]

>  <Lig_RMSZ_Bonds>  (202) 
[0.14]

>  <Lig_RMSZ_Angles>  (202) 
[0.78]

>  <Lig_Alt_Conf>  (202) 
0.0

>  <Title>  (202) 
Crystal structure of the cAMP-dependent protein kinase A cocrystallized with 1,7-Naphthyridin-8-amine and PKI (5-24)

>  <Nonpolymer_Entity_Count>  (202) 
6.0

>  <Protein_Entity_Count>  (202) 
2.0

>  <Exp_Method>  (202) 
X-Ray Diffraction

>  <Cryst_Method>  (202) 
Vapor Diffusion, Hanging Drop; 30 Mm Mes-Bis-Tris-Buffer, 1 Mm Dithiothreitol, 0.1 Mm Sodium Edta, 75 Mm Licl, 0.2 Mega8, 14 Mm 1,7-Naphthyridin-8-Amine, 0.5 Mm Pki (5-24) And 18-23 % Methanol (V/V)0.004 Ml Drop Volume, 1.0 Ml Reservoir Volume

>  <Deposit_Date>  (202) 
2020-02-17

>  <Resolution>  (202) 
2.01

>  <DOI>  (202) 
nan

>  <Source_Organism>  (202) 
Cricetulus griseus

>  <R_Free>  (202) 
0.2539

>  <Keywords>  (202) 
Transferase

>  <REMARK_280>  (202) 
 Crystal Solvent Content, Vs (%): 56.66 Matthews Coefficient, Vm (Angstroms**3/Da): 2.84 Crystallization Conditions: 30 Mm Mes-Bis-Tris-Buffer, 1 Mm Dithiothreitol, 0.1 Mm Sodium Edta, 75 Mm Licl, 0.2 Mega8, 14 Mm 1,7-Naphthyridin-8-Amine, 0.5 Mm Pki (5-24) And 18-23 % Methanol (V/V)0.004 Ml Drop Volume, 1.0 Ml Reservoir Volume, pH 6.9, Vapor Diffusion, Hanging Drop, Temperature 277K 

>  <REMARK_610>  (202) 
nan

>  <pH>  (202) 
6.9

>  <Cryst_Technique>  (202) 
nan

>  <Sequence>  (202) 
GHMGNAAAAKKGSEQESVKEFLAKAKEEFLKKWESPSQNTAQLDHFDRIKTLGTGSFGRVMLVKHKETGNHYAMKILDKQKVVKLKQIEHTLNEKRILQAVNFPFLVKLEFSFKDNSNLYMVMEYVPGGEMFSHLRRIGRFSEPHARFYAAQIVLTFEYLHSLDLIYRDLKPENLLIDQQGYIQVTDFGFAKRVKGRTWTLCGTPEYLAPEIILSKGYNKAVDWWALGVLIYEMAAGYPPFFADQPIQIYEKIVSGKVRFPSHFSSDLKDLLRNLLQVDLTKRFGNLKNGVNDIKNHKWFATTDWIAIYQRKVEAPFIPKFKGPGDTSNFDDYEEEEIRVSINEKCGKEFTEF

>  <Sequence_Length>  (202) 
353.0

>  <Mutation_Count>  (202) 
0.0

>  <Gene_Name>  (202) 
PKACA

>  <MW>  (202) 
41.114

>  <Name>  (202) 
cAMP-Dependent Protein Kinase Catalytic Subunit Alpha

>  <Mutations>  (202) 
nan

>  <EC_Number>  (202) 
2.7.11.11

>  <Peptidic_Inhibitor>  (202) 
True

>  <Lig_Missing_Atoms>  (202) 
['No']

>  <PDBbind_Resolution>  (202) 
nan

>  <PDBbind_Release_Year>  (202) 
nan

>  <PDBbind_Comment>  (202) 
nan

>  <PDBbind_Uniprot_Id>  (202) 
nan

>  <PDBbind_Protein_Name>  (202) 
nan

>  <PDBbind_-Logkd/Ki>  (202) 
nan

>  <PDBbind_Kd/Ki>  (202) 
nan

>  <PDBbind_Kd_Or_Ki_Or_Ic50>  (202) 
nan

>  <PDBbind_Relation>  (202) 
nan

>  <PDBbind_Value>  (202) 
nan

>  <PDBbind_Unit>  (202) 
nan

>  <PDBbind_Standard_Value>  (202) 
nan

>  <PDBbind_Standard_Unit>  (202) 
nan

>  <PDB_Chain>  (202) 
['A']

>  <Num_Ligs>  (202) 
[1.0]

>  <Orthosteric>  (202) 
[1.0]

>  <Allosteric>  (202) 
[0.0]

>  <Pockets_Assigned>  (202) 
['A']

>  <Multisite>  (202) 
[False]

>  <Same_Number>  (202) 
True

>  <Same_Binding_Site>  (202) 
True

>  <Same_Orientation>  (202) 
True

>  <Lig_Order_in_.pdb>  (202) 
Orthosteric

$$$$

     RDKit          2D

 21 23  0  0  0  0  0  0  0  0999 V2000
    1.5000    0.0000    0.0000 C   0  0  0  0  0  0  0  0  0  0  0  0
    0.7500   -1.2990    0.0000 C   0  0  0  0  0  0  0  0  0  0  0  0
   -0.7500   -1.2990    0.0000 C   0  0  0  0  0  0  0  0  0  0  0  0
   -1.5000    0.0000    0.0000 C   0  0  0  0  0  0  0  0  0  0  0  0
   -3.0000    0.0000    0.0000 C   0  0  0  0  0  0  0  0  0  0  0  0
   -3.7500   -1.2990    0.0000 C   0  0  0  0  0  0  0  0  0  0  0  0
   -3.0000   -2.5981    0.0000 N   0  0  0  0  0  0  0  0  0  0  0  0
   -1.5000   -2.5981    0.0000 C   0  0  0  0  0  0  0  0  0  0  0  0
   -0.7500   -3.8971    0.0000 N   0  0  0  0  0  0  0  0  0  0  0  0
   -0.7500    1.2990    0.0000 C   0  0  0  0  0  0  0  0  0  0  0  0
    0.7500    1.2990    0.0000 C   0  0  0  0  0  0  0  0  0  0  0  0
   -1.5000    2.5981    0.0000 S   0  0  0  0  0  0  0  0  0  0  0  0
   -0.2010    3.3481    0.0000 O   0  0  0  0  0  0  0  0  0  0  0  0
   -2.7990    1.8481    0.0000 O   0  0  0  0  0  0  0  0  0  0  0  0
   -2.2500    3.8971    0.0000 N   0  0  0  0  0  0  0  0  0  0  0  0
   -3.7458    3.7850    0.0000 C   0  0  0  0  0  0  0  0  0  0  0  0
   -4.7661    4.8846    0.0000 C   0  0  0  0  0  0  0  0  0  0  0  0
   -4.5425    6.3678    0.0000 C   0  0  0  0  0  0  0  0  0  0  0  0
   -3.2435    7.1178    0.0000 N   0  0  0  0  0  0  0  0  0  0  0  0
   -1.8472    6.5698    0.0000 C   0  0  0  0  0  0  0  0  0  0  0  0
   -1.4050    5.1365    0.0000 C   0  0  0  0  0  0  0  0  0  0  0  0
  1  2  2  0
  2  3  1  0
  3  4  2  0
  4  5  1  0
  5  6  2  0
  6  7  1  0
  7  8  2  0
  8  9  1  0
  4 10  1  0
 10 11  2  0
 10 12  1  0
 12 13  2  0
 12 14  2  0
 12 15  1  0
 15 16  1  0
 16 17  1  0
 17 18  1  0
 18 19  1  0
 19 20  1  0
 20 21  1  0
 11  1  1  0
  8  3  1  0
 21 15  1  0
M  END
>  <Structure>  (203) 
6Y2U

>  <Dataset>  (203) 
PDB

>  <Chain>  (203) 
A

>  <Spatial_Label>  (203) 
DFGin

>  <Dihedral_Label>  (203) 
ABAminus

>  <C_Helix_Label>  (203) 
Chelix-in

>  <Lig_ID>  (203) 
LRT

>  <Lig_Entity_ID>  (203) 
6Y2U_3

>  <Lig_Name>  (203) 
5-(1,4-diazepan-1-ylsulfonyl)isoquinolin-1-amine

>  <Lig_Formula>  (203) 
C14H18N4O2S

>  <Lig_SMILES>  (203) 
c1cc2c(ccnc2N)c(c1)S(=O)(=O)N3CCCNCC3

>  <Lig_MW>  (203) 
306.383

>  <Lig_ChEMBL_ID>  (203) 
['CHEMBL1667963']

>  <Lig_DrugBank_ID>  (203) 
nan

>  <Occurence>  (203) 
3.0

>  <Lig_SMILES_Uncharged>  (203) 
Nc1nccc2c(S(=O)(=O)N3CCCNCC3)cccc12

>  <Lig_Conformer>  (203) 
['A', 'B']

>  <Lig_Of_Interest>  (203) 
['Y', 'Y']

>  <Lig_Completeness>  (203) 
[1.0, 1.0]

>  <Lig_Occupancy>  (203) 
[0.5, 0.5]

>  <Lig_RSCC>  (203) 
[0.953, 0.953]

>  <Lig_RSR>  (203) 
[0.11, 0.11]

>  <Lig_RMSZ_Bonds>  (203) 
[0.18, 0.17]

>  <Lig_RMSZ_Angles>  (203) 
[0.46, 0.38]

>  <Lig_Alt_Conf>  (203) 
2.0

>  <Title>  (203) 
Crystal structure of the cAMP-dependent protein kinase A cocrystallized with aminofasudil and PKI (5-24)

>  <Nonpolymer_Entity_Count>  (203) 
1.0

>  <Protein_Entity_Count>  (203) 
2.0

>  <Exp_Method>  (203) 
X-Ray Diffraction

>  <Cryst_Method>  (203) 
Vapor Diffusion, Hanging Drop; 100 Mm Mes-Bis-Tris-Buffer, 1 Mm Dithiothreitol, 0.1 Mm Sodium Edta, 75 Mm Licl, 0.2 Mega8, 5 Mm Aminofasudil (In Dmso), 0.5 Mm Pki (5-24) And 18-23 % Methanol (V/V)0.004 Ml Drop Volume, 0.5 Ml Reservoir Volume

>  <Deposit_Date>  (203) 
2020-02-17

>  <Resolution>  (203) 
1.93

>  <DOI>  (203) 
nan

>  <Source_Organism>  (203) 
Cricetulus griseus

>  <R_Free>  (203) 
0.2215

>  <Keywords>  (203) 
Transferase

>  <REMARK_280>  (203) 
 Crystal Solvent Content, Vs (%): 52.70 Matthews Coefficient, Vm (Angstroms**3/Da): 2.72 Crystallization Conditions: 100 Mm Mes-Bis-Tris-Buffer, 1 Mm Dithiothreitol, 0.1 Mm Sodium Edta, 75 Mm Licl, 0.2 Mega8, 5 Mm Aminofasudil (In Dmso), 0.5 Mm Pki (5-24) And 18-23 % Methanol (V/V)0.004 Ml Drop Volume, 0.5 Ml Reservoir Volume, pH 6.9, Vapor Diffusion, Hanging Drop, Temperature 277K 

>  <REMARK_610>  (203) 
nan

>  <pH>  (203) 
6.9

>  <Cryst_Technique>  (203) 
nan

>  <Sequence>  (203) 
GHMGNAAAAKKGSEQESVKEFLAKAKEEFLKKWESPSQNTAQLDHFDRIKTLGTGSFGRVMLVKHKETGNHYAMKILDKQKVVKLKQIEHTLNEKRILQAVNFPFLVKLEFSFKDNSNLYMVMEYVPGGEMFSHLRRIGRFSEPHARFYAAQIVLTFEYLHSLDLIYRDLKPENLLIDQQGYIQVTDFGFAKRVKGRTWTLCGTPEYLAPEIILSKGYNKAVDWWALGVLIYEMAAGYPPFFADQPIQIYEKIVSGKVRFPSHFSSDLKDLLRNLLQVDLTKRFGNLKNGVNDIKNHKWFATTDWIAIYQRKVEAPFIPKFKGPGDTSNFDDYEEEEIRVSINEKCGKEFTEF

>  <Sequence_Length>  (203) 
353.0

>  <Mutation_Count>  (203) 
0.0

>  <Gene_Name>  (203) 
PKACA

>  <MW>  (203) 
41.114

>  <Name>  (203) 
cAMP-Dependent Protein Kinase Catalytic Subunit Alpha

>  <Mutations>  (203) 
nan

>  <EC_Number>  (203) 
2.7.11.11

>  <Peptidic_Inhibitor>  (203) 
True

>  <Lig_Missing_Atoms>  (203) 
['No', 'No']

>  <PDBbind_Resolution>  (203) 
nan

>  <PDBbind_Release_Year>  (203) 
nan

>  <PDBbind_Comment>  (203) 
nan

>  <PDBbind_Uniprot_Id>  (203) 
nan

>  <PDBbind_Protein_Name>  (203) 
nan

>  <PDBbind_-Logkd/Ki>  (203) 
nan

>  <PDBbind_Kd/Ki>  (203) 
nan

>  <PDBbind_Kd_Or_Ki_Or_Ic50>  (203) 
nan

>  <PDBbind_Relation>  (203) 
nan

>  <PDBbind_Value>  (203) 
nan

>  <PDBbind_Unit>  (203) 
nan

>  <PDBbind_Standard_Value>  (203) 
nan

>  <PDBbind_Standard_Unit>  (203) 
nan

>  <PDB_Chain>  (203) 
['A']

>  <Num_Ligs>  (203) 
[1.0]

>  <Orthosteric>  (203) 
[1.0]

>  <Allosteric>  (203) 
[0.0]

>  <Pockets_Assigned>  (203) 
['A']

>  <Multisite>  (203) 
[False]

>  <Same_Number>  (203) 
True

>  <Same_Binding_Site>  (203) 
True

>  <Same_Orientation>  (203) 
True

>  <Lig_Order_in_.pdb>  (203) 
Orthosteric

$$$$

     RDKit          2D

 14 15  0  0  0  0  0  0  0  0999 V2000
    5.2500   -3.8971    0.0000 C   0  0  0  0  0  0  0  0  0  0  0  0
    3.7500   -3.8971    0.0000 O   0  0  0  0  0  0  0  0  0  0  0  0
    3.0000   -2.5981    0.0000 C   0  0  0  0  0  0  0  0  0  0  0  0
    3.7500   -1.2990    0.0000 O   0  0  0  0  0  0  0  0  0  0  0  0
    1.5000   -2.5981    0.0000 C   0  0  0  0  0  0  0  0  0  0  0  0
    0.7500   -3.8971    0.0000 C   0  0  0  0  0  0  0  0  0  0  0  0
   -0.7500   -3.8971    0.0000 C   0  0  0  0  0  0  0  0  0  0  0  0
   -1.5000   -2.5981    0.0000 C   0  0  0  0  0  0  0  0  0  0  0  0
   -0.7500   -1.2990    0.0000 C   0  0  0  0  0  0  0  0  0  0  0  0
    0.7500   -1.2990    0.0000 C   0  0  0  0  0  0  0  0  0  0  0  0
    1.5000    0.0000    0.0000 C   0  0  0  0  0  0  0  0  0  0  0  0
    0.7500    1.2990    0.0000 C   0  0  0  0  0  0  0  0  0  0  0  0
   -0.7500    1.2990    0.0000 N   0  0  0  0  0  0  0  0  0  0  0  0
   -1.5000    0.0000    0.0000 C   0  0  0  0  0  0  0  0  0  0  0  0
  1  2  1  0
  2  3  1  0
  3  4  2  0
  3  5  1  0
  5  6  2  0
  6  7  1  0
  7  8  2  0
  8  9  1  0
  9 10  2  0
 10 11  1  0
 11 12  2  0
 12 13  1  0
 13 14  2  0
 10  5  1  0
 14  9  1  0
M  END
>  <Structure>  (204) 
6Y89

>  <Dataset>  (204) 
PDB

>  <Chain>  (204) 
A

>  <Spatial_Label>  (204) 
DFGin

>  <Dihedral_Label>  (204) 
BLAminus

>  <C_Helix_Label>  (204) 
Chelix-in

>  <Lig_ID>  (204) 
OGB

>  <Lig_Entity_ID>  (204) 
6Y89_3

>  <Lig_Name>  (204) 
methyl isoquinoline-5-carboxylate

>  <Lig_Formula>  (204) 
C11H9NO2

>  <Lig_SMILES>  (204) 
COC(=O)c1cccc2c1ccnc2

>  <Lig_MW>  (204) 
187.195

>  <Lig_ChEMBL_ID>  (204) 
nan

>  <Lig_DrugBank_ID>  (204) 
nan

>  <Occurence>  (204) 
1.0

>  <Lig_SMILES_Uncharged>  (204) 
COC(=O)c1cccc2cnccc12

>  <Lig_Conformer>  (204) 
['A', 'B']

>  <Lig_Of_Interest>  (204) 
['Y', 'Y']

>  <Lig_Completeness>  (204) 
[1.0, 1.0]

>  <Lig_Occupancy>  (204) 
[0.466, 0.534]

>  <Lig_RSCC>  (204) 
[0.965, 0.965]

>  <Lig_RSR>  (204) 
[0.081, 0.081]

>  <Lig_RMSZ_Bonds>  (204) 
[0.25, 0.25]

>  <Lig_RMSZ_Angles>  (204) 
[0.37, 0.39]

>  <Lig_Alt_Conf>  (204) 
2.0

>  <Title>  (204) 
Crystal structure of the cAMP-dependent protein kinase A cocrystallized with Methyl 5-isoquinolinecarboxylate and PKI (5-24)

>  <Nonpolymer_Entity_Count>  (204) 
6.0

>  <Protein_Entity_Count>  (204) 
2.0

>  <Exp_Method>  (204) 
X-Ray Diffraction

>  <Cryst_Method>  (204) 
Vapor Diffusion, Hanging Drop; 30 Mm Mes-Bis-Tris-Buffer, 1 Mm Dithiothreitol, 0.1 Mm Sodium Edta, 75 Mm Licl, 0.2 Mm Mega 8, 15 Mm Methyl 5-Isoquinolinecarboxylate, 0.5 Mm Pki (5-24) And 18-23 % Methanol (V/V)0.004 Ml Drop Volume, 1.0 Ml Reservoir Volume

>  <Deposit_Date>  (204) 
2020-03-04

>  <Resolution>  (204) 
1.56

>  <DOI>  (204) 
nan

>  <Source_Organism>  (204) 
Cricetulus griseus

>  <R_Free>  (204) 
0.1916

>  <Keywords>  (204) 
Transferase

>  <REMARK_280>  (204) 
 Crystal Solvent Content, Vs (%): 54.91 Matthews Coefficient, Vm (Angstroms**3/Da): 2.73 Crystallization Conditions: 30 Mm Mes-Bis-Tris-Buffer, 1 Mm Dithiothreitol, 0.1 Mm Sodium Edta, 75 Mm Licl, 0.2 Mm Mega 8, 15 Mm Methyl 5-Isoquinolinecarboxylate, 0.5 Mm Pki (5-24) And 18- 23 % Methanol (V/V)0.004 Ml Drop Volume, 1.0 Ml Reservoir Volume, pH 6.9, Vapor Diffusion, Hanging Drop, Temperature 277K 

>  <REMARK_610>  (204) 
nan

>  <pH>  (204) 
6.9

>  <Cryst_Technique>  (204) 
nan

>  <Sequence>  (204) 
GHMGNAAAAKKGSEQESVKEFLAKAKEEFLKKWESPSQNTAQLDHFDRIKTLGTGSFGRVMLVKHKETGNHYAMKILDKQKVVKLKQIEHTLNEKRILQAVNFPFLVKLEFSFKDNSNLYMVMEYVPGGEMFSHLRRIGRFSEPHARFYAAQIVLTFEYLHSLDLIYRDLKPENLLIDQQGYIQVTDFGFAKRVKGRTWTLCGTPEYLAPEIILSKGYNKAVDWWALGVLIYEMAAGYPPFFADQPIQIYEKIVSGKVRFPSHFSSDLKDLLRNLLQVDLTKRFGNLKNGVNDIKNHKWFATTDWIAIYQRKVEAPFIPKFKGPGDTSNFDDYEEEEIRVSINEKCGKEFTEF

>  <Sequence_Length>  (204) 
353.0

>  <Mutation_Count>  (204) 
0.0

>  <Gene_Name>  (204) 
PKACA

>  <MW>  (204) 
41.034

>  <Name>  (204) 
cAMP-Dependent Protein Kinase Catalytic Subunit Alpha

>  <Mutations>  (204) 
nan

>  <EC_Number>  (204) 
2.7.11.11

>  <Peptidic_Inhibitor>  (204) 
True

>  <Lig_Missing_Atoms>  (204) 
['No', 'No']

>  <PDBbind_Resolution>  (204) 
nan

>  <PDBbind_Release_Year>  (204) 
nan

>  <PDBbind_Comment>  (204) 
nan

>  <PDBbind_Uniprot_Id>  (204) 
nan

>  <PDBbind_Protein_Name>  (204) 
nan

>  <PDBbind_-Logkd/Ki>  (204) 
nan

>  <PDBbind_Kd/Ki>  (204) 
nan

>  <PDBbind_Kd_Or_Ki_Or_Ic50>  (204) 
nan

>  <PDBbind_Relation>  (204) 
nan

>  <PDBbind_Value>  (204) 
nan

>  <PDBbind_Unit>  (204) 
nan

>  <PDBbind_Standard_Value>  (204) 
nan

>  <PDBbind_Standard_Unit>  (204) 
nan

>  <PDB_Chain>  (204) 
['A']

>  <Num_Ligs>  (204) 
[1.0]

>  <Orthosteric>  (204) 
[1.0]

>  <Allosteric>  (204) 
[0.0]

>  <Pockets_Assigned>  (204) 
['A']

>  <Multisite>  (204) 
[False]

>  <Same_Number>  (204) 
True

>  <Same_Binding_Site>  (204) 
True

>  <Same_Orientation>  (204) 
True

>  <Lig_Order_in_.pdb>  (204) 
Orthosteric

$$$$

     RDKit          2D

 31 33  0  0  0  0  0  0  0  0999 V2000
    1.5000    0.0000    0.0000 C   0  0  0  0  0  0  0  0  0  0  0  0
    0.7500   -1.2990    0.0000 N   0  0  0  0  0  0  0  0  0  0  0  0
   -0.7500   -1.2990    0.0000 C   0  0  0  0  0  0  0  0  0  0  0  0
   -1.5000    0.0000    0.0000 C   0  0  0  0  0  0  0  0  0  0  0  0
   -0.7500    1.2990    0.0000 C   0  0  0  0  0  0  0  0  0  0  0  0
    0.7500    1.2990    0.0000 N   0  0  0  0  0  0  0  0  0  0  0  0
   -1.7537    2.4138    0.0000 N   0  0  0  0  0  0  0  0  0  0  0  0
   -3.1240    1.8037    0.0000 C   0  0  0  0  0  0  0  0  0  0  0  0
   -2.9672    0.3119    0.0000 N   0  0  0  0  0  0  0  0  0  0  0  0
   -1.4418    3.8810    0.0000 C   0  0  0  0  0  0  0  0  0  0  0  0
   -2.4455    4.9957    0.0000 C   0  0  0  0  0  0  0  0  0  0  0  0
   -1.6955    6.2947    0.0000 C   0  0  0  0  0  0  0  0  0  0  0  0
   -0.2283    5.9829    0.0000 C   0  0  0  0  0  0  0  0  0  0  0  0
   -0.0715    4.4911    0.0000 O   0  0  0  0  0  0  0  0  0  0  0  0
    0.8864    6.9866    0.0000 C   0  0  0  0  0  0  0  0  0  0  0  0
    2.3130    6.5230    0.0000 O   0  0  0  0  0  0  0  0  0  0  0  0
    3.4277    7.5267    0.0000 P   0  0  0  0  0  5  0  0  0  0  0  0
    2.4240    8.6414    0.0000 O   0  0  0  0  0  0  0  0  0  0  0  0
    4.4314    6.4120    0.0000 O   0  0  0  0  0  0  0  0  0  0  0  0
    4.5424    8.5304    0.0000 O   0  0  0  0  0  0  0  0  0  0  0  0
    4.2306    9.9976    0.0000 P   0  0  0  0  0  5  0  0  0  0  0  0
    5.6978   10.3095    0.0000 O   0  0  0  0  0  0  0  0  0  0  0  0
    2.7633    9.6858    0.0000 O   0  0  0  0  0  0  0  0  0  0  0  0
    3.9187   11.4649    0.0000 O   0  0  0  0  0  0  0  0  0  0  0  0
    2.4921   11.9284    0.0000 P   0  0  0  0  0  0  0  0  0  0  0  0
    2.9556   13.3550    0.0000 O   0  0  0  0  0  0  0  0  0  0  0  0
    2.0286   10.5018    0.0000 O   0  0  0  0  0  0  0  0  0  0  0  0
    1.0655   12.3919    0.0000 O   0  0  0  0  0  0  0  0  0  0  0  0
   -2.3056    7.6651    0.0000 O   0  0  0  0  0  0  0  0  0  0  0  0
   -3.9373    4.8389    0.0000 O   0  0  0  0  0  0  0  0  0  0  0  0
   -1.5000   -2.5981    0.0000 N   0  0  0  0  0  0  0  0  0  0  0  0
  1  2  2  0
  2  3  1  0
  3  4  2  0
  4  5  1  0
  5  6  2  0
  5  7  1  0
  7  8  1  0
  8  9  2  0
 10  7  1  1
 10 11  1  0
 11 12  1  0
 12 13  1  0
 13 14  1  0
 13 15  1  1
 15 16  1  0
 16 17  1  0
 17 18  2  0
 17 19  1  1
 17 20  1  0
 20 21  1  0
 21 22  2  0
 21 23  1  1
 21 24  1  0
 24 25  1  0
 25 26  2  0
 25 27  1  0
 25 28  1  0
 12 29  1  6
 11 30  1  6
  3 31  1  0
  6  1  1  0
  9  4  1  0
 14 10  1  0
M  END
>  <Structure>  (205) 
6Y8C

>  <Dataset>  (205) 
PDB

>  <Chain>  (205) 
A

>  <Spatial_Label>  (205) 
DFGin

>  <Dihedral_Label>  (205) 
BLAminus

>  <C_Helix_Label>  (205) 
Chelix-in

>  <Lig_ID>  (205) 
ATP

>  <Lig_Entity_ID>  (205) 
6Y8C_4

>  <Lig_Name>  (205) 
ADENOSINE-5'-TRIPHOSPHATE

>  <Lig_Formula>  (205) 
C10H16N5O13P3

>  <Lig_SMILES>  (205) 
c1nc(c2c(n1)n(cn2)[C@H]3[C@@H]([C@@H]([C@H](O3)CO[P@@](=O)(O)O[P@](=O)(O)OP(=O)(O)O)O)O)N

>  <Lig_MW>  (205) 
507.181

>  <Lig_ChEMBL_ID>  (205) 
['CHEMBL14249']

>  <Lig_DrugBank_ID>  (205) 
['DB00171']

>  <Occurence>  (205) 
14.0

>  <Lig_SMILES_Uncharged>  (205) 
Nc1ncnc2c1ncn2[C@@H]1O[C@H](CO[P@@](=O)(O)O[P@](=O)(O)OP(=O)(O)O)[C@@H](O)[C@H]1O

>  <Lig_Conformer>  (205) 
['NaN']

>  <Lig_Of_Interest>  (205) 
['Y']

>  <Lig_Completeness>  (205) 
[0.871]

>  <Lig_Occupancy>  (205) 
[0.871]

>  <Lig_RSCC>  (205) 
[0.98]

>  <Lig_RSR>  (205) 
[0.065]

>  <Lig_RMSZ_Bonds>  (205) 
[0.96]

>  <Lig_RMSZ_Angles>  (205) 
[1.32]

>  <Lig_Alt_Conf>  (205) 
0.0

>  <Title>  (205) 
Crystal structure of the cAMP-dependent protein kinase A cocrystallized with ATP and PKI (5-24)

>  <Nonpolymer_Entity_Count>  (205) 
9.0

>  <Protein_Entity_Count>  (205) 
2.0

>  <Exp_Method>  (205) 
X-Ray Diffraction

>  <Cryst_Method>  (205) 
Vapor Diffusion, Hanging Drop; 30 Mm Mes-Bis-Tris-Buffer, 1 Mm Dithiothreitol, 0.1 Mm Sodium Edta, Licl,  Mega 8, Atp Mgcl2 And 18-23 % Methanol (V/V), 0.7 Mm Pki(5-24), 0.004 Ml Drop Volume, 0.5 Ml Reservoir Volume

>  <Deposit_Date>  (205) 
2020-03-04

>  <Resolution>  (205) 
1.76

>  <DOI>  (205) 
nan

>  <Source_Organism>  (205) 
Cricetulus griseus

>  <R_Free>  (205) 
0.1902

>  <Keywords>  (205) 
Transferase

>  <REMARK_280>  (205) 
 Crystal Solvent Content, Vs (%): 54.76 Matthews Coefficient, Vm (Angstroms**3/Da): 2.72 Crystallization Conditions: 30 Mm Mes-Bis-Tris-Buffer, 1 Mm Dithiothreitol, 0.1 Mm Sodium Edta, Licl, Mega 8, Atp Mgcl2 And 18-23 % Methanol (V/V), 0.7 Mm Pki(5-24), 0.004 Ml Drop Volume, 0.5 Ml Reservoir Volume, pH 6.9, Vapor Diffusion, Hanging Drop, Temperature 277K 

>  <REMARK_610>  (205) 
  ATP A 402 

>  <pH>  (205) 
6.9

>  <Cryst_Technique>  (205) 
nan

>  <Sequence>  (205) 
GHMGNAAAAKKGSEQESVKEFLAKAKEEFLKKWESPSQNTAQLDHFDRIKTLGTGSFGRVMLVKHKETGNHYAMKILDKQKVVKLKQIEHTLNEKRILQAVNFPFLVKLEFSFKDNSNLYMVMEYVPGGEMFSHLRRIGRFSEPHARFYAAQIVLTFEYLHSLDLIYRDLKPENLLIDQQGYIQVTDFGFAKRVKGRTWTLCGTPEYLAPEIILSKGYNKAVDWWALGVLIYEMAAGYPPFFADQPIQIYEKIVSGKVRFPSHFSSDLKDLLRNLLQVDLTKRFGNLKNGVNDIKNHKWFATTDWIAIYQRKVEAPFIPKFKGPGDTSNFDDYEEEEIRVSINEKCGKEFTEF

>  <Sequence_Length>  (205) 
353.0

>  <Mutation_Count>  (205) 
0.0

>  <Gene_Name>  (205) 
PKACA

>  <MW>  (205) 
41.034

>  <Name>  (205) 
cAMP-Dependent Protein Kinase Catalytic Subunit Alpha

>  <Mutations>  (205) 
nan

>  <EC_Number>  (205) 
2.7.11.11

>  <Peptidic_Inhibitor>  (205) 
True

>  <Lig_Missing_Atoms>  (205) 
['No']

>  <PDBbind_Resolution>  (205) 
nan

>  <PDBbind_Release_Year>  (205) 
nan

>  <PDBbind_Comment>  (205) 
nan

>  <PDBbind_Uniprot_Id>  (205) 
nan

>  <PDBbind_Protein_Name>  (205) 
nan

>  <PDBbind_-Logkd/Ki>  (205) 
nan

>  <PDBbind_Kd/Ki>  (205) 
nan

>  <PDBbind_Kd_Or_Ki_Or_Ic50>  (205) 
nan

>  <PDBbind_Relation>  (205) 
nan

>  <PDBbind_Value>  (205) 
nan

>  <PDBbind_Unit>  (205) 
nan

>  <PDBbind_Standard_Value>  (205) 
nan

>  <PDBbind_Standard_Unit>  (205) 
nan

>  <PDB_Chain>  (205) 
['A']

>  <Num_Ligs>  (205) 
[1.0]

>  <Orthosteric>  (205) 
[1.0]

>  <Allosteric>  (205) 
[0.0]

>  <Pockets_Assigned>  (205) 
['A']

>  <Multisite>  (205) 
[False]

>  <Same_Number>  (205) 
True

>  <Same_Binding_Site>  (205) 
True

>  <Same_Orientation>  (205) 
True

>  <Lig_Order_in_.pdb>  (205) 
Orthosteric

$$$$

     RDKit          2D

 20 22  0  0  0  0  0  0  0  0999 V2000
    0.7500   -3.8971    0.0000 C   0  0  0  0  0  0  0  0  0  0  0  0
    1.5000   -2.5981    0.0000 C   0  0  0  0  0  0  0  0  0  0  0  0
    0.7500   -1.2990    0.0000 C   0  0  0  0  0  0  0  0  0  0  0  0
    1.5000    0.0000    0.0000 C   0  0  0  0  0  0  0  0  0  0  0  0
    0.7500    1.2990    0.0000 N   0  0  0  0  0  0  0  0  0  0  0  0
   -0.7500    1.2990    0.0000 C   0  0  0  0  0  0  0  0  0  0  0  0
   -1.5000    0.0000    0.0000 C   0  0  0  0  0  0  0  0  0  0  0  0
   -0.7500   -1.2990    0.0000 C   0  0  0  0  0  0  0  0  0  0  0  0
   -1.5000   -2.5981    0.0000 C   0  0  0  0  0  0  0  0  0  0  0  0
   -0.7500   -3.8971    0.0000 C   0  0  0  0  0  0  0  0  0  0  0  0
   -3.0000   -2.5981    0.0000 S   0  0  0  0  0  0  0  0  0  0  0  0
   -3.0000   -4.0981    0.0000 O   0  0  0  0  0  0  0  0  0  0  0  0
   -3.0000   -1.0981    0.0000 O   0  0  0  0  0  0  0  0  0  0  0  0
   -4.5000   -2.5981    0.0000 N   0  0  0  0  0  0  0  0  0  0  0  0
   -5.1508   -3.9495    0.0000 C   0  0  0  0  0  0  0  0  0  0  0  0
   -6.6132   -4.2833    0.0000 C   0  0  0  0  0  0  0  0  0  0  0  0
   -7.7860   -3.3481    0.0000 C   0  0  0  0  0  0  0  0  0  0  0  0
   -7.7860   -1.8481    0.0000 N   0  0  0  0  0  0  0  0  0  0  0  0
   -6.6132   -0.9128    0.0000 C   0  0  0  0  0  0  0  0  0  0  0  0
   -5.1508   -1.2466    0.0000 C   0  0  0  0  0  0  0  0  0  0  0  0
  1  2  2  0
  2  3  1  0
  3  4  2  0
  4  5  1  0
  5  6  2  0
  6  7  1  0
  7  8  2  0
  8  9  1  0
  9 10  2  0
  9 11  1  0
 11 12  2  0
 11 13  2  0
 11 14  1  0
 14 15  1  0
 15 16  1  0
 16 17  1  0
 17 18  1  0
 18 19  1  0
 19 20  1  0
 10  1  1  0
  8  3  1  0
 20 14  1  0
M  END
>  <Structure>  (206) 
6YNA

>  <Dataset>  (206) 
PDB

>  <Chain>  (206) 
A

>  <Spatial_Label>  (206) 
DFGin

>  <Dihedral_Label>  (206) 
BLAminus

>  <C_Helix_Label>  (206) 
Chelix-in

>  <Lig_ID>  (206) 
M77

>  <Lig_Entity_ID>  (206) 
6YNA_4

>  <Lig_Name>  (206) 
5-(1,4-DIAZEPAN-1-SULFONYL)ISOQUINOLINE

>  <Lig_Formula>  (206) 
C14H17N3O2S

>  <Lig_SMILES>  (206) 
c1cc2cnccc2c(c1)S(=O)(=O)N3CCCNCC3

>  <Lig_MW>  (206) 
291.369

>  <Lig_ChEMBL_ID>  (206) 
['CHEMBL38380']

>  <Lig_DrugBank_ID>  (206) 
['DB08162']

>  <Occurence>  (206) 
10.0

>  <Lig_SMILES_Uncharged>  (206) 
O=S(=O)(c1cccc2cnccc12)N1CCCNCC1

>  <Lig_Conformer>  (206) 
['A']

>  <Lig_Of_Interest>  (206) 
['Y']

>  <Lig_Completeness>  (206) 
[1.0]

>  <Lig_Occupancy>  (206) 
[0.76]

>  <Lig_RSCC>  (206) 
[0.947]

>  <Lig_RSR>  (206) 
[0.1]

>  <Lig_RMSZ_Bonds>  (206) 
[0.28]

>  <Lig_RMSZ_Angles>  (206) 
[0.66]

>  <Lig_Alt_Conf>  (206) 
1.0

>  <Title>  (206) 
Crystal structure of cAMP-dependent Protein Kinase (PKA) in complex with Fasudil (M77, soaked)

>  <Nonpolymer_Entity_Count>  (206) 
2.0

>  <Protein_Entity_Count>  (206) 
2.0

>  <Exp_Method>  (206) 
X-Ray Diffraction

>  <Cryst_Method>  (206) 
Vapor Diffusion, Hanging Drop; 0.24Mm Pka, 30Mm Mes-Bis-Tris-Buffer pH 6.2-6.9, 1Mm Dtt, 0.1Mm Edta, 75Mm Licl, 0.3Mm Mega 8, 0.7Mm Pki, 16%(V/V) Methanol; Soaking In Buffer Described With 0.12Mm Ligand Solved In Dmso And 30%(V/V) Mpd

>  <Deposit_Date>  (206) 
2020-04-13

>  <Resolution>  (206) 
1.47

>  <DOI>  (206) 
https://doi.org/10.1002/cmdc.202000565

>  <Source_Organism>  (206) 
Cricetulus griseus

>  <R_Free>  (206) 
0.189

>  <Keywords>  (206) 
Transferase

>  <REMARK_280>  (206) 
 Crystal Solvent Content, Vs (%): 56.10 Matthews Coefficient, Vm (Angstroms**3/Da): 2.80 Crystallization Conditions: 0.24Mm Pka, 30Mm Mes-Bis-Tris-Buffer pH 6.2-6.9, 1Mm Dtt, 0.1Mm Edta, 75Mm Licl, 0.3Mm Mega 8, 0.7Mm Pki, 16%(V/V) Methanol; Soaking In Buffer Described With 0.12Mm Ligand Solved In Dmso And 30%(V/V) Mpd, pH 6.9, Vapor Diffusion, Hanging Drop, Temperature 277K 

>  <REMARK_610>  (206) 
nan

>  <pH>  (206) 
6.2

>  <Cryst_Technique>  (206) 
soaked

>  <Sequence>  (206) 
GHMGNAAAAKKGSEQESVKEFLAKAKEEFLKKWESPSQNTAQLDHFDRIKTLGTGSFGRVMLVKHKETGNHYAMKILDKQKVVKLKQIEHTLNEKRILQAVNFPFLVKLEFSFKDNSNLYMVMEYVPGGEMFSHLRRIGRFSEPHARFYAAQIVLTFEYLHSLDLIYRDLKPENLLIDQQGYIQVTDFGFAKRVKGRTWTLCGTPEYLAPEIILSKGYNKAVDWWALGVLIYEMAAGYPPFFADQPIQIYEKIVSGKVRFPSHFSSDLKDLLRNLLQVDLTKRFGNLKNGVNDIKNHKWFATTDWIAIYQRKVEAPFIPKFKGPGDTSNFDDYEEEEIRVSINEKCGKEFTEF

>  <Sequence_Length>  (206) 
353.0

>  <Mutation_Count>  (206) 
0.0

>  <Gene_Name>  (206) 
PKACA

>  <MW>  (206) 
41.194

>  <Name>  (206) 
cAMP-Dependent Protein Kinase Catalytic Subunit Alpha

>  <Mutations>  (206) 
nan

>  <EC_Number>  (206) 
2.7.11.11

>  <Peptidic_Inhibitor>  (206) 
True

>  <Lig_Missing_Atoms>  (206) 
['No']

>  <PDBbind_Resolution>  (206) 
nan

>  <PDBbind_Release_Year>  (206) 
nan

>  <PDBbind_Comment>  (206) 
nan

>  <PDBbind_Uniprot_Id>  (206) 
nan

>  <PDBbind_Protein_Name>  (206) 
nan

>  <PDBbind_-Logkd/Ki>  (206) 
nan

>  <PDBbind_Kd/Ki>  (206) 
nan

>  <PDBbind_Kd_Or_Ki_Or_Ic50>  (206) 
nan

>  <PDBbind_Relation>  (206) 
nan

>  <PDBbind_Value>  (206) 
nan

>  <PDBbind_Unit>  (206) 
nan

>  <PDBbind_Standard_Value>  (206) 
nan

>  <PDBbind_Standard_Unit>  (206) 
nan

>  <PDB_Chain>  (206) 
['A']

>  <Num_Ligs>  (206) 
[1.0]

>  <Orthosteric>  (206) 
[1.0]

>  <Allosteric>  (206) 
[0.0]

>  <Pockets_Assigned>  (206) 
['A']

>  <Multisite>  (206) 
[False]

>  <Same_Number>  (206) 
True

>  <Same_Binding_Site>  (206) 
True

>  <Same_Orientation>  (206) 
True

>  <Lig_Order_in_.pdb>  (206) 
Orthosteric

$$$$

     RDKit          2D

 17 18  0  0  0  0  0  0  0  0999 V2000
    0.7500   -3.8971    0.0000 C   0  0  0  0  0  0  0  0  0  0  0  0
    1.5000   -2.5981    0.0000 C   0  0  0  0  0  0  0  0  0  0  0  0
    0.7500   -1.2990    0.0000 C   0  0  0  0  0  0  0  0  0  0  0  0
    1.5000    0.0000    0.0000 C   0  0  0  0  0  0  0  0  0  0  0  0
    0.7500    1.2990    0.0000 N   0  0  0  0  0  0  0  0  0  0  0  0
   -0.7500    1.2990    0.0000 C   0  0  0  0  0  0  0  0  0  0  0  0
   -1.5000    0.0000    0.0000 C   0  0  0  0  0  0  0  0  0  0  0  0
   -0.7500   -1.2990    0.0000 C   0  0  0  0  0  0  0  0  0  0  0  0
   -1.5000   -2.5981    0.0000 C   0  0  0  0  0  0  0  0  0  0  0  0
   -0.7500   -3.8971    0.0000 C   0  0  0  0  0  0  0  0  0  0  0  0
   -3.0000   -2.5981    0.0000 S   0  0  0  0  0  0  0  0  0  0  0  0
   -3.0000   -4.0981    0.0000 O   0  0  0  0  0  0  0  0  0  0  0  0
   -3.0000   -1.0981    0.0000 O   0  0  0  0  0  0  0  0  0  0  0  0
   -4.5000   -2.5981    0.0000 N   0  0  0  0  0  0  0  0  0  0  0  0
   -5.2500   -1.2990    0.0000 C   0  0  0  0  0  0  0  0  0  0  0  0
   -6.7500   -1.2990    0.0000 C   0  0  0  0  0  0  0  0  0  0  0  0
   -7.5000   -0.0000    0.0000 N   0  0  0  0  0  0  0  0  0  0  0  0
  1  2  2  0
  2  3  1  0
  3  4  2  0
  4  5  1  0
  5  6  2  0
  6  7  1  0
  7  8  2  0
  8  9  1  0
  9 10  2  0
  9 11  1  0
 11 12  2  0
 11 13  2  0
 11 14  1  0
 14 15  1  0
 15 16  1  0
 16 17  1  0
 10  1  1  0
  8  3  1  0
M  END
>  <Structure>  (207) 
6YNB

>  <Dataset>  (207) 
PDB

>  <Chain>  (207) 
A

>  <Spatial_Label>  (207) 
DFGin

>  <Dihedral_Label>  (207) 
BLAminus

>  <C_Helix_Label>  (207) 
Chelix-in

>  <Lig_ID>  (207) 
IQU

>  <Lig_Entity_ID>  (207) 
6YNB_3

>  <Lig_Name>  (207) 
N-(2-AMINOETHYL)ISOQUINOLINE-5-SULFONAMIDE

>  <Lig_Formula>  (207) 
C11H13N3O2S

>  <Lig_SMILES>  (207) 
c1cc2cnccc2c(c1)S(=O)(=O)NCCN

>  <Lig_MW>  (207) 
251.305

>  <Lig_ChEMBL_ID>  (207) 
['CHEMBL344314']

>  <Lig_DrugBank_ID>  (207) 
nan

>  <Occurence>  (207) 
2.0

>  <Lig_SMILES_Uncharged>  (207) 
NCCNS(=O)(=O)c1cccc2cnccc12

>  <Lig_Conformer>  (207) 
['NaN']

>  <Lig_Of_Interest>  (207) 
['Y']

>  <Lig_Completeness>  (207) 
[1.0]

>  <Lig_Occupancy>  (207) 
[1.0]

>  <Lig_RSCC>  (207) 
[0.974]

>  <Lig_RSR>  (207) 
[0.11]

>  <Lig_RMSZ_Bonds>  (207) 
[0.29]

>  <Lig_RMSZ_Angles>  (207) 
[0.58]

>  <Lig_Alt_Conf>  (207) 
0.0

>  <Title>  (207) 
Crystal structure of cAMP-dependent Protein Kinase (PKA) in complex with short-chain Fasudil-derivative N-(2-aminoethyl)isoquinoline-5-sulfonamide (soaked)

>  <Nonpolymer_Entity_Count>  (207) 
2.0

>  <Protein_Entity_Count>  (207) 
2.0

>  <Exp_Method>  (207) 
X-Ray Diffraction

>  <Cryst_Method>  (207) 
Vapor Diffusion, Hanging Drop; 0.24Mm Pka, 30Mm Mbt (Mes/Bis-Tris Buffer pH 6.2-6.9), 1Mm Dtt, 0.1Mm Edta, 75Mm Licl, 0.3Mm Mega 8, 0.7Mm Pki, 16%(V/V) Methanol; Soaking In Buffer Described With 0.12Mm Ligand Solved In Dmso And 30%(V/V) Mpd

>  <Deposit_Date>  (207) 
2020-04-13

>  <Resolution>  (207) 
1.72

>  <DOI>  (207) 
https://doi.org/10.1002/cmdc.202000565

>  <Source_Organism>  (207) 
Cricetulus griseus

>  <R_Free>  (207) 
0.2009

>  <Keywords>  (207) 
Transferase

>  <REMARK_280>  (207) 
 Crystal Solvent Content, Vs (%): 56.21 Matthews Coefficient, Vm (Angstroms**3/Da): 2.81 Crystallization Conditions: 0.24Mm Pka, 30Mm Mbt (Mes/Bis-Tris Buffer pH 6.2-6.9), 1Mm Dtt, 0.1Mm Edta, 75Mm Licl, 0.3Mm Mega 8, 0.7Mm Pki, 16%(V/V) Methanol; Soaking In Buffer Described With 0.12Mm Ligand Solved In Dmso And 30%(V/V) Mpd, pH 6.9, Vapor Diffusion, Hanging Drop, Temperature 277K 

>  <REMARK_610>  (207) 
nan

>  <pH>  (207) 
6.2

>  <Cryst_Technique>  (207) 
soaked

>  <Sequence>  (207) 
GHMGNAAAAKKGSEQESVKEFLAKAKEEFLKKWESPSQNTAQLDHFDRIKTLGTGSFGRVMLVKHKETGNHYAMKILDKQKVVKLKQIEHTLNEKRILQAVNFPFLVKLEFSFKDNSNLYMVMEYVPGGEMFSHLRRIGRFSEPHARFYAAQIVLTFEYLHSLDLIYRDLKPENLLIDQQGYIQVTDFGFAKRVKGRTWTLCGTPEYLAPEIILSKGYNKAVDWWALGVLIYEMAAGYPPFFADQPIQIYEKIVSGKVRFPSHFSSDLKDLLRNLLQVDLTKRFGNLKNGVNDIKNHKWFATTDWIAIYQRKVEAPFIPKFKGPGDTSNFDDYEEEEIRVSINEKCGKEFTEF

>  <Sequence_Length>  (207) 
353.0

>  <Mutation_Count>  (207) 
0.0

>  <Gene_Name>  (207) 
PKACA

>  <MW>  (207) 
41.194

>  <Name>  (207) 
cAMP-Dependent Protein Kinase Catalytic Subunit Alpha

>  <Mutations>  (207) 
nan

>  <EC_Number>  (207) 
2.7.11.11

>  <Peptidic_Inhibitor>  (207) 
True

>  <Lig_Missing_Atoms>  (207) 
['No']

>  <PDBbind_Resolution>  (207) 
nan

>  <PDBbind_Release_Year>  (207) 
nan

>  <PDBbind_Comment>  (207) 
nan

>  <PDBbind_Uniprot_Id>  (207) 
nan

>  <PDBbind_Protein_Name>  (207) 
nan

>  <PDBbind_-Logkd/Ki>  (207) 
nan

>  <PDBbind_Kd/Ki>  (207) 
nan

>  <PDBbind_Kd_Or_Ki_Or_Ic50>  (207) 
nan

>  <PDBbind_Relation>  (207) 
nan

>  <PDBbind_Value>  (207) 
nan

>  <PDBbind_Unit>  (207) 
nan

>  <PDBbind_Standard_Value>  (207) 
nan

>  <PDBbind_Standard_Unit>  (207) 
nan

>  <PDB_Chain>  (207) 
['A']

>  <Num_Ligs>  (207) 
[1.0]

>  <Orthosteric>  (207) 
[1.0]

>  <Allosteric>  (207) 
[0.0]

>  <Pockets_Assigned>  (207) 
['A']

>  <Multisite>  (207) 
[False]

>  <Same_Number>  (207) 
True

>  <Same_Binding_Site>  (207) 
True

>  <Same_Orientation>  (207) 
True

>  <Lig_Order_in_.pdb>  (207) 
Orthosteric

$$$$

     RDKit          2D

 15 16  0  0  0  0  0  0  0  0999 V2000
    5.2500   -1.2990    0.0000 C   0  0  0  0  0  0  0  0  0  0  0  0
    4.5000   -2.5981    0.0000 N   0  0  0  0  0  0  0  0  0  0  0  0
    3.0000   -2.5981    0.0000 S   0  0  0  0  0  0  0  0  0  0  0  0
    3.0000   -4.0981    0.0000 O   0  0  0  0  0  0  0  0  0  0  0  0
    3.0000   -1.0981    0.0000 O   0  0  0  0  0  0  0  0  0  0  0  0
    1.5000   -2.5981    0.0000 C   0  0  0  0  0  0  0  0  0  0  0  0
    0.7500   -3.8971    0.0000 C   0  0  0  0  0  0  0  0  0  0  0  0
   -0.7500   -3.8971    0.0000 C   0  0  0  0  0  0  0  0  0  0  0  0
   -1.5000   -2.5981    0.0000 C   0  0  0  0  0  0  0  0  0  0  0  0
   -0.7500   -1.2990    0.0000 C   0  0  0  0  0  0  0  0  0  0  0  0
    0.7500   -1.2990    0.0000 C   0  0  0  0  0  0  0  0  0  0  0  0
    1.5000    0.0000    0.0000 C   0  0  0  0  0  0  0  0  0  0  0  0
    0.7500    1.2990    0.0000 C   0  0  0  0  0  0  0  0  0  0  0  0
   -0.7500    1.2990    0.0000 N   0  0  0  0  0  0  0  0  0  0  0  0
   -1.5000    0.0000    0.0000 C   0  0  0  0  0  0  0  0  0  0  0  0
  1  2  1  0
  2  3  1  0
  3  4  2  0
  3  5  2  0
  3  6  1  0
  6  7  2  0
  7  8  1  0
  8  9  2  0
  9 10  1  0
 10 11  2  0
 11 12  1  0
 12 13  2  0
 13 14  1  0
 14 15  2  0
 11  6  1  0
 15 10  1  0
M  END
>  <Structure>  (208) 
6YNC

>  <Dataset>  (208) 
PDB

>  <Chain>  (208) 
A

>  <Spatial_Label>  (208) 
DFGin

>  <Dihedral_Label>  (208) 
BLAminus

>  <C_Helix_Label>  (208) 
Chelix-in

>  <Lig_ID>  (208) 
7CT

>  <Lig_Entity_ID>  (208) 
6YNC_3

>  <Lig_Name>  (208) 
~{N}-methylisoquinoline-5-sulfonamide

>  <Lig_Formula>  (208) 
C10H10N2O2S

>  <Lig_SMILES>  (208) 
CNS(=O)(=O)c1cccc2c1ccnc2

>  <Lig_MW>  (208) 
222.264

>  <Lig_ChEMBL_ID>  (208) 
nan

>  <Lig_DrugBank_ID>  (208) 
nan

>  <Occurence>  (208) 
2.0

>  <Lig_SMILES_Uncharged>  (208) 
CNS(=O)(=O)c1cccc2cnccc12

>  <Lig_Conformer>  (208) 
['NaN']

>  <Lig_Of_Interest>  (208) 
['Y']

>  <Lig_Completeness>  (208) 
[1.0]

>  <Lig_Occupancy>  (208) 
[1.0]

>  <Lig_RSCC>  (208) 
[0.98]

>  <Lig_RSR>  (208) 
[0.063]

>  <Lig_RMSZ_Bonds>  (208) 
[0.2]

>  <Lig_RMSZ_Angles>  (208) 
[0.49]

>  <Lig_Alt_Conf>  (208) 
0.0

>  <Title>  (208) 
Crystal structure of cAMP-dependent Protein Kinase (PKA) in complex with the methylated Fasudil-derived fragment N-methylisoquinoline-5-sulfonamide (soaked)

>  <Nonpolymer_Entity_Count>  (208) 
1.0

>  <Protein_Entity_Count>  (208) 
2.0

>  <Exp_Method>  (208) 
X-Ray Diffraction

>  <Cryst_Method>  (208) 
Vapor Diffusion, Hanging Drop; 0.24Mm Pka, 30Mm Mbt (Mes/Bis-Tris Buffer pH 6.2-6.9), 1Mm Dtt, 0.1Mm Edta, 75Mm Licl, 0.3Mm Mega 8, 0.7Mm Pki, 16%(V/V) Methanol; Soaking In Buffer Described With 0.12Mm Ligand Solved In Dmso And 30%(V/V) Mpd

>  <Deposit_Date>  (208) 
2020-04-13

>  <Resolution>  (208) 
1.4

>  <DOI>  (208) 
https://doi.org/10.1002/cmdc.202000565

>  <Source_Organism>  (208) 
Cricetulus griseus

>  <R_Free>  (208) 
0.1729

>  <Keywords>  (208) 
Transferase

>  <REMARK_280>  (208) 
 Crystal Solvent Content, Vs (%): 56.07 Matthews Coefficient, Vm (Angstroms**3/Da): 2.80 Crystallization Conditions: 0.24Mm Pka, 30Mm Mbt (Mes/Bis-Tris Buffer pH 6.2-6.9), 1Mm Dtt, 0.1Mm Edta, 75Mm Licl, 0.3Mm Mega 8, 0.7Mm Pki, 16%(V/V) Methanol; Soaking In Buffer Described With 0.12Mm Ligand Solved In Dmso And 30%(V/V) Mpd, pH 6.9, Vapor Diffusion, Hanging Drop, Temperature 277K 

>  <REMARK_610>  (208) 
nan

>  <pH>  (208) 
6.2

>  <Cryst_Technique>  (208) 
soaked

>  <Sequence>  (208) 
GHMGNAAAAKKGSEQESVKEFLAKAKEEFLKKWESPSQNTAQLDHFDRIKTLGTGSFGRVMLVKHKETGNHYAMKILDKQKVVKLKQIEHTLNEKRILQAVNFPFLVKLEFSFKDNSNLYMVMEYVPGGEMFSHLRRIGRFSEPHARFYAAQIVLTFEYLHSLDLIYRDLKPENLLIDQQGYIQVTDFGFAKRVKGRTWTLCGTPEYLAPEIILSKGYNKAVDWWALGVLIYEMAAGYPPFFADQPIQIYEKIVSGKVRFPSHFSSDLKDLLRNLLQVDLTKRFGNLKNGVNDIKNHKWFATTDWIAIYQRKVEAPFIPKFKGPGDTSNFDDYEEEEIRVSINEKCGKEFTEF

>  <Sequence_Length>  (208) 
353.0

>  <Mutation_Count>  (208) 
0.0

>  <Gene_Name>  (208) 
PKACA

>  <MW>  (208) 
41.194

>  <Name>  (208) 
cAMP-Dependent Protein Kinase Catalytic Subunit Alpha

>  <Mutations>  (208) 
nan

>  <EC_Number>  (208) 
2.7.11.11

>  <Peptidic_Inhibitor>  (208) 
True

>  <Lig_Missing_Atoms>  (208) 
['No']

>  <PDBbind_Resolution>  (208) 
nan

>  <PDBbind_Release_Year>  (208) 
nan

>  <PDBbind_Comment>  (208) 
nan

>  <PDBbind_Uniprot_Id>  (208) 
nan

>  <PDBbind_Protein_Name>  (208) 
nan

>  <PDBbind_-Logkd/Ki>  (208) 
nan

>  <PDBbind_Kd/Ki>  (208) 
nan

>  <PDBbind_Kd_Or_Ki_Or_Ic50>  (208) 
nan

>  <PDBbind_Relation>  (208) 
nan

>  <PDBbind_Value>  (208) 
nan

>  <PDBbind_Unit>  (208) 
nan

>  <PDBbind_Standard_Value>  (208) 
nan

>  <PDBbind_Standard_Unit>  (208) 
nan

>  <PDB_Chain>  (208) 
['A']

>  <Num_Ligs>  (208) 
[1.0]

>  <Orthosteric>  (208) 
[1.0]

>  <Allosteric>  (208) 
[0.0]

>  <Pockets_Assigned>  (208) 
['A']

>  <Multisite>  (208) 
[True]

>  <Same_Number>  (208) 
False

>  <Same_Binding_Site>  (208) 
True

>  <Same_Orientation>  (208) 
True

>  <Lig_Order_in_.pdb>  (208) 
Orthosteric

$$$$

     RDKit          2D

 11 12  0  0  0  0  0  0  0  0999 V2000
    1.5000    0.0000    0.0000 C   0  0  0  0  0  0  0  0  0  0  0  0
    0.7500   -1.2990    0.0000 C   0  0  0  0  0  0  0  0  0  0  0  0
   -0.7500   -1.2990    0.0000 C   0  0  0  0  0  0  0  0  0  0  0  0
   -1.5000   -2.5981    0.0000 C   0  0  0  0  0  0  0  0  0  0  0  0
   -3.0000   -2.5981    0.0000 C   0  0  0  0  0  0  0  0  0  0  0  0
   -3.7500   -1.2990    0.0000 N   0  0  0  0  0  0  0  0  0  0  0  0
   -3.0000    0.0000    0.0000 C   0  0  0  0  0  0  0  0  0  0  0  0
   -1.5000    0.0000    0.0000 C   0  0  0  0  0  0  0  0  0  0  0  0
   -0.7500    1.2990    0.0000 N   0  0  0  0  0  0  0  0  0  0  0  0
    0.7500    1.2990    0.0000 C   0  0  0  0  0  0  0  0  0  0  0  0
   -3.7500    1.2990    0.0000 N   0  0  0  0  0  0  0  0  0  0  0  0
  1  2  2  0
  2  3  1  0
  3  4  2  0
  4  5  1  0
  5  6  2  0
  6  7  1  0
  7  8  2  0
  8  9  1  0
  9 10  2  0
  7 11  1  0
 10  1  1  0
  8  3  1  0
M  END
>  <Structure>  (209) 
6YNR

>  <Dataset>  (209) 
PDB

>  <Chain>  (209) 
A

>  <Spatial_Label>  (209) 
DFGin

>  <Dihedral_Label>  (209) 
BLAminus

>  <C_Helix_Label>  (209) 
Chelix-in

>  <Lig_ID>  (209) 
O72

>  <Lig_Entity_ID>  (209) 
6YNR_5

>  <Lig_Name>  (209) 
1,7-naphthyridin-8-amine

>  <Lig_Formula>  (209) 
C8H7N3

>  <Lig_SMILES>  (209) 
c1cc2ccnc(c2nc1)N

>  <Lig_MW>  (209) 
145.161

>  <Lig_ChEMBL_ID>  (209) 
nan

>  <Lig_DrugBank_ID>  (209) 
nan

>  <Occurence>  (209) 
2.0

>  <Lig_SMILES_Uncharged>  (209) 
Nc1nccc2cccnc12

>  <Lig_Conformer>  (209) 
['NaN']

>  <Lig_Of_Interest>  (209) 
['Y']

>  <Lig_Completeness>  (209) 
[1.0]

>  <Lig_Occupancy>  (209) 
[1.0]

>  <Lig_RSCC>  (209) 
[0.953]

>  <Lig_RSR>  (209) 
[0.086]

>  <Lig_RMSZ_Bonds>  (209) 
[0.23]

>  <Lig_RMSZ_Angles>  (209) 
[0.9]

>  <Lig_Alt_Conf>  (209) 
0.0

>  <Title>  (209) 
Crystal structure of the cAMP-dependent protein kinase A in complex with 1,7-Naphthyridin-8-amine (soaked) and PKI (5-24)

>  <Nonpolymer_Entity_Count>  (209) 
3.0

>  <Protein_Entity_Count>  (209) 
2.0

>  <Exp_Method>  (209) 
X-Ray Diffraction

>  <Cryst_Method>  (209) 
Vapor Diffusion, Hanging Drop; 0.2 Mm Pka, 100 Mm Mbt (Mes/Bis-Tris Puffer pH 6.9), 1 Mm Dtt, 0.1 Mm Edta, 75 Mm Licl, 0.2 Mm Mega8, 0.5 Mm Pki And 18-23% (V/V) Methanol. Soaking In Buffer Described Above With 10% (V/V) 1,7-Naphthydrin-8-Amine In Dmso (1M Stock) And 30% (V/V) Mpd

>  <Deposit_Date>  (209) 
2020-04-14

>  <Resolution>  (209) 
1.9

>  <DOI>  (209) 
https://doi.org/10.1002/cmdc.202000565

>  <Source_Organism>  (209) 
Cricetulus griseus

>  <R_Free>  (209) 
0.2207

>  <Keywords>  (209) 
Transferase

>  <REMARK_280>  (209) 
 Crystal Solvent Content, Vs (%): 53.26 Matthews Coefficient, Vm (Angstroms**3/Da): 2.63 Crystallization Conditions: 0.2 Mm Pka, 100 Mm Mbt (Mes/Bis-Tris Puffer pH 6.9), 1 Mm Dtt, 0.1 Mm Edta, 75 Mm Licl, 0.2 Mm Mega8, 0.5 Mm Pki And 18-23% (V/V) Methanol. Soaking In Buffer Described Above With 10% (V/V) 1,7-Naphthydrin-8-Amine In Dmso (1M Stock) And 30% (V/V) Mpd, Vapor Diffusion, Hanging Drop, Temperature 277K 

>  <REMARK_610>  (209) 
nan

>  <pH>  (209) 
6.9

>  <Cryst_Technique>  (209) 
soaked

>  <Sequence>  (209) 
GHMGNAAAAKKGSEQESVKEFLAKAKEEFLKKWESPSQNTAQLDHFDRIKTLGTGSFGRVMLVKHKETGNHYAMKILDKQKVVKLKQIEHTLNEKRILQAVNFPFLVKLEFSFKDNSNLYMVMEYVPGGEMFSHLRRIGRFSEPHARFYAAQIVLTFEYLHSLDLIYRDLKPENLLIDQQGYIQVTDFGFAKRVKGRTWTLCGTPEYLAPEIILSKGYNKAVDWWALGVLIYEMAAGYPPFFADQPIQIYEKIVSGKVRFPSHFSSDLKDLLRNLLQVDLTKRFGNLKNGVNDIKNHKWFATTDWIAIYQRKVEAPFIPKFKGPGDTSNFDDYEEEEIRVSINEKCGKEFTEF

>  <Sequence_Length>  (209) 
353.0

>  <Mutation_Count>  (209) 
0.0

>  <Gene_Name>  (209) 
PKACA

>  <MW>  (209) 
41.114

>  <Name>  (209) 
cAMP-Dependent Protein Kinase Catalytic Subunit Alpha

>  <Mutations>  (209) 
nan

>  <EC_Number>  (209) 
2.7.11.11

>  <Peptidic_Inhibitor>  (209) 
True

>  <Lig_Missing_Atoms>  (209) 
['No']

>  <PDBbind_Resolution>  (209) 
nan

>  <PDBbind_Release_Year>  (209) 
nan

>  <PDBbind_Comment>  (209) 
nan

>  <PDBbind_Uniprot_Id>  (209) 
nan

>  <PDBbind_Protein_Name>  (209) 
nan

>  <PDBbind_-Logkd/Ki>  (209) 
nan

>  <PDBbind_Kd/Ki>  (209) 
nan

>  <PDBbind_Kd_Or_Ki_Or_Ic50>  (209) 
nan

>  <PDBbind_Relation>  (209) 
nan

>  <PDBbind_Value>  (209) 
nan

>  <PDBbind_Unit>  (209) 
nan

>  <PDBbind_Standard_Value>  (209) 
nan

>  <PDBbind_Standard_Unit>  (209) 
nan

>  <PDB_Chain>  (209) 
['A']

>  <Num_Ligs>  (209) 
[1.0]

>  <Orthosteric>  (209) 
[1.0]

>  <Allosteric>  (209) 
[0.0]

>  <Pockets_Assigned>  (209) 
['A']

>  <Multisite>  (209) 
[False]

>  <Same_Number>  (209) 
True

>  <Same_Binding_Site>  (209) 
True

>  <Same_Orientation>  (209) 
True

>  <Lig_Order_in_.pdb>  (209) 
Orthosteric

$$$$

     RDKit          2D

 21 23  0  0  0  0  0  0  0  0999 V2000
    1.5000    0.0000    0.0000 C   0  0  0  0  0  0  0  0  0  0  0  0
    0.7500   -1.2990    0.0000 C   0  0  0  0  0  0  0  0  0  0  0  0
   -0.7500   -1.2990    0.0000 C   0  0  0  0  0  0  0  0  0  0  0  0
   -1.5000    0.0000    0.0000 C   0  0  0  0  0  0  0  0  0  0  0  0
   -3.0000    0.0000    0.0000 C   0  0  0  0  0  0  0  0  0  0  0  0
   -3.7500   -1.2990    0.0000 C   0  0  0  0  0  0  0  0  0  0  0  0
   -3.0000   -2.5981    0.0000 N   0  0  0  0  0  0  0  0  0  0  0  0
   -1.5000   -2.5981    0.0000 C   0  0  0  0  0  0  0  0  0  0  0  0
   -0.7500   -3.8971    0.0000 N   0  0  0  0  0  0  0  0  0  0  0  0
   -0.7500    1.2990    0.0000 C   0  0  0  0  0  0  0  0  0  0  0  0
    0.7500    1.2990    0.0000 C   0  0  0  0  0  0  0  0  0  0  0  0
   -1.5000    2.5981    0.0000 S   0  0  0  0  0  0  0  0  0  0  0  0
   -0.2010    3.3481    0.0000 O   0  0  0  0  0  0  0  0  0  0  0  0
   -2.7990    1.8481    0.0000 O   0  0  0  0  0  0  0  0  0  0  0  0
   -2.2500    3.8971    0.0000 N   0  0  0  0  0  0  0  0  0  0  0  0
   -3.7458    3.7850    0.0000 C   0  0  0  0  0  0  0  0  0  0  0  0
   -4.7661    4.8846    0.0000 C   0  0  0  0  0  0  0  0  0  0  0  0
   -4.5425    6.3678    0.0000 C   0  0  0  0  0  0  0  0  0  0  0  0
   -3.2435    7.1178    0.0000 N   0  0  0  0  0  0  0  0  0  0  0  0
   -1.8472    6.5698    0.0000 C   0  0  0  0  0  0  0  0  0  0  0  0
   -1.4050    5.1365    0.0000 C   0  0  0  0  0  0  0  0  0  0  0  0
  1  2  2  0
  2  3  1  0
  3  4  2  0
  4  5  1  0
  5  6  2  0
  6  7  1  0
  7  8  2  0
  8  9  1  0
  4 10  1  0
 10 11  2  0
 10 12  1  0
 12 13  2  0
 12 14  2  0
 12 15  1  0
 15 16  1  0
 16 17  1  0
 17 18  1  0
 18 19  1  0
 19 20  1  0
 20 21  1  0
 11  1  1  0
  8  3  1  0
 21 15  1  0
M  END
>  <Structure>  (210) 
6YNT

>  <Dataset>  (210) 
PDB

>  <Chain>  (210) 
A

>  <Spatial_Label>  (210) 
DFGin

>  <Dihedral_Label>  (210) 
BLAminus

>  <C_Helix_Label>  (210) 
Chelix-in

>  <Lig_ID>  (210) 
LRT

>  <Lig_Entity_ID>  (210) 
6YNT_5

>  <Lig_Name>  (210) 
5-(1,4-diazepan-1-ylsulfonyl)isoquinolin-1-amine

>  <Lig_Formula>  (210) 
C14H18N4O2S

>  <Lig_SMILES>  (210) 
c1cc2c(ccnc2N)c(c1)S(=O)(=O)N3CCCNCC3

>  <Lig_MW>  (210) 
306.383

>  <Lig_ChEMBL_ID>  (210) 
['CHEMBL1667963']

>  <Lig_DrugBank_ID>  (210) 
nan

>  <Occurence>  (210) 
3.0

>  <Lig_SMILES_Uncharged>  (210) 
Nc1nccc2c(S(=O)(=O)N3CCCNCC3)cccc12

>  <Lig_Conformer>  (210) 
['NaN']

>  <Lig_Of_Interest>  (210) 
['Y']

>  <Lig_Completeness>  (210) 
[1.0]

>  <Lig_Occupancy>  (210) 
[0.739]

>  <Lig_RSCC>  (210) 
[0.854]

>  <Lig_RSR>  (210) 
[0.175]

>  <Lig_RMSZ_Bonds>  (210) 
[0.37]

>  <Lig_RMSZ_Angles>  (210) 
[0.73]

>  <Lig_Alt_Conf>  (210) 
0.0

>  <Title>  (210) 
Crystal structure of the cAMP-dependent protein kinase A in complex with aminofasudil and PKI (5-24)

>  <Nonpolymer_Entity_Count>  (210) 
6.0

>  <Protein_Entity_Count>  (210) 
2.0

>  <Exp_Method>  (210) 
X-Ray Diffraction

>  <Cryst_Method>  (210) 
Vapor Diffusion, Hanging Drop; 0.2 Mm Pka , 100 Mm Mbt (Mes/Bis-Tris Puffer pH 6.9), 1 Mm Dtt, 0.1 Mm Edta, 75 Mm Licl, 0.2 Mm Mega8, 0.5 Mm Pki, 16-23% (V/V) Methanol. Soaking In Buffer With 10% (V/V) Of Aminofasudil (50Mm Stock) In Dmso And 30% (V/V) Mpd

>  <Deposit_Date>  (210) 
2020-04-14

>  <Resolution>  (210) 
1.52

>  <DOI>  (210) 
https://doi.org/10.1002/cmdc.202000565

>  <Source_Organism>  (210) 
Cricetulus griseus

>  <R_Free>  (210) 
0.1914

>  <Keywords>  (210) 
Transferase

>  <REMARK_280>  (210) 
 Crystal Solvent Content, Vs (%): 53.49 Matthews Coefficient, Vm (Angstroms**3/Da): 2.64 Crystallization Conditions: 0.2 Mm Pka , 100 Mm Mbt (Mes/Bis-Tris Puffer pH 6.9), 1 Mm Dtt, 0.1 Mm Edta, 75 Mm Licl, 0.2 Mm Mega8, 0.5 Mm Pki, 16-23% (V/V) Methanol. Soaking In Buffer With 10% (V/ V) Of Aminofasudil (50Mm Stock) In Dmso And 30% (V/V) Mpd, Vapor Diffusion, Hanging Drop, Temperature 277K 

>  <REMARK_610>  (210) 
nan

>  <pH>  (210) 
6.9

>  <Cryst_Technique>  (210) 
soaked

>  <Sequence>  (210) 
GHMGNAAAAKKGSEQESVKEFLAKAKEEFLKKWESPSQNTAQLDHFDRIKTLGTGSFGRVMLVKHKETGNHYAMKILDKQKVVKLKQIEHTLNEKRILQAVNFPFLVKLEFSFKDNSNLYMVMEYVPGGEMFSHLRRIGRFSEPHARFYAAQIVLTFEYLHSLDLIYRDLKPENLLIDQQGYIQVTDFGFAKRVKGRTWTLCGTPEYLAPEIILSKGYNKAVDWWALGVLIYEMAAGYPPFFADQPIQIYEKIVSGKVRFPSHFSSDLKDLLRNLLQVDLTKRFGNLKNGVNDIKNHKWFATTDWIAIYQRKVEAPFIPKFKGPGDTSNFDDYEEEEIRVSINEKCGKEFTEF

>  <Sequence_Length>  (210) 
353.0

>  <Mutation_Count>  (210) 
0.0

>  <Gene_Name>  (210) 
PKACA

>  <MW>  (210) 
41.114

>  <Name>  (210) 
cAMP-Dependent Protein Kinase Catalytic Subunit Alpha

>  <Mutations>  (210) 
nan

>  <EC_Number>  (210) 
2.7.11.11

>  <Peptidic_Inhibitor>  (210) 
True

>  <Lig_Missing_Atoms>  (210) 
['No']

>  <PDBbind_Resolution>  (210) 
nan

>  <PDBbind_Release_Year>  (210) 
nan

>  <PDBbind_Comment>  (210) 
nan

>  <PDBbind_Uniprot_Id>  (210) 
nan

>  <PDBbind_Protein_Name>  (210) 
nan

>  <PDBbind_-Logkd/Ki>  (210) 
nan

>  <PDBbind_Kd/Ki>  (210) 
nan

>  <PDBbind_Kd_Or_Ki_Or_Ic50>  (210) 
nan

>  <PDBbind_Relation>  (210) 
nan

>  <PDBbind_Value>  (210) 
nan

>  <PDBbind_Unit>  (210) 
nan

>  <PDBbind_Standard_Value>  (210) 
nan

>  <PDBbind_Standard_Unit>  (210) 
nan

>  <PDB_Chain>  (210) 
['A']

>  <Num_Ligs>  (210) 
[1.0]

>  <Orthosteric>  (210) 
[1.0]

>  <Allosteric>  (210) 
[0.0]

>  <Pockets_Assigned>  (210) 
['A']

>  <Multisite>  (210) 
[False]

>  <Same_Number>  (210) 
True

>  <Same_Binding_Site>  (210) 
True

>  <Same_Orientation>  (210) 
True

>  <Lig_Order_in_.pdb>  (210) 
Orthosteric

$$$$

     RDKit          2D

 16 17  0  0  0  0  0  0  0  0999 V2000
    5.2500   -1.2990    0.0000 C   0  0  0  0  0  0  0  0  0  0  0  0
    4.5000   -2.5981    0.0000 N   0  0  0  0  0  0  0  0  0  0  0  0
    5.2500   -3.8971    0.0000 C   0  0  0  0  0  0  0  0  0  0  0  0
    3.0000   -2.5981    0.0000 S   0  0  0  0  0  0  0  0  0  0  0  0
    3.0000   -4.0981    0.0000 O   0  0  0  0  0  0  0  0  0  0  0  0
    3.0000   -1.0981    0.0000 O   0  0  0  0  0  0  0  0  0  0  0  0
    1.5000   -2.5981    0.0000 C   0  0  0  0  0  0  0  0  0  0  0  0
    0.7500   -3.8971    0.0000 C   0  0  0  0  0  0  0  0  0  0  0  0
   -0.7500   -3.8971    0.0000 C   0  0  0  0  0  0  0  0  0  0  0  0
   -1.5000   -2.5981    0.0000 C   0  0  0  0  0  0  0  0  0  0  0  0
   -0.7500   -1.2990    0.0000 C   0  0  0  0  0  0  0  0  0  0  0  0
    0.7500   -1.2990    0.0000 C   0  0  0  0  0  0  0  0  0  0  0  0
    1.5000    0.0000    0.0000 C   0  0  0  0  0  0  0  0  0  0  0  0
    0.7500    1.2990    0.0000 C   0  0  0  0  0  0  0  0  0  0  0  0
   -0.7500    1.2990    0.0000 N   0  0  0  0  0  0  0  0  0  0  0  0
   -1.5000    0.0000    0.0000 C   0  0  0  0  0  0  0  0  0  0  0  0
  1  2  1  0
  2  3  1  0
  2  4  1  0
  4  5  2  0
  4  6  2  0
  4  7  1  0
  7  8  2  0
  8  9  1  0
  9 10  2  0
 10 11  1  0
 11 12  2  0
 12 13  1  0
 13 14  2  0
 14 15  1  0
 15 16  2  0
 12  7  1  0
 16 11  1  0
M  END
>  <Structure>  (211) 
6YOT

>  <Dataset>  (211) 
PDB

>  <Chain>  (211) 
A

>  <Spatial_Label>  (211) 
DFGin

>  <Dihedral_Label>  (211) 
BLAminus

>  <C_Helix_Label>  (211) 
Chelix-in

>  <Lig_ID>  (211) 
P4W

>  <Lig_Entity_ID>  (211) 
6YOT_3

>  <Lig_Name>  (211) 
~{N},~{N}-dimethylisoquinoline-5-sulfonamide

>  <Lig_Formula>  (211) 
C11H12N2O2S

>  <Lig_SMILES>  (211) 
CN(C)S(=O)(=O)c1cccc2c1ccnc2

>  <Lig_MW>  (211) 
236.29

>  <Lig_ChEMBL_ID>  (211) 
nan

>  <Lig_DrugBank_ID>  (211) 
nan

>  <Occurence>  (211) 
1.0

>  <Lig_SMILES_Uncharged>  (211) 
CN(C)S(=O)(=O)c1cccc2cnccc12

>  <Lig_Conformer>  (211) 
['NaN', 'NaN']

>  <Lig_Of_Interest>  (211) 
['Y', 'Y']

>  <Lig_Completeness>  (211) 
[1.0, 1.0]

>  <Lig_Occupancy>  (211) 
[1.0, 0.686]

>  <Lig_RSCC>  (211) 
[0.984, 0.842]

>  <Lig_RSR>  (211) 
[0.076, 0.19]

>  <Lig_RMSZ_Bonds>  (211) 
[0.19, 0.23]

>  <Lig_RMSZ_Angles>  (211) 
[0.32, 0.37]

>  <Lig_Alt_Conf>  (211) 
0.0

>  <Title>  (211) 
Crystal structure of the cAMP-dependent protein kinase A cocrystallized with N,N-dimethylisoquinoline-5-sulfonamide and PKI (5-24)

>  <Nonpolymer_Entity_Count>  (211) 
2.0

>  <Protein_Entity_Count>  (211) 
2.0

>  <Exp_Method>  (211) 
X-Ray Diffraction

>  <Cryst_Method>  (211) 
Vapor Diffusion, Sitting Drop; 0,2 Mm Pka In 100 Mm Mes-Bis-Tris-Buffer, 1 Mm Dithiothreitol, 0.1 Mm Sodium Edta, 75 Mm Licl, 0.2 Mm Mega 8, 0.5 Mm Pki, 15 Mm N,N-Dimethylisoquinoline-5-Sulfonamide In Dmso And 18-23 % Methanol (V/V) 0.004 Ml Drop Volume, 0.5 Ml Reservoir Volume

>  <Deposit_Date>  (211) 
2020-04-15

>  <Resolution>  (211) 
1.96

>  <DOI>  (211) 
nan

>  <Source_Organism>  (211) 
Cricetulus griseus

>  <R_Free>  (211) 
0.2133

>  <Keywords>  (211) 
Transferase

>  <REMARK_280>  (211) 
 Crystal Solvent Content, Vs (%): 55.29 Matthews Coefficient, Vm (Angstroms**3/Da): 2.75 Crystallization Conditions: 0,2 Mm Pka In 100 Mm Mes-Bis-Tris -Buffer, 1 Mm Dithiothreitol, 0.1 Mm Sodium Edta, 75 Mm Licl, 0.2 Mm Mega 8, 0.5 Mm Pki, 15 Mm N,N-Dimethylisoquinoline-5- Sulfonamide In Dmso And 18-23 % Methanol (V/V) 0.004 Ml Drop Volume, 0.5 Ml Reservoir Volume, pH 6.9, Vapor Diffusion, Sitting Drop, Temperature 277K 

>  <REMARK_610>  (211) 
nan

>  <pH>  (211) 
6.9

>  <Cryst_Technique>  (211) 
nan

>  <Sequence>  (211) 
GHMGNAAAAKKGSEQESVKEFLAKAKEEFLKKWESPSQNTAQLDHFDRIKTLGTGSFGRVMLVKHKETGNHYAMKILDKQKVVKLKQIEHTLNEKRILQAVNFPFLVKLEFSFKDNSNLYMVMEYVPGGEMFSHLRRIGRFSEPHARFYAAQIVLTFEYLHSLDLIYRDLKPENLLIDQQGYIQVTDFGFAKRVKGRTWTLCGTPEYLAPEIILSKGYNKAVDWWALGVLIYEMAAGYPPFFADQPIQIYEKIVSGKVRFPSHFSSDLKDLLRNLLQVDLTKRFGNLKNGVNDIKNHKWFATTDWIAIYQRKVEAPFIPKFKGPGDTSNFDDYEEEEIRVSINEKCGKEFTEF

>  <Sequence_Length>  (211) 
353.0

>  <Mutation_Count>  (211) 
0.0

>  <Gene_Name>  (211) 
PKACA

>  <MW>  (211) 
41.114

>  <Name>  (211) 
cAMP-Dependent Protein Kinase Catalytic Subunit Alpha

>  <Mutations>  (211) 
nan

>  <EC_Number>  (211) 
2.7.11.11

>  <Peptidic_Inhibitor>  (211) 
True

>  <Lig_Missing_Atoms>  (211) 
['No', 'No']

>  <PDBbind_Resolution>  (211) 
nan

>  <PDBbind_Release_Year>  (211) 
nan

>  <PDBbind_Comment>  (211) 
nan

>  <PDBbind_Uniprot_Id>  (211) 
nan

>  <PDBbind_Protein_Name>  (211) 
nan

>  <PDBbind_-Logkd/Ki>  (211) 
nan

>  <PDBbind_Kd/Ki>  (211) 
nan

>  <PDBbind_Kd_Or_Ki_Or_Ic50>  (211) 
nan

>  <PDBbind_Relation>  (211) 
nan

>  <PDBbind_Value>  (211) 
nan

>  <PDBbind_Unit>  (211) 
nan

>  <PDBbind_Standard_Value>  (211) 
nan

>  <PDBbind_Standard_Unit>  (211) 
nan

>  <PDB_Chain>  (211) 
['A']

>  <Num_Ligs>  (211) 
[2.0]

>  <Orthosteric>  (211) 
[1.0]

>  <Allosteric>  (211) 
[1.0]

>  <Pockets_Assigned>  (211) 
['A, X']

>  <Multisite>  (211) 
[True]

>  <Same_Number>  (211) 
True

>  <Same_Binding_Site>  (211) 
True

>  <Same_Orientation>  (211) 
True

>  <Lig_Order_in_.pdb>  (211) 
Orthosteric, Allosteric

$$$$

     RDKit          2D

 11 12  0  0  0  0  0  0  0  0999 V2000
    1.5000    0.0000    0.0000 C   0  0  0  0  0  0  0  0  0  0  0  0
    0.7500   -1.2990    0.0000 C   0  0  0  0  0  0  0  0  0  0  0  0
   -0.7500   -1.2990    0.0000 C   0  0  0  0  0  0  0  0  0  0  0  0
   -1.5000    0.0000    0.0000 C   0  0  0  0  0  0  0  0  0  0  0  0
   -3.0000    0.0000    0.0000 C   0  0  0  0  0  0  0  0  0  0  0  0
   -3.7500   -1.2990    0.0000 N   0  0  0  0  0  0  0  0  0  0  0  0
   -3.0000   -2.5981    0.0000 C   0  0  0  0  0  0  0  0  0  0  0  0
   -1.5000   -2.5981    0.0000 N   0  0  0  0  0  0  0  0  0  0  0  0
   -3.7500    1.2990    0.0000 N   0  0  0  0  0  0  0  0  0  0  0  0
   -0.7500    1.2990    0.0000 N   0  0  0  0  0  0  0  0  0  0  0  0
    0.7500    1.2990    0.0000 C   0  0  0  0  0  0  0  0  0  0  0  0
  1  2  2  0
  2  3  1  0
  3  4  2  0
  4  5  1  0
  5  6  2  0
  6  7  1  0
  7  8  2  0
  5  9  1  0
  4 10  1  0
 10 11  2  0
 11  1  1  0
  8  3  1  0
M  END
>  <Structure>  (212) 
6YOU

>  <Dataset>  (212) 
PDB

>  <Chain>  (212) 
A

>  <Spatial_Label>  (212) 
DFGin

>  <Dihedral_Label>  (212) 
BLAminus

>  <C_Helix_Label>  (212) 
Chelix-in

>  <Lig_ID>  (212) 
P4Q

>  <Lig_Entity_ID>  (212) 
6YOU_2

>  <Lig_Name>  (212) 
pyrido[3,2-d]pyrimidin-4-amine

>  <Lig_Formula>  (212) 
C7H6N4

>  <Lig_SMILES>  (212) 
c1cc2c(c(ncn2)N)nc1

>  <Lig_MW>  (212) 
146.149

>  <Lig_ChEMBL_ID>  (212) 
nan

>  <Lig_DrugBank_ID>  (212) 
nan

>  <Occurence>  (212) 
1.0

>  <Lig_SMILES_Uncharged>  (212) 
Nc1ncnc2cccnc12

>  <Lig_Conformer>  (212) 
['NaN']

>  <Lig_Of_Interest>  (212) 
['Y']

>  <Lig_Completeness>  (212) 
[1.0]

>  <Lig_Occupancy>  (212) 
[1.0]

>  <Lig_RSCC>  (212) 
[0.928]

>  <Lig_RSR>  (212) 
[0.103]

>  <Lig_RMSZ_Bonds>  (212) 
[0.35]

>  <Lig_RMSZ_Angles>  (212) 
[0.59]

>  <Lig_Alt_Conf>  (212) 
0.0

>  <Title>  (212) 
Crystal structure of the cAMP-dependent protein kinase A in complex with Pyrido[3,2-d]pyrimidin-4-amine (soaked)

>  <Nonpolymer_Entity_Count>  (212) 
1.0

>  <Protein_Entity_Count>  (212) 
1.0

>  <Exp_Method>  (212) 
X-Ray Diffraction

>  <Cryst_Method>  (212) 
Vapor Diffusion, Sitting Drop; 0,2 Mm Pka In 100 Mm Mes-Bis-Tris-Buffer, 1 Mm Dithiothreitol, 0.1 Mm Sodium Edta, 75 Mm Licl, 0.2 Mm Mega 8 And 23 % Methanol (V/V) 0.003 Ml Drop Volume, 0.5 Ml Reservoir Volume

>  <Deposit_Date>  (212) 
2020-04-15

>  <Resolution>  (212) 
1.73

>  <DOI>  (212) 
nan

>  <Source_Organism>  (212) 
Cricetulus griseus

>  <R_Free>  (212) 
0.2164

>  <Keywords>  (212) 
Transferase

>  <REMARK_280>  (212) 
 Crystal Solvent Content, Vs (%): 44.13 Matthews Coefficient, Vm (Angstroms**3/Da): 2.20 Crystallization Conditions: 0,2 Mm Pka In 100 Mm Mes-Bis-Tris -Buffer, 1 Mm Dithiothreitol, 0.1 Mm Sodium Edta, 75 Mm Licl, 0.2 Mm Mega 8 And 23 % Methanol (V/V) 0.003 Ml Drop Volume, 0.5 Ml Reservoir Volume, pH 6.9, Vapor Diffusion, Sitting Drop, Temperature 277K 

>  <REMARK_610>  (212) 
nan

>  <pH>  (212) 
6.9

>  <Cryst_Technique>  (212) 
nan

>  <Sequence>  (212) 
GHMGNAAAAKKGSEQESVKEFLAKAKEEFLKKWESPSQNTAQLDHFDRIKTLGTGSFGRVMLVKHKETGNHYAMKILDKQKVVKLKQIEHTLNEKRILQAVNFPFLVKLEFSFKDNSNLYMVMEYVPGGEMFSHLRRIGRFSEPHARFYAAQIVLTFEYLHSLDLIYRDLKPENLLIDQQGYIQVTDFGFAKRVKGRTWTLCGTPEYLAPEIILSKGYNKAVDWWALGVLIYEMAAGYPPFFADQPIQIYEKIVSGKVRFPSHFSSDLKDLLRNLLQVDLTKRFGNLKNGVNDIKNHKWFATTDWIAIYQRKVEAPFIPKFKGPGDTSNFDDYEEEEIRVSINEKCGKEFTEF

>  <Sequence_Length>  (212) 
353.0

>  <Mutation_Count>  (212) 
0.0

>  <Gene_Name>  (212) 
PKACA

>  <MW>  (212) 
41.194

>  <Name>  (212) 
cAMP-Dependent Protein Kinase Catalytic Subunit Alpha

>  <Mutations>  (212) 
nan

>  <EC_Number>  (212) 
2.7.11.11

>  <Peptidic_Inhibitor>  (212) 
False

>  <Lig_Missing_Atoms>  (212) 
['No']

>  <PDBbind_Resolution>  (212) 
nan

>  <PDBbind_Release_Year>  (212) 
nan

>  <PDBbind_Comment>  (212) 
nan

>  <PDBbind_Uniprot_Id>  (212) 
nan

>  <PDBbind_Protein_Name>  (212) 
nan

>  <PDBbind_-Logkd/Ki>  (212) 
nan

>  <PDBbind_Kd/Ki>  (212) 
nan

>  <PDBbind_Kd_Or_Ki_Or_Ic50>  (212) 
nan

>  <PDBbind_Relation>  (212) 
nan

>  <PDBbind_Value>  (212) 
nan

>  <PDBbind_Unit>  (212) 
nan

>  <PDBbind_Standard_Value>  (212) 
nan

>  <PDBbind_Standard_Unit>  (212) 
nan

>  <PDB_Chain>  (212) 
['A']

>  <Num_Ligs>  (212) 
[1.0]

>  <Orthosteric>  (212) 
[1.0]

>  <Allosteric>  (212) 
[0.0]

>  <Pockets_Assigned>  (212) 
['A']

>  <Multisite>  (212) 
[False]

>  <Same_Number>  (212) 
True

>  <Same_Binding_Site>  (212) 
True

>  <Same_Orientation>  (212) 
True

>  <Lig_Order_in_.pdb>  (212) 
Orthosteric

$$$$

     RDKit          2D

 10 11  0  0  0  0  0  0  0  0999 V2000
    1.5000    0.0000    0.0000 C   0  0  0  0  0  0  0  0  0  0  0  0
    0.7500   -1.2990    0.0000 C   0  0  0  0  0  0  0  0  0  0  0  0
   -0.7500   -1.2990    0.0000 C   0  0  0  0  0  0  0  0  0  0  0  0
   -1.5000    0.0000    0.0000 C   0  0  0  0  0  0  0  0  0  0  0  0
   -3.0000    0.0000    0.0000 C   0  0  0  0  0  0  0  0  0  0  0  0
   -3.7500    1.2990    0.0000 N   0  0  0  0  0  0  0  0  0  0  0  0
   -3.0000    2.5981    0.0000 C   0  0  0  0  0  0  0  0  0  0  0  0
   -1.5000    2.5981    0.0000 C   0  0  0  0  0  0  0  0  0  0  0  0
   -0.7500    1.2990    0.0000 C   0  0  0  0  0  0  0  0  0  0  0  0
    0.7500    1.2990    0.0000 C   0  0  0  0  0  0  0  0  0  0  0  0
  1  2  2  0
  2  3  1  0
  3  4  2  0
  4  5  1  0
  5  6  2  0
  6  7  1  0
  7  8  2  0
  8  9  1  0
  9 10  2  0
 10  1  1  0
  9  4  1  0
M  END
>  <Structure>  (213) 
6YPP

>  <Dataset>  (213) 
PDB

>  <Chain>  (213) 
A

>  <Spatial_Label>  (213) 
DFGin

>  <Dihedral_Label>  (213) 
BLAminus

>  <C_Helix_Label>  (213) 
Chelix-in

>  <Lig_ID>  (213) 
ISQ

>  <Lig_Entity_ID>  (213) 
6YPP_3

>  <Lig_Name>  (213) 
ISOQUINOLINE

>  <Lig_Formula>  (213) 
C9H7N

>  <Lig_SMILES>  (213) 
c1ccc2cnccc2c1

>  <Lig_MW>  (213) 
129.159

>  <Lig_ChEMBL_ID>  (213) 
['CHEMBL12315']

>  <Lig_DrugBank_ID>  (213) 
['DB04329']

>  <Occurence>  (213) 
2.0

>  <Lig_SMILES_Uncharged>  (213) 
c1ccc2cnccc2c1

>  <Lig_Conformer>  (213) 
['NaN']

>  <Lig_Of_Interest>  (213) 
['Y']

>  <Lig_Completeness>  (213) 
[1.0]

>  <Lig_Occupancy>  (213) 
[1.0]

>  <Lig_RSCC>  (213) 
[0.921]

>  <Lig_RSR>  (213) 
[0.119]

>  <Lig_RMSZ_Bonds>  (213) 
[0.2]

>  <Lig_RMSZ_Angles>  (213) 
[0.28]

>  <Lig_Alt_Conf>  (213) 
0.0

>  <Title>  (213) 
Crystal structure of the cAMP-dependent protein kinase A cocrystallized with PKI (5-24). Soaking of aminofasudil and displacing it with the fragment isoquinoline.

>  <Nonpolymer_Entity_Count>  (213) 
1.0

>  <Protein_Entity_Count>  (213) 
2.0

>  <Exp_Method>  (213) 
X-Ray Diffraction

>  <Cryst_Method>  (213) 
Vapor Diffusion, Sitting Drop; 0,2 Mm Pka In 100 Mm Mes-Bis-Tris-Buffer, 1 Mm Dithiothreitol, 0.1 Mm Sodium Edta, 75 Mm Licl, 0.2 Mm Mega 8 And 23 % Methanol (V/V)
0.003 Ml Drop Volume, 0.5 Ml Reservoir Volume
Soaking Of Aminofasudil: In Buffer With 10% Of Ligand In Dmso (50 Mm Stock) And 30% Mpd
Displacement With Isoquinoline: In Buffer With 10% Of Ligand In Dmso And 30% Mpd

>  <Deposit_Date>  (213) 
2020-04-16

>  <Resolution>  (213) 
1.75

>  <DOI>  (213) 
nan

>  <Source_Organism>  (213) 
Cricetulus griseus

>  <R_Free>  (213) 
0.2029

>  <Keywords>  (213) 
Transferase

>  <REMARK_280>  (213) 
 Crystal Solvent Content, Vs (%): 45.14 Matthews Coefficient, Vm (Angstroms**3/Da): 2.24 Crystallization Conditions: 0,2 Mm Pka In 100 Mm Mes-Bis-Tris -Buffer, 1 Mm Dithiothreitol, 0.1 Mm Sodium Edta, 75 Mm Licl, 0.2 Mm Mega 8 And 23 % Methanol (V/V) 0.003 Ml Drop Volume, 0.5 Ml Reservoir Volume Soaking Of Aminofasudil: In Buffer With 10% Of Ligand In Dmso (50 Mm Stock) And 30% Mpd Displacement With Isoquinoline: In Buffer With 10% Of Ligand In Dmso And 30% Mpd, pH 6.9, Vapor Diffusion, Sitting Drop, Temperature 277K 

>  <REMARK_610>  (213) 
nan

>  <pH>  (213) 
6.9

>  <Cryst_Technique>  (213) 
soaked

>  <Sequence>  (213) 
GHMGNAAAAKKGSEQESVKEFLAKAKEEFLKKWESPSQNTAQLDHFDRIKTLGTGSFGRVMLVKHKETGNHYAMKILDKQKVVKLKQIEHTLNEKRILQAVNFPFLVKLEFSFKDNSNLYMVMEYVPGGEMFSHLRRIGRFSEPHARFYAAQIVLTFEYLHSLDLIYRDLKPENLLIDQQGYIQVTDFGFAKRVKGRTWTLCGTPEYLAPEIILSKGYNKAVDWWALGVLIYEMAAGYPPFFADQPIQIYEKIVSGKVRFPSHFSSDLKDLLRNLLQVDLTKRFGNLKNGVNDIKNHKWFATTDWIAIYQRKVEAPFIPKFKGPGDTSNFDDYEEEEIRVSINEKCGKEFTEF

>  <Sequence_Length>  (213) 
353.0

>  <Mutation_Count>  (213) 
0.0

>  <Gene_Name>  (213) 
PKACA

>  <MW>  (213) 
41.114

>  <Name>  (213) 
cAMP-Dependent Protein Kinase Catalytic Subunit Alpha

>  <Mutations>  (213) 
nan

>  <EC_Number>  (213) 
2.7.11.11

>  <Peptidic_Inhibitor>  (213) 
True

>  <Lig_Missing_Atoms>  (213) 
['No']

>  <PDBbind_Resolution>  (213) 
nan

>  <PDBbind_Release_Year>  (213) 
nan

>  <PDBbind_Comment>  (213) 
nan

>  <PDBbind_Uniprot_Id>  (213) 
nan

>  <PDBbind_Protein_Name>  (213) 
nan

>  <PDBbind_-Logkd/Ki>  (213) 
nan

>  <PDBbind_Kd/Ki>  (213) 
nan

>  <PDBbind_Kd_Or_Ki_Or_Ic50>  (213) 
nan

>  <PDBbind_Relation>  (213) 
nan

>  <PDBbind_Value>  (213) 
nan

>  <PDBbind_Unit>  (213) 
nan

>  <PDBbind_Standard_Value>  (213) 
nan

>  <PDBbind_Standard_Unit>  (213) 
nan

>  <PDB_Chain>  (213) 
['A']

>  <Num_Ligs>  (213) 
[1.0]

>  <Orthosteric>  (213) 
[1.0]

>  <Allosteric>  (213) 
[0.0]

>  <Pockets_Assigned>  (213) 
['A']

>  <Multisite>  (213) 
[False]

>  <Same_Number>  (213) 
True

>  <Same_Binding_Site>  (213) 
True

>  <Same_Orientation>  (213) 
True

>  <Lig_Order_in_.pdb>  (213) 
Orthosteric

$$$$

     RDKit          2D

 11 11  0  0  0  0  0  0  0  0999 V2000
    3.0000    2.5981    0.0000 H   0  0  0  0  0  0  0  0  0  0  0  0
    3.7500    1.2990    0.0000 N   0  0  0  0  0  0  0  0  0  0  0  0
    3.0000    0.0000    0.0000 C   0  0  0  0  0  0  0  0  0  0  0  0
    1.5000    0.0000    0.0000 C   0  0  0  0  0  0  0  0  0  0  0  0
    0.7500   -1.2990    0.0000 C   0  0  0  0  0  0  0  0  0  0  0  0
   -0.7500   -1.2990    0.0000 C   0  0  0  0  0  0  0  0  0  0  0  0
   -1.5000    0.0000    0.0000 C   0  0  0  0  0  0  0  0  0  0  0  0
   -0.7500    1.2990    0.0000 C   0  0  0  0  0  0  0  0  0  0  0  0
    0.7500    1.2990    0.0000 C   0  0  0  0  0  0  0  0  0  0  0  0
   -3.0000    0.0000    0.0000 O   0  0  0  0  0  0  0  0  0  0  0  0
    3.7500   -1.2990    0.0000 N   0  0  0  0  0  0  0  0  0  0  0  0
  1  2  1  0
  2  3  2  0
  3  4  1  0
  4  5  2  0
  5  6  1  0
  6  7  2  0
  7  8  1  0
  8  9  2  0
  7 10  1  0
  3 11  1  0
  9  4  1  0
M  END
>  <Structure>  (214) 
6YPS

>  <Dataset>  (214) 
PDB

>  <Chain>  (214) 
A

>  <Spatial_Label>  (214) 
DFGin

>  <Dihedral_Label>  (214) 
BLAminus

>  <C_Helix_Label>  (214) 
Chelix-in

>  <Lig_ID>  (214) 
P72

>  <Lig_Entity_ID>  (214) 
6YPS_3

>  <Lig_Name>  (214) 
4-oxidanylbenzenecarboximidamide

>  <Lig_Formula>  (214) 
C7H8N2O

>  <Lig_SMILES>  (214) 
[H]/N=C(\c1ccc(cc1)O)/N

>  <Lig_MW>  (214) 
136.151

>  <Lig_ChEMBL_ID>  (214) 
['CHEMBL363685']

>  <Lig_DrugBank_ID>  (214) 
nan

>  <Occurence>  (214) 
1.0

>  <Lig_SMILES_Uncharged>  (214) 
[H]/N=C(/N)c1ccc(O)cc1

>  <Lig_Conformer>  (214) 
['NaN']

>  <Lig_Of_Interest>  (214) 
['Y']

>  <Lig_Completeness>  (214) 
[1.0]

>  <Lig_Occupancy>  (214) 
[0.843]

>  <Lig_RSCC>  (214) 
[0.825]

>  <Lig_RSR>  (214) 
[0.173]

>  <Lig_RMSZ_Bonds>  (214) 
[1.01]

>  <Lig_RMSZ_Angles>  (214) 
[1.28]

>  <Lig_Alt_Conf>  (214) 
0.0

>  <Title>  (214) 
Crystal structure of the cAMP-dependent protein kinase A in complex with 4-hydroxybenzamidine

>  <Nonpolymer_Entity_Count>  (214) 
2.0

>  <Protein_Entity_Count>  (214) 
1.0

>  <Exp_Method>  (214) 
X-Ray Diffraction

>  <Cryst_Method>  (214) 
Vapor Diffusion, Sitting Drop; 0,2 Mm Pka In 100 Mm Mes-Bis-Tris-Buffer, 1 Mm Dithiothreitol, 0.1 Mm Sodium Edta, 75 Mm Licl, 0.2 Mm Mega 8 And 23 % Methanol (V/V)
0.003 Ml Drop Volume, 0.5 Ml Reservoir Volume

>  <Deposit_Date>  (214) 
2020-04-16

>  <Resolution>  (214) 
1.35

>  <DOI>  (214) 
https://doi.org/10.1002/anie.202011295

>  <Source_Organism>  (214) 
Cricetulus griseus

>  <R_Free>  (214) 
0.157

>  <Keywords>  (214) 
Transferase

>  <REMARK_280>  (214) 
 Crystal Solvent Content, Vs (%): 43.88 Matthews Coefficient, Vm (Angstroms**3/Da): 2.19 Crystallization Conditions: 0,2 Mm Pka In 100 Mm Mes-Bis-Tris -Buffer, 1 Mm Dithiothreitol, 0.1 Mm Sodium Edta, 75 Mm Licl, 0.2 Mm Mega 8 And 23 % Methanol (V/V) 0.003 Ml Drop Volume, 0.5 Ml Reservoir Volume, pH 6.9, Vapor Diffusion, Sitting Drop, Temperature 277K 

>  <REMARK_610>  (214) 
nan

>  <pH>  (214) 
6.9

>  <Cryst_Technique>  (214) 
soaked

>  <Sequence>  (214) 
GHMGNAAAAKKGSEQESVKEFLAKAKEEFLKKWESPSQNTAQLDHFDRIKTLGTGSFGRVMLVKHKETGNHYAMKILDKQKVVKLKQIEHTLNEKRILQAVNFPFLVKLEFSFKDNSNLYMVMEYVPGGEMFSHLRRIGRFSEPHARFYAAQIVLTFEYLHSLDLIYRDLKPENLLIDQQGYIQVTDFGFAKRVKGRTWTLCGTPEYLAPEIILSKGYNKAVDWWALGVLIYEMAAGYPPFFADQPIQIYEKIVSGKVRFPSHFSSDLKDLLRNLLQVDLTKRFGNLKNGVNDIKNHKWFATTDWIAIYQRKVEAPFIPKFKGPGDTSNFDDYEEEEIRVSINEKCGKEFTEF

>  <Sequence_Length>  (214) 
353.0

>  <Mutation_Count>  (214) 
0.0

>  <Gene_Name>  (214) 
PKACA

>  <MW>  (214) 
41.194

>  <Name>  (214) 
cAMP-Dependent Protein Kinase Catalytic Subunit Alpha

>  <Mutations>  (214) 
nan

>  <EC_Number>  (214) 
2.7.11.11

>  <Peptidic_Inhibitor>  (214) 
False

>  <Lig_Missing_Atoms>  (214) 
['No']

>  <PDBbind_Resolution>  (214) 
nan

>  <PDBbind_Release_Year>  (214) 
nan

>  <PDBbind_Comment>  (214) 
nan

>  <PDBbind_Uniprot_Id>  (214) 
nan

>  <PDBbind_Protein_Name>  (214) 
nan

>  <PDBbind_-Logkd/Ki>  (214) 
nan

>  <PDBbind_Kd/Ki>  (214) 
nan

>  <PDBbind_Kd_Or_Ki_Or_Ic50>  (214) 
nan

>  <PDBbind_Relation>  (214) 
nan

>  <PDBbind_Value>  (214) 
nan

>  <PDBbind_Unit>  (214) 
nan

>  <PDBbind_Standard_Value>  (214) 
nan

>  <PDBbind_Standard_Unit>  (214) 
nan

>  <PDB_Chain>  (214) 
['A']

>  <Num_Ligs>  (214) 
[1.0]

>  <Orthosteric>  (214) 
[1.0]

>  <Allosteric>  (214) 
[0.0]

>  <Pockets_Assigned>  (214) 
['A']

>  <Multisite>  (214) 
[False]

>  <Same_Number>  (214) 
True

>  <Same_Binding_Site>  (214) 
True

>  <Same_Orientation>  (214) 
True

>  <Lig_Order_in_.pdb>  (214) 
Orthosteric

$$$$

     RDKit          2D

 20 21  0  0  0  0  0  0  0  0999 V2000
   11.2500    1.2990    0.0000 C   0  0  0  0  0  0  0  0  0  0  0  0
    9.7500    1.2990    0.0000 C   0  0  0  0  0  0  0  0  0  0  0  0
    9.0000   -0.0000    0.0000 C   0  0  0  0  0  0  0  0  0  0  0  0
    7.5000   -0.0000    0.0000 N   0  0  0  0  0  0  0  0  0  0  0  0
    6.7500   -1.2990    0.0000 C   0  0  0  0  0  0  0  0  0  0  0  0
    5.2500   -1.2990    0.0000 C   0  0  0  0  0  0  0  0  0  0  0  0
    4.5000   -2.5981    0.0000 N   0  0  0  0  0  0  0  0  0  0  0  0
    3.0000   -2.5981    0.0000 S   0  0  0  0  0  0  0  0  0  0  0  0
    3.0000   -4.0981    0.0000 O   0  0  0  0  0  0  0  0  0  0  0  0
    3.0000   -1.0981    0.0000 O   0  0  0  0  0  0  0  0  0  0  0  0
    1.5000   -2.5981    0.0000 C   0  0  0  0  0  0  0  0  0  0  0  0
    0.7500   -3.8971    0.0000 C   0  0  0  0  0  0  0  0  0  0  0  0
   -0.7500   -3.8971    0.0000 C   0  0  0  0  0  0  0  0  0  0  0  0
   -1.5000   -2.5981    0.0000 C   0  0  0  0  0  0  0  0  0  0  0  0
   -0.7500   -1.2990    0.0000 C   0  0  0  0  0  0  0  0  0  0  0  0
    0.7500   -1.2990    0.0000 C   0  0  0  0  0  0  0  0  0  0  0  0
    1.5000    0.0000    0.0000 C   0  0  0  0  0  0  0  0  0  0  0  0
    0.7500    1.2990    0.0000 C   0  0  0  0  0  0  0  0  0  0  0  0
   -0.7500    1.2990    0.0000 N   0  0  0  0  0  0  0  0  0  0  0  0
   -1.5000    0.0000    0.0000 C   0  0  0  0  0  0  0  0  0  0  0  0
  1  2  1  0
  2  3  1  0
  3  4  1  0
  4  5  1  0
  5  6  1  0
  6  7  1  0
  7  8  1  0
  8  9  2  0
  8 10  2  0
  8 11  1  0
 11 12  2  0
 12 13  1  0
 13 14  2  0
 14 15  1  0
 15 16  2  0
 16 17  1  0
 17 18  2  0
 18 19  1  0
 19 20  2  0
 16 11  1  0
 20 15  1  0
M  END
>  <Structure>  (215) 
6YQI

>  <Dataset>  (215) 
PDB

>  <Chain>  (215) 
A

>  <Spatial_Label>  (215) 
DFGin

>  <Dihedral_Label>  (215) 
BLAminus

>  <C_Helix_Label>  (215) 
Chelix-in

>  <Lig_ID>  (215) 
6TV

>  <Lig_Entity_ID>  (215) 
6YQI_3

>  <Lig_Name>  (215) 
~{N}-[2-(propylamino)ethyl]isoquinoline-5-sulfonamide

>  <Lig_Formula>  (215) 
C14H19N3O2S

>  <Lig_SMILES>  (215) 
CCCNCCNS(=O)(=O)c1cccc2c1ccnc2

>  <Lig_MW>  (215) 
293.385

>  <Lig_ChEMBL_ID>  (215) 
['CHEMBL343437']

>  <Lig_DrugBank_ID>  (215) 
nan

>  <Occurence>  (215) 
2.0

>  <Lig_SMILES_Uncharged>  (215) 
CCCNCCNS(=O)(=O)c1cccc2cnccc12

>  <Lig_Conformer>  (215) 
['NaN']

>  <Lig_Of_Interest>  (215) 
['Y']

>  <Lig_Completeness>  (215) 
[1.0]

>  <Lig_Occupancy>  (215) 
[1.0]

>  <Lig_RSCC>  (215) 
[0.961]

>  <Lig_RSR>  (215) 
[0.102]

>  <Lig_RMSZ_Bonds>  (215) 
[0.36]

>  <Lig_RMSZ_Angles>  (215) 
[0.61]

>  <Lig_Alt_Conf>  (215) 
0.0

>  <Title>  (215) 
Crystal structure of cAMP-dependent Protein Kinase (PKA) in complex with long-chain Fasudil-derivative N-[2-(propylamino)ethyl]isoquinoline-5-sulfonamide (soaked)

>  <Nonpolymer_Entity_Count>  (215) 
1.0

>  <Protein_Entity_Count>  (215) 
2.0

>  <Exp_Method>  (215) 
X-Ray Diffraction

>  <Cryst_Method>  (215) 
Vapor Diffusion, Hanging Drop; 0.24Mm Pka, 30Mm Mbt (Mes/Bis-Tris Buffer pH 6.2-6.9), 1Mm Dtt, 0.1Mm Edta, 75Mm Licl, 0.3Mm Mega 8, 0.7Mm Pki, 16%(V/V) Methanol; Soaking In Buffer Described With 0.12Mm Ligand Solved In Dmso And 30%(V/V) Mpd

>  <Deposit_Date>  (215) 
2020-04-17

>  <Resolution>  (215) 
1.42

>  <DOI>  (215) 
https://doi.org/10.1002/cmdc.202000565

>  <Source_Organism>  (215) 
Cricetulus griseus

>  <R_Free>  (215) 
0.1801

>  <Keywords>  (215) 
Transferase

>  <REMARK_280>  (215) 
 Crystal Solvent Content, Vs (%): 55.92 Matthews Coefficient, Vm (Angstroms**3/Da): 2.79 Crystallization Conditions: 0.24Mm Pka, 30Mm Mbt (Mes/Bis-Tris Buffer pH 6.2-6.9), 1Mm Dtt, 0.1Mm Edta, 75Mm Licl, 0.3Mm Mega 8, 0.7Mm Pki, 16%(V/V) Methanol; Soaking In Buffer Described With 0.12Mm Ligand Solved In Dmso And 30%(V/V) Mpd, pH 6.9, Vapor Diffusion, Hanging Drop, Temperature 277K 

>  <REMARK_610>  (215) 
nan

>  <pH>  (215) 
6.2

>  <Cryst_Technique>  (215) 
soaked

>  <Sequence>  (215) 
GHMGNAAAAKKGSEQESVKEFLAKAKEEFLKKWESPSQNTAQLDHFDRIKTLGTGSFGRVMLVKHKETGNHYAMKILDKQKVVKLKQIEHTLNEKRILQAVNFPFLVKLEFSFKDNSNLYMVMEYVPGGEMFSHLRRIGRFSEPHARFYAAQIVLTFEYLHSLDLIYRDLKPENLLIDQQGYIQVTDFGFAKRVKGRTWTLCGTPEYLAPEIILSKGYNKAVDWWALGVLIYEMAAGYPPFFADQPIQIYEKIVSGKVRFPSHFSSDLKDLLRNLLQVDLTKRFGNLKNGVNDIKNHKWFATTDWIAIYQRKVEAPFIPKFKGPGDTSNFDDYEEEEIRVSINEKCGKEFTEF

>  <Sequence_Length>  (215) 
353.0

>  <Mutation_Count>  (215) 
0.0

>  <Gene_Name>  (215) 
PKACA

>  <MW>  (215) 
41.194

>  <Name>  (215) 
cAMP-Dependent Protein Kinase Catalytic Subunit Alpha

>  <Mutations>  (215) 
nan

>  <EC_Number>  (215) 
2.7.11.11

>  <Peptidic_Inhibitor>  (215) 
True

>  <Lig_Missing_Atoms>  (215) 
['No']

>  <PDBbind_Resolution>  (215) 
nan

>  <PDBbind_Release_Year>  (215) 
nan

>  <PDBbind_Comment>  (215) 
nan

>  <PDBbind_Uniprot_Id>  (215) 
nan

>  <PDBbind_Protein_Name>  (215) 
nan

>  <PDBbind_-Logkd/Ki>  (215) 
nan

>  <PDBbind_Kd/Ki>  (215) 
nan

>  <PDBbind_Kd_Or_Ki_Or_Ic50>  (215) 
nan

>  <PDBbind_Relation>  (215) 
nan

>  <PDBbind_Value>  (215) 
nan

>  <PDBbind_Unit>  (215) 
nan

>  <PDBbind_Standard_Value>  (215) 
nan

>  <PDBbind_Standard_Unit>  (215) 
nan

>  <PDB_Chain>  (215) 
['A']

>  <Num_Ligs>  (215) 
[1.0]

>  <Orthosteric>  (215) 
[1.0]

>  <Allosteric>  (215) 
[0.0]

>  <Pockets_Assigned>  (215) 
['A']

>  <Multisite>  (215) 
[False]

>  <Same_Number>  (215) 
True

>  <Same_Binding_Site>  (215) 
True

>  <Same_Orientation>  (215) 
True

>  <Lig_Order_in_.pdb>  (215) 
Orthosteric

$$$$

     RDKit          2D

 20 21  0  0  0  0  0  0  0  0999 V2000
    7.5000   -0.0000    0.0000 C   0  0  0  0  0  0  0  0  0  0  0  0
    6.7500   -1.2990    0.0000 C   0  0  0  0  0  0  0  0  0  0  0  0
    5.2500   -1.2990    0.0000 C   0  0  0  0  0  0  0  0  0  0  0  0
    4.5000   -2.5981    0.0000 N   0  0  0  0  0  0  0  0  0  0  0  0
    5.2500   -3.8971    0.0000 C   0  0  0  0  0  0  0  0  0  0  0  0
    6.7500   -3.8971    0.0000 C   0  0  0  0  0  0  0  0  0  0  0  0
    7.5000   -5.1962    0.0000 N   0  0  0  0  0  4  0  0  0  0  0  0
    3.0000   -2.5981    0.0000 S   0  0  0  0  0  0  0  0  0  0  0  0
    3.0000   -4.0981    0.0000 O   0  0  0  0  0  0  0  0  0  0  0  0
    3.0000   -1.0981    0.0000 O   0  0  0  0  0  0  0  0  0  0  0  0
    1.5000   -2.5981    0.0000 C   0  0  0  0  0  0  0  0  0  0  0  0
    0.7500   -3.8971    0.0000 C   0  0  0  0  0  0  0  0  0  0  0  0
   -0.7500   -3.8971    0.0000 C   0  0  0  0  0  0  0  0  0  0  0  0
   -1.5000   -2.5981    0.0000 C   0  0  0  0  0  0  0  0  0  0  0  0
   -0.7500   -1.2990    0.0000 C   0  0  0  0  0  0  0  0  0  0  0  0
    0.7500   -1.2990    0.0000 C   0  0  0  0  0  0  0  0  0  0  0  0
    1.5000    0.0000    0.0000 C   0  0  0  0  0  0  0  0  0  0  0  0
    0.7500    1.2990    0.0000 C   0  0  0  0  0  0  0  0  0  0  0  0
   -0.7500    1.2990    0.0000 N   0  0  0  0  0  0  0  0  0  0  0  0
   -1.5000    0.0000    0.0000 C   0  0  0  0  0  0  0  0  0  0  0  0
  1  2  1  0
  2  3  1  0
  3  4  1  0
  4  5  1  0
  5  6  1  0
  6  7  1  0
  4  8  1  0
  8  9  2  0
  8 10  2  0
  8 11  1  0
 11 12  2  0
 12 13  1  0
 13 14  2  0
 14 15  1  0
 15 16  2  0
 16 17  1  0
 17 18  2  0
 18 19  1  0
 19 20  2  0
 16 11  1  0
 20 15  1  0
M  CHG  1   7   1
M  END
>  <Structure>  (216) 
6YQJ

>  <Dataset>  (216) 
PDB

>  <Chain>  (216) 
A

>  <Spatial_Label>  (216) 
DFGin

>  <Dihedral_Label>  (216) 
BLAminus

>  <C_Helix_Label>  (216) 
Chelix-in

>  <Lig_ID>  (216) 
6TX

>  <Lig_Entity_ID>  (216) 
6YQJ_3

>  <Lig_Name>  (216) 
2-[isoquinolin-5-ylsulfonyl(propyl)amino]ethylazanium

>  <Lig_Formula>  (216) 
C14H20N3O2S

>  <Lig_SMILES>  (216) 
CCCN(CC[NH3+])S(=O)(=O)c1cccc2c1ccnc2

>  <Lig_MW>  (216) 
294.393

>  <Lig_ChEMBL_ID>  (216) 
nan

>  <Lig_DrugBank_ID>  (216) 
nan

>  <Occurence>  (216) 
2.0

>  <Lig_SMILES_Uncharged>  (216) 
CCCN(CCN)S(=O)(=O)c1cccc2cnccc12

>  <Lig_Conformer>  (216) 
['NaN']

>  <Lig_Of_Interest>  (216) 
['Y']

>  <Lig_Completeness>  (216) 
[1.0]

>  <Lig_Occupancy>  (216) 
[0.805]

>  <Lig_RSCC>  (216) 
[0.948]

>  <Lig_RSR>  (216) 
[0.092]

>  <Lig_RMSZ_Bonds>  (216) 
[0.32]

>  <Lig_RMSZ_Angles>  (216) 
[0.47]

>  <Lig_Alt_Conf>  (216) 
0.0

>  <Title>  (216) 
Crystal structure of cAMP-dependent Protein Kinase (PKA) in complex with open-chain Fasudil-derivative 2-[isoquinolin-5-ylsulfonyl(propyl)amino]ethylazanium (soaked)

>  <Nonpolymer_Entity_Count>  (216) 
1.0

>  <Protein_Entity_Count>  (216) 
2.0

>  <Exp_Method>  (216) 
X-Ray Diffraction

>  <Cryst_Method>  (216) 
Vapor Diffusion, Hanging Drop; 0.24Mm Pka, 30Mm Mbt (Mes/Bis-Tris Buffer pH 6.2-6.9), 1Mm Dtt, 0.1Mm Edta, 75Mm Licl, 0.3Mm Mega 8, 0.7Mm Pki, 16%(V/V) Methanol; Soaking In Buffer Described With 0.12Mm Ligand Solved In Dmso And 30%(V/V) Mpd

>  <Deposit_Date>  (216) 
2020-04-17

>  <Resolution>  (216) 
1.58

>  <DOI>  (216) 
https://doi.org/10.1002/cmdc.202000565

>  <Source_Organism>  (216) 
Cricetulus griseus

>  <R_Free>  (216) 
0.2005

>  <Keywords>  (216) 
Transferase

>  <REMARK_280>  (216) 
 Crystal Solvent Content, Vs (%): 56.20 Matthews Coefficient, Vm (Angstroms**3/Da): 2.81 Crystallization Conditions: 0.24Mm Pka, 30Mm Mbt (Mes/Bis-Tris Buffer pH 6.2-6.9), 1Mm Dtt, 0.1Mm Edta, 75Mm Licl, 0.3Mm Mega 8, 0.7Mm Pki, 16%(V/V) Methanol; Soaking In Buffer Described With 0.12Mm Ligand Solved In Dmso And 30%(V/V) Mpd, pH 6.9, Vapor Diffusion, Hanging Drop, Temperature 277K 

>  <REMARK_610>  (216) 
nan

>  <pH>  (216) 
6.2

>  <Cryst_Technique>  (216) 
soaked

>  <Sequence>  (216) 
GHMGNAAAAKKGSEQESVKEFLAKAKEEFLKKWESPSQNTAQLDHFDRIKTLGTGSFGRVMLVKHKETGNHYAMKILDKQKVVKLKQIEHTLNEKRILQAVNFPFLVKLEFSFKDNSNLYMVMEYVPGGEMFSHLRRIGRFSEPHARFYAAQIVLTFEYLHSLDLIYRDLKPENLLIDQQGYIQVTDFGFAKRVKGRTWTLCGTPEYLAPEIILSKGYNKAVDWWALGVLIYEMAAGYPPFFADQPIQIYEKIVSGKVRFPSHFSSDLKDLLRNLLQVDLTKRFGNLKNGVNDIKNHKWFATTDWIAIYQRKVEAPFIPKFKGPGDTSNFDDYEEEEIRVSINEKCGKEFTEF

>  <Sequence_Length>  (216) 
353.0

>  <Mutation_Count>  (216) 
0.0

>  <Gene_Name>  (216) 
PKACA

>  <MW>  (216) 
41.194

>  <Name>  (216) 
cAMP-Dependent Protein Kinase Catalytic Subunit Alpha

>  <Mutations>  (216) 
nan

>  <EC_Number>  (216) 
2.7.11.11

>  <Peptidic_Inhibitor>  (216) 
True

>  <Lig_Missing_Atoms>  (216) 
['No']

>  <PDBbind_Resolution>  (216) 
nan

>  <PDBbind_Release_Year>  (216) 
nan

>  <PDBbind_Comment>  (216) 
nan

>  <PDBbind_Uniprot_Id>  (216) 
nan

>  <PDBbind_Protein_Name>  (216) 
nan

>  <PDBbind_-Logkd/Ki>  (216) 
nan

>  <PDBbind_Kd/Ki>  (216) 
nan

>  <PDBbind_Kd_Or_Ki_Or_Ic50>  (216) 
nan

>  <PDBbind_Relation>  (216) 
nan

>  <PDBbind_Value>  (216) 
nan

>  <PDBbind_Unit>  (216) 
nan

>  <PDBbind_Standard_Value>  (216) 
nan

>  <PDBbind_Standard_Unit>  (216) 
nan

>  <PDB_Chain>  (216) 
['A']

>  <Num_Ligs>  (216) 
[1.0]

>  <Orthosteric>  (216) 
[1.0]

>  <Allosteric>  (216) 
[0.0]

>  <Pockets_Assigned>  (216) 
['A']

>  <Multisite>  (216) 
[False]

>  <Same_Number>  (216) 
True

>  <Same_Binding_Site>  (216) 
True

>  <Same_Orientation>  (216) 
True

>  <Lig_Order_in_.pdb>  (216) 
Orthosteric

$$$$

     RDKit          2D

 21 23  0  0  0  0  0  0  0  0999 V2000
    3.0000    0.0000    0.0000 C   0  0  0  0  0  0  0  0  0  0  0  0
    1.5000    0.0000    0.0000 C   0  0  0  0  0  0  0  0  0  0  0  0
    0.7500   -1.2990    0.0000 C   0  0  0  0  0  0  0  0  0  0  0  0
   -0.7500   -1.2990    0.0000 N   0  0  0  0  0  0  0  0  0  0  0  0
   -1.5000    0.0000    0.0000 C   0  0  0  0  0  0  0  0  0  0  0  0
   -0.7500    1.2990    0.0000 C   0  0  0  0  0  0  0  0  0  0  0  0
    0.7500    1.2990    0.0000 C   0  0  0  0  0  0  0  0  0  0  0  0
    1.5000    2.5981    0.0000 C   0  0  0  0  0  0  0  0  0  0  0  0
    0.7500    3.8971    0.0000 C   0  0  0  0  0  0  0  0  0  0  0  0
   -0.7500    3.8971    0.0000 C   0  0  0  0  0  0  0  0  0  0  0  0
   -1.5000    2.5981    0.0000 C   0  0  0  0  0  0  0  0  0  0  0  0
    3.0000    2.5981    0.0000 S   0  0  0  0  0  0  0  0  0  0  0  0
    3.0000    4.0981    0.0000 O   0  0  0  0  0  0  0  0  0  0  0  0
    3.0000    1.0981    0.0000 O   0  0  0  0  0  0  0  0  0  0  0  0
    4.5000    2.5981    0.0000 N   0  0  0  0  0  0  0  0  0  0  0  0
    5.1508    3.9495    0.0000 C   0  0  0  0  0  0  0  0  0  0  0  0
    6.6132    4.2833    0.0000 C   0  0  0  0  0  0  0  0  0  0  0  0
    7.7860    3.3481    0.0000 C   0  0  0  0  0  0  0  0  0  0  0  0
    7.7860    1.8481    0.0000 N   0  0  0  0  0  0  0  0  0  0  0  0
    6.6132    0.9128    0.0000 C   0  0  0  0  0  0  0  0  0  0  0  0
    5.1508    1.2466    0.0000 C   0  0  0  0  0  0  0  0  0  0  0  0
  1  2  1  0
  2  3  2  0
  3  4  1  0
  4  5  2  0
  5  6  1  0
  6  7  2  0
  7  8  1  0
  8  9  2  0
  9 10  1  0
 10 11  2  0
  8 12  1  0
 12 13  2  0
 12 14  2  0
 12 15  1  0
 15 16  1  0
 16 17  1  0
 17 18  1  0
 18 19  1  0
 19 20  1  0
 20 21  1  0
  7  2  1  0
 11  6  1  0
 21 15  1  0
M  END
>  <Structure>  (217) 
6YQK

>  <Dataset>  (217) 
PDB

>  <Chain>  (217) 
A

>  <Spatial_Label>  (217) 
DFGin

>  <Dihedral_Label>  (217) 
BLAminus

>  <C_Helix_Label>  (217) 
Chelix-in

>  <Lig_ID>  (217) 
7KB

>  <Lig_Entity_ID>  (217) 
6YQK_3

>  <Lig_Name>  (217) 
5-(1,4-diazepan-1-ylsulfonyl)-4-methyl-isoquinoline

>  <Lig_Formula>  (217) 
C15H19N3O2S

>  <Lig_SMILES>  (217) 
Cc1cncc2c1c(ccc2)S(=O)(=O)N3CCCNCC3

>  <Lig_MW>  (217) 
305.395

>  <Lig_ChEMBL_ID>  (217) 
nan

>  <Lig_DrugBank_ID>  (217) 
nan

>  <Occurence>  (217) 
2.0

>  <Lig_SMILES_Uncharged>  (217) 
Cc1cncc2cccc(S(=O)(=O)N3CCCNCC3)c12

>  <Lig_Conformer>  (217) 
['NaN']

>  <Lig_Of_Interest>  (217) 
['Y']

>  <Lig_Completeness>  (217) 
[1.0]

>  <Lig_Occupancy>  (217) 
[1.0]

>  <Lig_RSCC>  (217) 
[0.963]

>  <Lig_RSR>  (217) 
[0.075]

>  <Lig_RMSZ_Bonds>  (217) 
[0.27]

>  <Lig_RMSZ_Angles>  (217) 
[0.74]

>  <Lig_Alt_Conf>  (217) 
0.0

>  <Title>  (217) 
Crystal structure of cAMP-dependent Protein Kinase (PKA) in complex with a methylisoquinoline Fasudil-derivative (soaked)

>  <Nonpolymer_Entity_Count>  (217) 
1.0

>  <Protein_Entity_Count>  (217) 
2.0

>  <Exp_Method>  (217) 
X-Ray Diffraction

>  <Cryst_Method>  (217) 
Vapor Diffusion, Hanging Drop; 0.24Mm Pka, 30Mm Mbt (Mes/Bis-Tris Buffer pH 6.2-6.9), 1Mm Dtt, 0.1Mm Edta, 75Mm Licl, 0.3Mm Mega 8, 0.7Mm Pki, 16%(V/V) Methanol; Soaking In Buffer Described With 0.12Mm Ligand Solved In Dmso And 30%(V/V) Mpd

>  <Deposit_Date>  (217) 
2020-04-17

>  <Resolution>  (217) 
1.67

>  <DOI>  (217) 
https://doi.org/10.1002/cmdc.202000565

>  <Source_Organism>  (217) 
Cricetulus griseus

>  <R_Free>  (217) 
0.2017

>  <Keywords>  (217) 
Transferase

>  <REMARK_280>  (217) 
 Crystal Solvent Content, Vs (%): 56.34 Matthews Coefficient, Vm (Angstroms**3/Da): 2.82 Crystallization Conditions: 0.24Mm Pka, 30Mm Mbt (Mes/Bis-Tris Buffer pH 6.2-6.9), 1Mm Dtt, 0.1Mm Edta, 75Mm Licl, 0.3Mm Mega 8, 0.7Mm Pki, 16%(V/V) Methanol; Soaking In Buffer Described With 0.12Mm Ligand Solved In Dmso And 30%(V/V) Mpd, pH 6.9, Vapor Diffusion, Hanging Drop, Temperature 277K 

>  <REMARK_610>  (217) 
nan

>  <pH>  (217) 
6.2

>  <Cryst_Technique>  (217) 
soaked

>  <Sequence>  (217) 
GHMGNAAAAKKGSEQESVKEFLAKAKEEFLKKWESPSQNTAQLDHFDRIKTLGTGSFGRVMLVKHKETGNHYAMKILDKQKVVKLKQIEHTLNEKRILQAVNFPFLVKLEFSFKDNSNLYMVMEYVPGGEMFSHLRRIGRFSEPHARFYAAQIVLTFEYLHSLDLIYRDLKPENLLIDQQGYIQVTDFGFAKRVKGRTWTLCGTPEYLAPEIILSKGYNKAVDWWALGVLIYEMAAGYPPFFADQPIQIYEKIVSGKVRFPSHFSSDLKDLLRNLLQVDLTKRFGNLKNGVNDIKNHKWFATTDWIAIYQRKVEAPFIPKFKGPGDTSNFDDYEEEEIRVSINEKCGKEFTEF

>  <Sequence_Length>  (217) 
353.0

>  <Mutation_Count>  (217) 
0.0

>  <Gene_Name>  (217) 
PKACA

>  <MW>  (217) 
41.194

>  <Name>  (217) 
cAMP-Dependent Protein Kinase Catalytic Subunit Alpha

>  <Mutations>  (217) 
nan

>  <EC_Number>  (217) 
2.7.11.11

>  <Peptidic_Inhibitor>  (217) 
True

>  <Lig_Missing_Atoms>  (217) 
['No']

>  <PDBbind_Resolution>  (217) 
nan

>  <PDBbind_Release_Year>  (217) 
nan

>  <PDBbind_Comment>  (217) 
nan

>  <PDBbind_Uniprot_Id>  (217) 
nan

>  <PDBbind_Protein_Name>  (217) 
nan

>  <PDBbind_-Logkd/Ki>  (217) 
nan

>  <PDBbind_Kd/Ki>  (217) 
nan

>  <PDBbind_Kd_Or_Ki_Or_Ic50>  (217) 
nan

>  <PDBbind_Relation>  (217) 
nan

>  <PDBbind_Value>  (217) 
nan

>  <PDBbind_Unit>  (217) 
nan

>  <PDBbind_Standard_Value>  (217) 
nan

>  <PDBbind_Standard_Unit>  (217) 
nan

>  <PDB_Chain>  (217) 
['A']

>  <Num_Ligs>  (217) 
[1.0]

>  <Orthosteric>  (217) 
[1.0]

>  <Allosteric>  (217) 
[0.0]

>  <Pockets_Assigned>  (217) 
['A']

>  <Multisite>  (217) 
[False]

>  <Same_Number>  (217) 
True

>  <Same_Binding_Site>  (217) 
True

>  <Same_Orientation>  (217) 
True

>  <Lig_Order_in_.pdb>  (217) 
Orthosteric

$$$$

     RDKit          2D

 10 10  0  0  0  0  0  0  0  0999 V2000
    1.5000    0.0000    0.0000 C   0  0  0  0  0  0  0  0  0  0  0  0
    0.7500   -1.2990    0.0000 C   0  0  0  0  0  0  0  0  0  0  0  0
   -0.7500   -1.2990    0.0000 C   0  0  0  0  0  0  0  0  0  0  0  0
   -1.5000    0.0000    0.0000 C   0  0  0  0  0  0  0  0  0  0  0  0
   -0.7500    1.2990    0.0000 C   0  0  0  0  0  0  0  0  0  0  0  0
    0.7500    1.2990    0.0000 C   0  0  0  0  0  0  0  0  0  0  0  0
    1.5000    2.5981    0.0000 N   0  0  0  0  0  4  0  0  0  0  0  0
    0.7500    3.8971    0.0000 O   0  0  0  0  0  0  0  0  0  0  0  0
    3.0000    2.5981    0.0000 O   0  0  0  0  0  1  0  0  0  0  0  0
   -1.5000   -2.5981    0.0000 O   0  0  0  0  0  0  0  0  0  0  0  0
  1  2  2  0
  2  3  1  0
  3  4  2  0
  4  5  1  0
  5  6  2  0
  6  7  1  0
  7  8  2  0
  7  9  1  0
  3 10  1  0
  6  1  1  0
M  CHG  2   7   1   9  -1
M  END
>  <Structure>  (218) 
6Z08

>  <Dataset>  (218) 
PDB

>  <Chain>  (218) 
A

>  <Spatial_Label>  (218) 
DFGin

>  <Dihedral_Label>  (218) 
BLAminus

>  <C_Helix_Label>  (218) 
Chelix-in

>  <Lig_ID>  (218) 
NPO

>  <Lig_Entity_ID>  (218) 
6Z08_2

>  <Lig_Name>  (218) 
P-NITROPHENOL

>  <Lig_Formula>  (218) 
C6H5NO3

>  <Lig_SMILES>  (218) 
c1cc(ccc1[N+](=O)[O-])O

>  <Lig_MW>  (218) 
139.109

>  <Lig_ChEMBL_ID>  (218) 
['CHEMBL14130']

>  <Lig_DrugBank_ID>  (218) 
['DB04417']

>  <Occurence>  (218) 
1.0

>  <Lig_SMILES_Uncharged>  (218) 
O=[N+]([O-])c1ccc(O)cc1

>  <Lig_Conformer>  (218) 
['NaN']

>  <Lig_Of_Interest>  (218) 
['Y']

>  <Lig_Completeness>  (218) 
[1.0]

>  <Lig_Occupancy>  (218) 
[0.95]

>  <Lig_RSCC>  (218) 
[0.923]

>  <Lig_RSR>  (218) 
[0.103]

>  <Lig_RMSZ_Bonds>  (218) 
[0.23]

>  <Lig_RMSZ_Angles>  (218) 
[0.48]

>  <Lig_Alt_Conf>  (218) 
0.0

>  <Title>  (218) 
Crystal structure of cAMP-dependent protein kinase A (CHO PKA) in complex with 4-Nitrophenol

>  <Nonpolymer_Entity_Count>  (218) 
1.0

>  <Protein_Entity_Count>  (218) 
1.0

>  <Exp_Method>  (218) 
X-Ray Diffraction

>  <Cryst_Method>  (218) 
Vapor Diffusion, Sitting Drop; 100 Mm Mes-Bis-Tris-Buffer, 1 Mm Dithiothreitol, 0.1 Mm Sodium Edta, 75 Mm Licl, 0.2 Mm Mega 8 And 23 % Methanol (V/V) 0.003 Ml Drop Volume, 0.5 Ml Reservoir Volume
Soaking Of 4-Nitrophenol (10% (V/V) In Dmso) In Buffer (60% (V/V)) And Mpd (30% (V/V)).

>  <Deposit_Date>  (218) 
2020-05-08

>  <Resolution>  (218) 
1.49

>  <DOI>  (218) 
https://doi.org/10.1002/anie.202011295

>  <Source_Organism>  (218) 
Cricetulus griseus

>  <R_Free>  (218) 
0.1853

>  <Keywords>  (218) 
Transferase

>  <REMARK_280>  (218) 
 Crystal Solvent Content, Vs (%): 43.61 Matthews Coefficient, Vm (Angstroms**3/Da): 2.18 Crystallization Conditions: 100 Mm Mes-Bis-Tris-Buffer, 1 Mm Dithiothreitol, 0.1 Mm Sodium Edta, 75 Mm Licl, 0.2 Mm Mega 8 And 23 % Methanol (V/V) 0.003 Ml Drop Volume, 0.5 Ml Reservoir Volume Soaking Of 4-Nitrophenol (10% (V/V) In Dmso) In Buffer (60% (V/V)) And Mpd (30% (V/V))., pH 6.9, Vapor Diffusion, Sitting Drop, Temperature 277K 

>  <REMARK_610>  (218) 
nan

>  <pH>  (218) 
6.9

>  <Cryst_Technique>  (218) 
soaked

>  <Sequence>  (218) 
GHMGNAAAAKKGSEQESVKEFLAKAKEEFLKKWESPSQNTAQLDHFDRIKTLGTGSFGRVMLVKHKETGNHYAMKILDKQKVVKLKQIEHTLNEKRILQAVNFPFLVKLEFSFKDNSNLYMVMEYVPGGEMFSHLRRIGRFSEPHARFYAAQIVLTFEYLHSLDLIYRDLKPENLLIDQQGYIQVTDFGFAKRVKGRTWTLCGTPEYLAPEIILSKGYNKAVDWWALGVLIYEMAAGYPPFFADQPIQIYEKIVSGKVRFPSHFSSDLKDLLRNLLQVDLTKRFGNLKNGVNDIKNHKWFATTDWIAIYQRKVEAPFIPKFKGPGDTSNFDDYEEEEIRVSINEKCGKEFTEF

>  <Sequence_Length>  (218) 
353.0

>  <Mutation_Count>  (218) 
0.0

>  <Gene_Name>  (218) 
PKACA

>  <MW>  (218) 
41.114

>  <Name>  (218) 
cAMP-Dependent Protein Kinase Catalytic Subunit Alpha

>  <Mutations>  (218) 
nan

>  <EC_Number>  (218) 
2.7.11.11

>  <Peptidic_Inhibitor>  (218) 
False

>  <Lig_Missing_Atoms>  (218) 
['No']

>  <PDBbind_Resolution>  (218) 
nan

>  <PDBbind_Release_Year>  (218) 
nan

>  <PDBbind_Comment>  (218) 
nan

>  <PDBbind_Uniprot_Id>  (218) 
nan

>  <PDBbind_Protein_Name>  (218) 
nan

>  <PDBbind_-Logkd/Ki>  (218) 
nan

>  <PDBbind_Kd/Ki>  (218) 
nan

>  <PDBbind_Kd_Or_Ki_Or_Ic50>  (218) 
nan

>  <PDBbind_Relation>  (218) 
nan

>  <PDBbind_Value>  (218) 
nan

>  <PDBbind_Unit>  (218) 
nan

>  <PDBbind_Standard_Value>  (218) 
nan

>  <PDBbind_Standard_Unit>  (218) 
nan

>  <PDB_Chain>  (218) 
['A']

>  <Num_Ligs>  (218) 
[1.0]

>  <Orthosteric>  (218) 
[1.0]

>  <Allosteric>  (218) 
[0.0]

>  <Pockets_Assigned>  (218) 
['A']

>  <Multisite>  (218) 
[False]

>  <Same_Number>  (218) 
True

>  <Same_Binding_Site>  (218) 
True

>  <Same_Orientation>  (218) 
True

>  <Lig_Order_in_.pdb>  (218) 
Orthosteric

$$$$

     RDKit          2D

  7  7  0  0  0  0  0  0  0  0999 V2000
    1.5000    0.0000    0.0000 C   0  0  0  0  0  0  0  0  0  0  0  0
    0.7500   -1.2990    0.0000 C   0  0  0  0  0  0  0  0  0  0  0  0
   -0.7500   -1.2990    0.0000 C   0  0  0  0  0  0  0  0  0  0  0  0
   -1.5000    0.0000    0.0000 C   0  0  0  0  0  0  0  0  0  0  0  0
   -0.7500    1.2990    0.0000 C   0  0  0  0  0  0  0  0  0  0  0  0
    0.7500    1.2990    0.0000 C   0  0  0  0  0  0  0  0  0  0  0  0
   -3.0000    0.0000    0.0000 O   0  0  0  0  0  0  0  0  0  0  0  0
  1  2  2  0
  2  3  1  0
  3  4  2  0
  4  5  1  0
  5  6  2  0
  4  7  1  0
  6  1  1  0
M  END
>  <Structure>  (219) 
6Z44

>  <Dataset>  (219) 
PDB

>  <Chain>  (219) 
A

>  <Spatial_Label>  (219) 
DFGin

>  <Dihedral_Label>  (219) 
BLAminus

>  <C_Helix_Label>  (219) 
Chelix-in

>  <Lig_ID>  (219) 
IPH

>  <Lig_Entity_ID>  (219) 
6Z44_2

>  <Lig_Name>  (219) 
PHENOL

>  <Lig_Formula>  (219) 
C6H6O

>  <Lig_SMILES>  (219) 
c1ccc(cc1)O

>  <Lig_MW>  (219) 
94.111

>  <Lig_ChEMBL_ID>  (219) 
['CHEMBL14060']

>  <Lig_DrugBank_ID>  (219) 
['DB03255']

>  <Occurence>  (219) 
2.0

>  <Lig_SMILES_Uncharged>  (219) 
Oc1ccccc1

>  <Lig_Conformer>  (219) 
['NaN']

>  <Lig_Of_Interest>  (219) 
['Y']

>  <Lig_Completeness>  (219) 
[1.0]

>  <Lig_Occupancy>  (219) 
[1.0]

>  <Lig_RSCC>  (219) 
[0.944]

>  <Lig_RSR>  (219) 
[0.074]

>  <Lig_RMSZ_Bonds>  (219) 
[0.71]

>  <Lig_RMSZ_Angles>  (219) 
[0.54]

>  <Lig_Alt_Conf>  (219) 
0.0

>  <Title>  (219) 
Crystal structure of the cAMP-dependent protein kinase A in complex with phenol

>  <Nonpolymer_Entity_Count>  (219) 
5.0

>  <Protein_Entity_Count>  (219) 
1.0

>  <Exp_Method>  (219) 
X-Ray Diffraction

>  <Cryst_Method>  (219) 
Vapor Diffusion, Sitting Drop; 0,2 Mm Pka In 100 Mm Mes-Bis-Tris-Buffer, 1 Mm Dithiothreitol, 0.1 Mm Sodium Edta, 75 Mm Licl, 0.2 Mm Mega 8 And 23 % Methanol (V/V)
0.003 Ml Drop Volume, 0.5 Ml Reservoir Volume
Soaking: 100Mm pHenol In Buffer Described Above And 30% Mpd

>  <Deposit_Date>  (219) 
2020-05-22

>  <Resolution>  (219) 
1.38

>  <DOI>  (219) 
https://doi.org/10.1002/anie.202011295

>  <Source_Organism>  (219) 
Cricetulus griseus

>  <R_Free>  (219) 
0.1736

>  <Keywords>  (219) 
Transferase

>  <REMARK_280>  (219) 
 Crystal Solvent Content, Vs (%): 43.81 Matthews Coefficient, Vm (Angstroms**3/Da): 2.19 Crystallization Conditions: 0,2 Mm Pka In 100 Mm Mes-Bis-Tris -Buffer, 1 Mm Dithiothreitol, 0.1 Mm Sodium Edta, 75 Mm Licl, 0.2 Mm Mega 8 And 23 % Methanol (V/V) 0.003 Ml Drop Volume, 0.5 Ml Reservoir Volume Soaking: 100Mm pHenol In Buffer Described Above And 30% Mpd, pH 6.9, Vapor Diffusion, Sitting Drop, Temperature 277K 

>  <REMARK_610>  (219) 
nan

>  <pH>  (219) 
6.9

>  <Cryst_Technique>  (219) 
soaked

>  <Sequence>  (219) 
GHMGNAAAAKKGSEQESVKEFLAKAKEEFLKKWESPSQNTAQLDHFDRIKTLGTGSFGRVMLVKHKETGNHYAMKILDKQKVVKLKQIEHTLNEKRILQAVNFPFLVKLEFSFKDNSNLYMVMEYVPGGEMFSHLRRIGRFSEPHARFYAAQIVLTFEYLHSLDLIYRDLKPENLLIDQQGYIQVTDFGFAKRVKGRTWTLCGTPEYLAPEIILSKGYNKAVDWWALGVLIYEMAAGYPPFFADQPIQIYEKIVSGKVRFPSHFSSDLKDLLRNLLQVDLTKRFGNLKNGVNDIKNHKWFATTDWIAIYQRKVEAPFIPKFKGPGDTSNFDDYEEEEIRVSINEKCGKEFTEF

>  <Sequence_Length>  (219) 
353.0

>  <Mutation_Count>  (219) 
0.0

>  <Gene_Name>  (219) 
PKACA

>  <MW>  (219) 
41.114

>  <Name>  (219) 
cAMP-Dependent Protein Kinase Catalytic Subunit Alpha

>  <Mutations>  (219) 
nan

>  <EC_Number>  (219) 
2.7.11.11

>  <Peptidic_Inhibitor>  (219) 
False

>  <Lig_Missing_Atoms>  (219) 
['No']

>  <PDBbind_Resolution>  (219) 
nan

>  <PDBbind_Release_Year>  (219) 
nan

>  <PDBbind_Comment>  (219) 
nan

>  <PDBbind_Uniprot_Id>  (219) 
nan

>  <PDBbind_Protein_Name>  (219) 
nan

>  <PDBbind_-Logkd/Ki>  (219) 
nan

>  <PDBbind_Kd/Ki>  (219) 
nan

>  <PDBbind_Kd_Or_Ki_Or_Ic50>  (219) 
nan

>  <PDBbind_Relation>  (219) 
nan

>  <PDBbind_Value>  (219) 
nan

>  <PDBbind_Unit>  (219) 
nan

>  <PDBbind_Standard_Value>  (219) 
nan

>  <PDBbind_Standard_Unit>  (219) 
nan

>  <PDB_Chain>  (219) 
['A']

>  <Num_Ligs>  (219) 
[1.0]

>  <Orthosteric>  (219) 
[1.0]

>  <Allosteric>  (219) 
[0.0]

>  <Pockets_Assigned>  (219) 
['A']

>  <Multisite>  (219) 
[False]

>  <Same_Number>  (219) 
False

>  <Same_Binding_Site>  (219) 
True

>  <Same_Orientation>  (219) 
True

>  <Lig_Order_in_.pdb>  (219) 
Orthosteric

$$$$

     RDKit          2D

  9  9  0  0  0  0  0  0  0  0999 V2000
    1.5000    0.0000    0.0000 C   0  0  0  0  0  0  0  0  0  0  0  0
    0.7500   -1.2990    0.0000 C   0  0  0  0  0  0  0  0  0  0  0  0
   -0.7500   -1.2990    0.0000 N   0  0  0  0  0  0  0  0  0  0  0  0
   -1.5000    0.0000    0.0000 C   0  0  0  0  0  0  0  0  0  0  0  0
   -0.7500    1.2990    0.0000 C   0  0  0  0  0  0  0  0  0  0  0  0
    0.7500    1.2990    0.0000 C   0  0  0  0  0  0  0  0  0  0  0  0
    1.5000    2.5981    0.0000 C   0  0  0  0  0  0  0  0  0  0  0  0
    0.7500    3.8971    0.0000 N   0  0  0  0  0  0  0  0  0  0  0  0
    3.0000    2.5981    0.0000 N   0  0  0  0  0  0  0  0  0  0  0  0
  1  2  2  0
  2  3  1  0
  3  4  2  0
  4  5  1  0
  5  6  2  0
  6  7  1  0
  7  8  2  0
  7  9  1  0
  6  1  1  0
M  END
>  <Structure>  (220) 
6ZN0

>  <Dataset>  (220) 
PDB

>  <Chain>  (220) 
A

>  <Spatial_Label>  (220) 
DFGin

>  <Dihedral_Label>  (220) 
BLAminus

>  <C_Helix_Label>  (220) 
Chelix-in

>  <Lig_ID>  (220) 
NTN

>  <Lig_Entity_ID>  (220) 
6ZN0_4

>  <Lig_Name>  (220) 
ISONICOTINAMIDINE

>  <Lig_Formula>  (220) 
C6H7N3

>  <Lig_SMILES>  (220) 
c1cnccc1C(=N)N

>  <Lig_MW>  (220) 
121.14

>  <Lig_ChEMBL_ID>  (220) 
nan

>  <Lig_DrugBank_ID>  (220) 
nan

>  <Occurence>  (220) 
1.0

>  <Lig_SMILES_Uncharged>  (220) 
N=C(N)c1ccncc1

>  <Lig_Conformer>  (220) 
['NaN', 'NaN']

>  <Lig_Of_Interest>  (220) 
['Y', 'Y']

>  <Lig_Completeness>  (220) 
[1.0, 1.0]

>  <Lig_Occupancy>  (220) 
[1.0, 1.0]

>  <Lig_RSCC>  (220) 
[0.922, 0.828]

>  <Lig_RSR>  (220) 
[0.094, 0.2]

>  <Lig_RMSZ_Bonds>  (220) 
[1.03, 0.12]

>  <Lig_RMSZ_Angles>  (220) 
[0.7, 0.22]

>  <Lig_Alt_Conf>  (220) 
0.0

>  <Title>  (220) 
Crystal structure of cAMP-dependent protein kinase A (CHO PKA) in complex with isonicotinamidine

>  <Nonpolymer_Entity_Count>  (220) 
5.0

>  <Protein_Entity_Count>  (220) 
1.0

>  <Exp_Method>  (220) 
X-Ray Diffraction

>  <Cryst_Method>  (220) 
Vapor Diffusion, Sitting Drop; 0,2 Mm Pka In 100 Mm Mes-Bis-Tris-Buffer, 1 Mm Dithiothreitol, 0.1 Mm Sodium Edta, 75 Mm Licl, 0.2 Mm Mega 8 And 23 % Methanol (V/V)
0.003 Ml Drop Volume, 0.5 Ml Reservoir Volume

>  <Deposit_Date>  (220) 
2020-07-06

>  <Resolution>  (220) 
1.59

>  <DOI>  (220) 
https://doi.org/10.1002/anie.202011295

>  <Source_Organism>  (220) 
Cricetulus griseus

>  <R_Free>  (220) 
0.1861

>  <Keywords>  (220) 
Transferase

>  <REMARK_280>  (220) 
 Crystal Solvent Content, Vs (%): 43.84 Matthews Coefficient, Vm (Angstroms**3/Da): 2.19 Crystallization Conditions: 0,2 Mm Pka In 100 Mm Mes-Bis-Tris -Buffer, 1 Mm Dithiothreitol, 0.1 Mm Sodium Edta, 75 Mm Licl, 0.2 Mm Mega 8 And 23 % Methanol (V/V) 0.003 Ml Drop Volume, 0.5 Ml Reservoir Volume, pH 6.9, Vapor Diffusion, Sitting Drop, Temperature 277K 

>  <REMARK_610>  (220) 
nan

>  <pH>  (220) 
6.9

>  <Cryst_Technique>  (220) 
soaked

>  <Sequence>  (220) 
GHMGNAAAAKKGSEQESVKEFLAKAKEEFLKKWESPSQNTAQLDHFDRIKTLGTGSFGRVMLVKHKETGNHYAMKILDKQKVVKLKQIEHTLNEKRILQAVNFPFLVKLEFSFKDNSNLYMVMEYVPGGEMFSHLRRIGRFSEPHARFYAAQIVLTFEYLHSLDLIYRDLKPENLLIDQQGYIQVTDFGFAKRVKGRTWTLCGTPEYLAPEIILSKGYNKAVDWWALGVLIYEMAAGYPPFFADQPIQIYEKIVSGKVRFPSHFSSDLKDLLRNLLQVDLTKRFGNLKNGVNDIKNHKWFATTDWIAIYQRKVEAPFIPKFKGPGDTSNFDDYEEEEIRVSINEKCGKEFTEF

>  <Sequence_Length>  (220) 
353.0

>  <Mutation_Count>  (220) 
0.0

>  <Gene_Name>  (220) 
PKACA

>  <MW>  (220) 
41.114

>  <Name>  (220) 
cAMP-Dependent Protein Kinase Catalytic Subunit Alpha

>  <Mutations>  (220) 
nan

>  <EC_Number>  (220) 
2.7.11.11

>  <Peptidic_Inhibitor>  (220) 
False

>  <Lig_Missing_Atoms>  (220) 
['No', 'No']

>  <PDBbind_Resolution>  (220) 
nan

>  <PDBbind_Release_Year>  (220) 
nan

>  <PDBbind_Comment>  (220) 
nan

>  <PDBbind_Uniprot_Id>  (220) 
nan

>  <PDBbind_Protein_Name>  (220) 
nan

>  <PDBbind_-Logkd/Ki>  (220) 
nan

>  <PDBbind_Kd/Ki>  (220) 
nan

>  <PDBbind_Kd_Or_Ki_Or_Ic50>  (220) 
nan

>  <PDBbind_Relation>  (220) 
nan

>  <PDBbind_Value>  (220) 
nan

>  <PDBbind_Unit>  (220) 
nan

>  <PDBbind_Standard_Value>  (220) 
nan

>  <PDBbind_Standard_Unit>  (220) 
nan

>  <PDB_Chain>  (220) 
['A']

>  <Num_Ligs>  (220) 
[2.0]

>  <Orthosteric>  (220) 
[1.0]

>  <Allosteric>  (220) 
[1.0]

>  <Pockets_Assigned>  (220) 
['A, X']

>  <Multisite>  (220) 
[True]

>  <Same_Number>  (220) 
True

>  <Same_Binding_Site>  (220) 
True

>  <Same_Orientation>  (220) 
True

>  <Lig_Order_in_.pdb>  (220) 
Orthosteric, Allosteric

$$$$

     RDKit          2D

 13 14  0  0  0  0  0  0  0  0999 V2000
    0.7500   -3.8971    0.0000 C   0  0  0  0  0  0  0  0  0  0  0  0
    1.5000   -2.5981    0.0000 C   0  0  0  0  0  0  0  0  0  0  0  0
    0.7500   -1.2990    0.0000 C   0  0  0  0  0  0  0  0  0  0  0  0
    1.5000    0.0000    0.0000 C   0  0  0  0  0  0  0  0  0  0  0  0
    0.7500    1.2990    0.0000 N   0  0  0  0  0  0  0  0  0  0  0  0
   -0.7500    1.2990    0.0000 C   0  0  0  0  0  0  0  0  0  0  0  0
   -1.5000    0.0000    0.0000 C   0  0  0  0  0  0  0  0  0  0  0  0
   -0.7500   -1.2990    0.0000 C   0  0  0  0  0  0  0  0  0  0  0  0
   -1.5000   -2.5981    0.0000 C   0  0  0  0  0  0  0  0  0  0  0  0
   -0.7500   -3.8971    0.0000 C   0  0  0  0  0  0  0  0  0  0  0  0
   -3.0000   -2.5981    0.0000 C   0  0  0  0  0  0  0  0  0  0  0  0
   -3.7500   -1.2990    0.0000 O   0  0  0  0  0  0  0  0  0  0  0  0
   -3.7500   -3.8971    0.0000 O   0  0  0  0  0  0  0  0  0  0  0  0
  1  2  2  0
  2  3  1  0
  3  4  2  0
  4  5  1  0
  5  6  2  0
  6  7  1  0
  7  8  2  0
  8  9  1  0
  9 10  2  0
  9 11  1  0
 11 12  2  0
 11 13  1  0
 10  1  1  0
  8  3  1  0
M  END
>  <Structure>  (221) 
7AXT

>  <Dataset>  (221) 
PDB

>  <Chain>  (221) 
A

>  <Spatial_Label>  (221) 
DFGin

>  <Dihedral_Label>  (221) 
BLAminus

>  <C_Helix_Label>  (221) 
Chelix-in

>  <Lig_ID>  (221) 
S9B

>  <Lig_Entity_ID>  (221) 
7AXT_3

>  <Lig_Name>  (221) 
isoquinoline-5-carboxylic acid

>  <Lig_Formula>  (221) 
C10H7NO2

>  <Lig_SMILES>  (221) 
c1cc2cnccc2c(c1)C(=O)O

>  <Lig_MW>  (221) 
173.168

>  <Lig_ChEMBL_ID>  (221) 
nan

>  <Lig_DrugBank_ID>  (221) 
nan

>  <Occurence>  (221) 
1.0

>  <Lig_SMILES_Uncharged>  (221) 
O=C(O)c1cccc2cnccc12

>  <Lig_Conformer>  (221) 
['NaN']

>  <Lig_Of_Interest>  (221) 
['Y']

>  <Lig_Completeness>  (221) 
[1.0]

>  <Lig_Occupancy>  (221) 
[1.0]

>  <Lig_RSCC>  (221) 
[0.948]

>  <Lig_RSR>  (221) 
[0.123]

>  <Lig_RMSZ_Bonds>  (221) 
['NaN']

>  <Lig_RMSZ_Angles>  (221) 
['NaN']

>  <Lig_Alt_Conf>  (221) 
0.0

>  <Title>  (221) 
Crystal structure of the cAMP-dependent protein kinase A cocrystallized with isoquinoline-5-carboxylic acid and PKI (5-24)

>  <Nonpolymer_Entity_Count>  (221) 
1.0

>  <Protein_Entity_Count>  (221) 
2.0

>  <Exp_Method>  (221) 
X-Ray Diffraction

>  <Cryst_Method>  (221) 
Vapor Diffusion, Hanging Drop; 30Mm Mbt, 1Mm Dtt, 0.1Mm Edta, 75Mm Licl, 0.3Mm Mega8, 0.07Mm Pki, 10Mm Of Isoquinoline-5-Carboxylic Acid (Solved In Dmso, 100Mm) And 20% (V/V) Meoh

>  <Deposit_Date>  (221) 
2020-11-10

>  <Resolution>  (221) 
1.86

>  <DOI>  (221) 
nan

>  <Source_Organism>  (221) 
Cricetulus griseus

>  <R_Free>  (221) 
0.2264

>  <Keywords>  (221) 
Transferase

>  <REMARK_280>  (221) 
 Crystal Solvent Content, Vs (%): 56.90 Matthews Coefficient, Vm (Angstroms**3/Da): 2.86 Crystallization Conditions: 30Mm Mbt, 1Mm Dtt, 0.1Mm Edta, 75Mm Licl, 0.3Mm Mega8, 0.07Mm Pki, 10Mm Of Isoquinoline-5-Carboxylic Acid (Solved In Dmso, 100Mm) And 20% (V/V) Meoh, Vapor Diffusion, Hanging Drop, Temperature 277K 

>  <REMARK_610>  (221) 
nan

>  <pH>  (221) 
nan

>  <Cryst_Technique>  (221) 
nan

>  <Sequence>  (221) 
GHMGNAAAAKKGSEQESVKEFLAKAKEEFLKKWESPSQNTAQLDHFDRIKTLGTGSFGRVMLVKHKETGNHYAMKILDKQKVVKLKQIEHTLNEKRILQAVNFPFLVKLEFSFKDNSNLYMVMEYVPGGEMFSHLRRIGRFSEPHARFYAAQIVLTFEYLHSLDLIYRDLKPENLLIDQQGYIQVTDFGFAKRVKGRTWTLCGTPEYLAPEIILSKGYNKAVDWWALGVLIYEMAAGYPPFFADQPIQIYEKIVSGKVRFPSHFSSDLKDLLRNLLQVDLTKRFGNLKNGVNDIKNHKWFATTDWIAIYQRKVEAPFIPKFKGPGDTSNFDDYEEEEIRVSINEKCGKEFTEF

>  <Sequence_Length>  (221) 
353.0

>  <Mutation_Count>  (221) 
0.0

>  <Gene_Name>  (221) 
PKACA

>  <MW>  (221) 
41.114

>  <Name>  (221) 
cAMP-Dependent Protein Kinase Catalytic Subunit Alpha

>  <Mutations>  (221) 
nan

>  <EC_Number>  (221) 
2.7.11.11

>  <Peptidic_Inhibitor>  (221) 
True

>  <Lig_Missing_Atoms>  (221) 
['No']

>  <PDBbind_Resolution>  (221) 
nan

>  <PDBbind_Release_Year>  (221) 
nan

>  <PDBbind_Comment>  (221) 
nan

>  <PDBbind_Uniprot_Id>  (221) 
nan

>  <PDBbind_Protein_Name>  (221) 
nan

>  <PDBbind_-Logkd/Ki>  (221) 
nan

>  <PDBbind_Kd/Ki>  (221) 
nan

>  <PDBbind_Kd_Or_Ki_Or_Ic50>  (221) 
nan

>  <PDBbind_Relation>  (221) 
nan

>  <PDBbind_Value>  (221) 
nan

>  <PDBbind_Unit>  (221) 
nan

>  <PDBbind_Standard_Value>  (221) 
nan

>  <PDBbind_Standard_Unit>  (221) 
nan

>  <PDB_Chain>  (221) 
['A']

>  <Num_Ligs>  (221) 
[1.0]

>  <Orthosteric>  (221) 
[1.0]

>  <Allosteric>  (221) 
[0.0]

>  <Pockets_Assigned>  (221) 
['A']

>  <Multisite>  (221) 
[False]

>  <Same_Number>  (221) 
True

>  <Same_Binding_Site>  (221) 
True

>  <Same_Orientation>  (221) 
True

>  <Lig_Order_in_.pdb>  (221) 
Orthosteric

$$$$

     RDKit          2D

 14 15  0  0  0  0  0  0  0  0999 V2000
    0.7500   -3.8971    0.0000 C   0  0  0  0  0  0  0  0  0  0  0  0
    1.5000   -2.5981    0.0000 C   0  0  0  0  0  0  0  0  0  0  0  0
    0.7500   -1.2990    0.0000 C   0  0  0  0  0  0  0  0  0  0  0  0
    1.5000    0.0000    0.0000 C   0  0  0  0  0  0  0  0  0  0  0  0
    0.7500    1.2990    0.0000 N   0  0  0  0  0  0  0  0  0  0  0  0
   -0.7500    1.2990    0.0000 C   0  0  0  0  0  0  0  0  0  0  0  0
   -1.5000    0.0000    0.0000 C   0  0  0  0  0  0  0  0  0  0  0  0
   -0.7500   -1.2990    0.0000 C   0  0  0  0  0  0  0  0  0  0  0  0
   -1.5000   -2.5981    0.0000 C   0  0  0  0  0  0  0  0  0  0  0  0
   -0.7500   -3.8971    0.0000 C   0  0  0  0  0  0  0  0  0  0  0  0
   -3.0000   -2.5981    0.0000 S   0  0  0  0  0  0  0  0  0  0  0  0
   -3.0000   -4.0981    0.0000 O   0  0  0  0  0  0  0  0  0  0  0  0
   -3.0000   -1.0981    0.0000 O   0  0  0  0  0  0  0  0  0  0  0  0
   -4.5000   -2.5981    0.0000 O   0  0  0  0  0  0  0  0  0  0  0  0
  1  2  2  0
  2  3  1  0
  3  4  2  0
  4  5  1  0
  5  6  2  0
  6  7  1  0
  7  8  2  0
  8  9  1  0
  9 10  2  0
  9 11  1  0
 11 12  2  0
 11 13  2  0
 11 14  1  0
 10  1  1  0
  8  3  1  0
M  END
>  <Structure>  (222) 
7AXV

>  <Dataset>  (222) 
PDB

>  <Chain>  (222) 
A

>  <Spatial_Label>  (222) 
DFGin

>  <Dihedral_Label>  (222) 
BLAminus

>  <C_Helix_Label>  (222) 
Chelix-in

>  <Lig_ID>  (222) 
S95

>  <Lig_Entity_ID>  (222) 
7AXV_3

>  <Lig_Name>  (222) 
isoquinoline-5-sulfonic acid

>  <Lig_Formula>  (222) 
C9H7NO3S

>  <Lig_SMILES>  (222) 
c1cc2cnccc2c(c1)S(=O)(=O)O

>  <Lig_MW>  (222) 
209.222

>  <Lig_ChEMBL_ID>  (222) 
nan

>  <Lig_DrugBank_ID>  (222) 
nan

>  <Occurence>  (222) 
1.0

>  <Lig_SMILES_Uncharged>  (222) 
O=S(=O)(O)c1cccc2cnccc12

>  <Lig_Conformer>  (222) 
['NaN', 'NaN']

>  <Lig_Of_Interest>  (222) 
['Y', 'Y']

>  <Lig_Completeness>  (222) 
[1.0, 1.0]

>  <Lig_Occupancy>  (222) 
[1.0, 1.0]

>  <Lig_RSCC>  (222) 
[0.958, 0.847]

>  <Lig_RSR>  (222) 
[0.105, 0.179]

>  <Lig_RMSZ_Bonds>  (222) 
['NaN', 'NaN']

>  <Lig_RMSZ_Angles>  (222) 
['NaN', 'NaN']

>  <Lig_Alt_Conf>  (222) 
0.0

>  <Title>  (222) 
Crystal structure of the cAMP-dependent protein kinase A cocrystallized with 5-isoquinolinesulfonic acid and PKI (5-24)

>  <Nonpolymer_Entity_Count>  (222) 
3.0

>  <Protein_Entity_Count>  (222) 
2.0

>  <Exp_Method>  (222) 
X-Ray Diffraction

>  <Cryst_Method>  (222) 
Vapor Diffusion, Hanging Drop; 30Mm Mbt, 1Mm Dtt, 0.1Mm Edta, 75Mm Licl, 0.3Mm Mega8, 0.07Mm Pki, 10Mm Of 5-Isoquinolinesulfonic Acid (Solved In Dmso, 100Mm) And 20% (V/V) Meoh

>  <Deposit_Date>  (222) 
2020-11-10

>  <Resolution>  (222) 
1.79

>  <DOI>  (222) 
nan

>  <Source_Organism>  (222) 
Cricetulus griseus

>  <R_Free>  (222) 
0.2314

>  <Keywords>  (222) 
Transferase

>  <REMARK_280>  (222) 
 Crystal Solvent Content, Vs (%): 56.60 Matthews Coefficient, Vm (Angstroms**3/Da): 2.83 Crystallization Conditions: 30Mm Mbt, 1Mm Dtt, 0.1Mm Edta, 75Mm Licl, 0.3Mm Mega8, 0.07Mm Pki, 10Mm Of 5-Isoquinolinesulfonic Acid (Solved In Dmso, 100Mm) And 20% (V/V) Meoh, pH 6.9, Vapor Diffusion, Hanging Drop, Temperature 277K 

>  <REMARK_610>  (222) 
nan

>  <pH>  (222) 
6.9

>  <Cryst_Technique>  (222) 
nan

>  <Sequence>  (222) 
GHMGNAAAAKKGSEQESVKEFLAKAKEEFLKKWESPSQNTAQLDHFDRIKTLGTGSFGRVMLVKHKETGNHYAMKILDKQKVVKLKQIEHTLNEKRILQAVNFPFLVKLEFSFKDNSNLYMVMEYVPGGEMFSHLRRIGRFSEPHARFYAAQIVLTFEYLHSLDLIYRDLKPENLLIDQQGYIQVTDFGFAKRVKGRTWTLCGTPEYLAPEIILSKGYNKAVDWWALGVLIYEMAAGYPPFFADQPIQIYEKIVSGKVRFPSHFSSDLKDLLRNLLQVDLTKRFGNLKNGVNDIKNHKWFATTDWIAIYQRKVEAPFIPKFKGPGDTSNFDDYEEEEIRVSINEKCGKEFTEF

>  <Sequence_Length>  (222) 
353.0

>  <Mutation_Count>  (222) 
0.0

>  <Gene_Name>  (222) 
PKACA

>  <MW>  (222) 
41.114

>  <Name>  (222) 
cAMP-Dependent Protein Kinase Catalytic Subunit Alpha

>  <Mutations>  (222) 
nan

>  <EC_Number>  (222) 
2.7.11.11

>  <Peptidic_Inhibitor>  (222) 
True

>  <Lig_Missing_Atoms>  (222) 
['No', 'No']

>  <PDBbind_Resolution>  (222) 
nan

>  <PDBbind_Release_Year>  (222) 
nan

>  <PDBbind_Comment>  (222) 
nan

>  <PDBbind_Uniprot_Id>  (222) 
nan

>  <PDBbind_Protein_Name>  (222) 
nan

>  <PDBbind_-Logkd/Ki>  (222) 
nan

>  <PDBbind_Kd/Ki>  (222) 
nan

>  <PDBbind_Kd_Or_Ki_Or_Ic50>  (222) 
nan

>  <PDBbind_Relation>  (222) 
nan

>  <PDBbind_Value>  (222) 
nan

>  <PDBbind_Unit>  (222) 
nan

>  <PDBbind_Standard_Value>  (222) 
nan

>  <PDBbind_Standard_Unit>  (222) 
nan

>  <PDB_Chain>  (222) 
['A']

>  <Num_Ligs>  (222) 
[2.0]

>  <Orthosteric>  (222) 
[1.0]

>  <Allosteric>  (222) 
[1.0]

>  <Pockets_Assigned>  (222) 
['X, A']

>  <Multisite>  (222) 
[True]

>  <Same_Number>  (222) 
True

>  <Same_Binding_Site>  (222) 
True

>  <Same_Orientation>  (222) 
True

>  <Lig_Order_in_.pdb>  (222) 
Allosteric, Orthosteric

$$$$

     RDKit          2D

 11 12  0  0  0  0  0  0  0  0999 V2000
    1.5000    0.0000    0.0000 C   0  0  0  0  0  0  0  0  0  0  0  0
    0.7500   -1.2990    0.0000 C   0  0  0  0  0  0  0  0  0  0  0  0
   -0.7500   -1.2990    0.0000 C   0  0  0  0  0  0  0  0  0  0  0  0
   -1.5000    0.0000    0.0000 C   0  0  0  0  0  0  0  0  0  0  0  0
   -0.7500    1.2990    0.0000 C   0  0  0  0  0  0  0  0  0  0  0  0
    0.7500    1.2990    0.0000 C   0  0  0  0  0  0  0  0  0  0  0  0
   -1.5000    2.5981    0.0000 C   0  0  0  0  0  0  0  0  0  0  0  0
   -3.0000    2.5981    0.0000 C   0  0  0  0  0  0  0  0  0  0  0  0
   -3.7500    1.2990    0.0000 N   0  0  0  0  0  0  0  0  0  0  0  0
   -3.0000    0.0000    0.0000 C   0  0  0  0  0  0  0  0  0  0  0  0
   -3.7500   -1.2990    0.0000 N   0  0  0  0  0  0  0  0  0  0  0  0
  1  2  2  0
  2  3  1  0
  3  4  2  0
  4  5  1  0
  5  6  2  0
  5  7  1  0
  7  8  2  0
  8  9  1  0
  9 10  2  0
 10 11  1  0
  6  1  1  0
 10  4  1  0
M  END
>  <Structure>  (223) 
7AXW

>  <Dataset>  (223) 
PDB

>  <Chain>  (223) 
A

>  <Spatial_Label>  (223) 
DFGin

>  <Dihedral_Label>  (223) 
ABAminus

>  <C_Helix_Label>  (223) 
Chelix-in

>  <Lig_ID>  (223) 
1SQ

>  <Lig_Entity_ID>  (223) 
7AXW_3

>  <Lig_Name>  (223) 
ISOQUINOLIN-1-AMINE

>  <Lig_Formula>  (223) 
C9H8N2

>  <Lig_SMILES>  (223) 
c1ccc2c(c1)ccnc2N

>  <Lig_MW>  (223) 
144.173

>  <Lig_ChEMBL_ID>  (223) 
['CHEMBL62083']

>  <Lig_DrugBank_ID>  (223) 
nan

>  <Occurence>  (223) 
1.0

>  <Lig_SMILES_Uncharged>  (223) 
Nc1nccc2ccccc12

>  <Lig_Conformer>  (223) 
['NaN']

>  <Lig_Of_Interest>  (223) 
['Y']

>  <Lig_Completeness>  (223) 
[1.0]

>  <Lig_Occupancy>  (223) 
[1.0]

>  <Lig_RSCC>  (223) 
[0.956]

>  <Lig_RSR>  (223) 
[0.078]

>  <Lig_RMSZ_Bonds>  (223) 
['NaN']

>  <Lig_RMSZ_Angles>  (223) 
['NaN']

>  <Lig_Alt_Conf>  (223) 
0.0

>  <Title>  (223) 
Crystal structure of the cAMP-dependent protein kinase A cocrystallized with 1-aminoisoquinoline and PKI (5-24)

>  <Nonpolymer_Entity_Count>  (223) 
1.0

>  <Protein_Entity_Count>  (223) 
2.0

>  <Exp_Method>  (223) 
X-Ray Diffraction

>  <Cryst_Method>  (223) 
Vapor Diffusion, Hanging Drop; 30Mm Mbt, 1Mm Dtt, 0.1Mm Edta, 75Mm Licl, 0.3Mm Mega8, 0.07Mm Pki, 10Mm Of 1-Aminoisoquinoline (Solved In Dmso, 100Mm) And 20% (V/V) Meoh

>  <Deposit_Date>  (223) 
2020-11-10

>  <Resolution>  (223) 
1.69

>  <DOI>  (223) 
nan

>  <Source_Organism>  (223) 
Cricetulus griseus

>  <R_Free>  (223) 
0.2193

>  <Keywords>  (223) 
Transferase

>  <REMARK_280>  (223) 
 Crystal Solvent Content, Vs (%): 55.60 Matthews Coefficient, Vm (Angstroms**3/Da): 2.77 Crystallization Conditions: 30Mm Mbt, 1Mm Dtt, 0.1Mm Edta, 75Mm Licl, 0.3Mm Mega8, 0.07Mm Pki, 10Mm Of 1-Aminoisoquinoline (Solved In Dmso, 100Mm) And 20% (V/V) Meoh, pH 6.9, Vapor Diffusion, Hanging Drop, Temperature 277K 

>  <REMARK_610>  (223) 
nan

>  <pH>  (223) 
6.9

>  <Cryst_Technique>  (223) 
nan

>  <Sequence>  (223) 
GHMGNAAAAKKGSEQESVKEFLAKAKEEFLKKWESPSQNTAQLDHFDRIKTLGTGSFGRVMLVKHKETGNHYAMKILDKQKVVKLKQIEHTLNEKRILQAVNFPFLVKLEFSFKDNSNLYMVMEYVPGGEMFSHLRRIGRFSEPHARFYAAQIVLTFEYLHSLDLIYRDLKPENLLIDQQGYIQVTDFGFAKRVKGRTWTLCGTPEYLAPEIILSKGYNKAVDWWALGVLIYEMAAGYPPFFADQPIQIYEKIVSGKVRFPSHFSSDLKDLLRNLLQVDLTKRFGNLKNGVNDIKNHKWFATTDWIAIYQRKVEAPFIPKFKGPGDTSNFDDYEEEEIRVSINEKCGKEFTEF

>  <Sequence_Length>  (223) 
353.0

>  <Mutation_Count>  (223) 
0.0

>  <Gene_Name>  (223) 
PKACA

>  <MW>  (223) 
41.114

>  <Name>  (223) 
cAMP-Dependent Protein Kinase Catalytic Subunit Alpha

>  <Mutations>  (223) 
nan

>  <EC_Number>  (223) 
2.7.11.11

>  <Peptidic_Inhibitor>  (223) 
True

>  <Lig_Missing_Atoms>  (223) 
['No']

>  <PDBbind_Resolution>  (223) 
nan

>  <PDBbind_Release_Year>  (223) 
nan

>  <PDBbind_Comment>  (223) 
nan

>  <PDBbind_Uniprot_Id>  (223) 
nan

>  <PDBbind_Protein_Name>  (223) 
nan

>  <PDBbind_-Logkd/Ki>  (223) 
nan

>  <PDBbind_Kd/Ki>  (223) 
nan

>  <PDBbind_Kd_Or_Ki_Or_Ic50>  (223) 
nan

>  <PDBbind_Relation>  (223) 
nan

>  <PDBbind_Value>  (223) 
nan

>  <PDBbind_Unit>  (223) 
nan

>  <PDBbind_Standard_Value>  (223) 
nan

>  <PDBbind_Standard_Unit>  (223) 
nan

>  <PDB_Chain>  (223) 
['A']

>  <Num_Ligs>  (223) 
[1.0]

>  <Orthosteric>  (223) 
[1.0]

>  <Allosteric>  (223) 
[0.0]

>  <Pockets_Assigned>  (223) 
['A']

>  <Multisite>  (223) 
[False]

>  <Same_Number>  (223) 
True

>  <Same_Binding_Site>  (223) 
True

>  <Same_Orientation>  (223) 
True

>  <Lig_Order_in_.pdb>  (223) 
Orthosteric

$$$$

     RDKit          2D

 23 24  0  0  0  0  0  0  0  0999 V2000
    1.5000    0.0000    0.0000 C   0  0  0  0  0  0  0  0  0  0  0  0
    0.7500   -1.2990    0.0000 C   0  0  0  0  0  0  0  0  0  0  0  0
   -0.7500   -1.2990    0.0000 C   0  0  0  0  0  0  0  0  0  0  0  0
   -1.5000    0.0000    0.0000 C   0  0  0  0  0  0  0  0  0  0  0  0
   -0.7500    1.2990    0.0000 C   0  0  0  0  0  0  0  0  0  0  0  0
    0.7500    1.2990    0.0000 C   0  0  0  0  0  0  0  0  0  0  0  0
   -1.5000    2.5981    0.0000 Cl  0  0  0  0  0  0  0  0  0  0  0  0
   -1.5000   -2.5981    0.0000 C   0  0  0  0  0  0  0  0  0  0  0  0
   -3.0000   -2.5981    0.0000 C   0  0  0  0  0  0  0  0  0  0  0  0
   -3.7500   -3.8971    0.0000 N   0  0  0  0  0  0  0  0  0  0  0  0
   -0.7500   -3.8971    0.0000 C   0  0  0  0  0  0  0  0  0  0  0  0
    0.7500   -3.8971    0.0000 O   0  0  0  0  0  0  0  0  0  0  0  0
   -1.5000   -5.1962    0.0000 N   0  0  0  0  0  0  0  0  0  0  0  0
   -0.7500   -6.4952    0.0000 N   0  0  0  0  0  0  0  0  0  0  0  0
   -1.5000   -7.7942    0.0000 C   0  0  0  0  0  0  0  0  0  0  0  0
   -0.7500   -9.0933    0.0000 C   0  0  0  0  0  0  0  0  0  0  0  0
   -1.5000  -10.3923    0.0000 C   0  0  0  0  0  0  0  0  0  0  0  0
   -0.7500  -11.6913    0.0000 C   0  0  0  0  0  0  0  0  0  0  0  0
    0.7500  -11.6913    0.0000 C   0  0  0  0  0  0  0  0  0  0  0  0
    1.5000  -10.3923    0.0000 C   0  0  0  0  0  0  0  0  0  0  0  0
    0.7500   -9.0933    0.0000 C   0  0  0  0  0  0  0  0  0  0  0  0
    3.0000  -10.3923    0.0000 Br  0  0  0  0  0  0  0  0  0  0  0  0
    1.5000  -12.9904    0.0000 O   0  0  0  0  0  0  0  0  0  0  0  0
  1  2  2  0
  2  3  1  0
  3  4  2  0
  4  5  1  0
  5  6  2  0
  5  7  1  0
  3  8  1  0
  8  9  1  6
  9 10  1  0
  8 11  1  0
 11 12  2  0
 11 13  1  0
 13 14  1  0
 14 15  2  0
 15 16  1  0
 16 17  2  0
 17 18  1  0
 18 19  2  0
 19 20  1  0
 20 21  2  0
 20 22  1  0
 19 23  1  0
  6  1  1  0
 21 16  1  0
M  END
>  <Structure>  (224) 
7BAQ

>  <Dataset>  (224) 
PDB

>  <Chain>  (224) 
A

>  <Spatial_Label>  (224) 
DFGin

>  <Dihedral_Label>  (224) 
ABAminus

>  <C_Helix_Label>  (224) 
Chelix-in

>  <Lig_ID>  (224) 
T82

>  <Lig_Entity_ID>  (224) 
7BAQ_3

>  <Lig_Name>  (224) 
(S,E)-3-(2-(3-bromo-4-hydroxybenzylidene)hydrazineyl)-2-(3-chlorophenyl)-3-oxopropan-1-aminium

>  <Lig_Formula>  (224) 
C16H15BrClN3O2

>  <Lig_SMILES>  (224) 
c1cc(cc(c1)Cl)[C@@H](CN)C(=O)N/N=C/c2ccc(c(c2)Br)O

>  <Lig_MW>  (224) 
396.666

>  <Lig_ChEMBL_ID>  (224) 
nan

>  <Lig_DrugBank_ID>  (224) 
nan

>  <Occurence>  (224) 
2.0

>  <Lig_SMILES_Uncharged>  (224) 
NC[C@@H](C(=O)N/N=C/c1ccc(O)c(Br)c1)c1cccc(Cl)c1

>  <Lig_Conformer>  (224) 
['NaN']

>  <Lig_Of_Interest>  (224) 
['Y']

>  <Lig_Completeness>  (224) 
[1.0]

>  <Lig_Occupancy>  (224) 
[1.0]

>  <Lig_RSCC>  (224) 
[0.981]

>  <Lig_RSR>  (224) 
[0.089]

>  <Lig_RMSZ_Bonds>  (224) 
[0.34]

>  <Lig_RMSZ_Angles>  (224) 
[0.62]

>  <Lig_Alt_Conf>  (224) 
0.0

>  <Title>  (224) 
Crystal structure of the cAMP-dependent protein kinase A cocrystallized with a chiral ligand (S- and E-configuration) and PKI (5-24)

>  <Nonpolymer_Entity_Count>  (224) 
1.0

>  <Protein_Entity_Count>  (224) 
2.0

>  <Exp_Method>  (224) 
X-Ray Diffraction

>  <Cryst_Method>  (224) 
Vapor Diffusion, Sitting Drop; 0.2 Mm Pka In 100 Mm Mes-Bis-Tris-Buffer, 1 Mm Dithiothreitol, 0.1 Mm Sodium Edta, 75 Mm Licl, 0.2 Mm Mega 8, 0.5 Mm Pki And 18-23 % Methanol (V/V) 0.003 Ml Drop Volume, 0.5 Ml Reservoir Volume

>  <Deposit_Date>  (224) 
2020-12-16

>  <Resolution>  (224) 
1.54

>  <DOI>  (224) 
nan

>  <Source_Organism>  (224) 
Cricetulus griseus

>  <R_Free>  (224) 
0.2204

>  <Keywords>  (224) 
Transferase

>  <REMARK_280>  (224) 
 Crystal Solvent Content, Vs (%): 48.60 Matthews Coefficient, Vm (Angstroms**3/Da): 2.39 Crystallization Conditions: 0.2 Mm Pka In 100 Mm Mes-Bis-Tris -Buffer, 1 Mm Dithiothreitol, 0.1 Mm Sodium Edta, 75 Mm Licl, 0.2 Mm Mega 8, 0.5 Mm Pki And 18-23 % Methanol (V/V) 0.003 Ml Drop Volume, 0.5 Ml Reservoir Volume, pH 7.0, Vapor Diffusion, Sitting Drop, Temperature 277K 

>  <REMARK_610>  (224) 
nan

>  <pH>  (224) 
7.0

>  <Cryst_Technique>  (224) 
nan

>  <Sequence>  (224) 
GHMGNAAAAKKGSEQESVKEFLAKAKEEFLKKWESPSQNTAQLDHFDRIKTLGTGSFGRVMLVKHKETGNHYAMKILDKQKVVKLKQIEHTLNEKRILQAVNFPFLVKLEFSFKDNSNLYMVMEYVPGGEMFSHLRRIGRFSEPHARFYAAQIVLTFEYLHSLDLIYRDLKPENLLIDQQGYIQVTDFGFAKRVKGRTWTLCGTPEYLAPEIILSKGYNKAVDWWALGVLIYEMAAGYPPFFADQPIQIYEKIVSGKVRFPSHFSSDLKDLLRNLLQVDLTKRFGNLKNGVNDIKNHKWFATTDWIAIYQRKVEAPFIPKFKGPGDTSNFDDYEEEEIRVSINEKCGKEFTEF

>  <Sequence_Length>  (224) 
353.0

>  <Mutation_Count>  (224) 
0.0

>  <Gene_Name>  (224) 
PKACA

>  <MW>  (224) 
41.034

>  <Name>  (224) 
cAMP-Dependent Protein Kinase Catalytic Subunit Alpha

>  <Mutations>  (224) 
nan

>  <EC_Number>  (224) 
2.7.11.11

>  <Peptidic_Inhibitor>  (224) 
True

>  <Lig_Missing_Atoms>  (224) 
['No']

>  <PDBbind_Resolution>  (224) 
nan

>  <PDBbind_Release_Year>  (224) 
nan

>  <PDBbind_Comment>  (224) 
nan

>  <PDBbind_Uniprot_Id>  (224) 
nan

>  <PDBbind_Protein_Name>  (224) 
nan

>  <PDBbind_-Logkd/Ki>  (224) 
nan

>  <PDBbind_Kd/Ki>  (224) 
nan

>  <PDBbind_Kd_Or_Ki_Or_Ic50>  (224) 
nan

>  <PDBbind_Relation>  (224) 
nan

>  <PDBbind_Value>  (224) 
nan

>  <PDBbind_Unit>  (224) 
nan

>  <PDBbind_Standard_Value>  (224) 
nan

>  <PDBbind_Standard_Unit>  (224) 
nan

>  <PDB_Chain>  (224) 
['A']

>  <Num_Ligs>  (224) 
[1.0]

>  <Orthosteric>  (224) 
[1.0]

>  <Allosteric>  (224) 
[0.0]

>  <Pockets_Assigned>  (224) 
['A']

>  <Multisite>  (224) 
[False]

>  <Same_Number>  (224) 
True

>  <Same_Binding_Site>  (224) 
True

>  <Same_Orientation>  (224) 
True

>  <Lig_Order_in_.pdb>  (224) 
Orthosteric

$$$$

     RDKit          2D

 23 24  0  0  0  0  0  0  0  0999 V2000
    1.5000    0.0000    0.0000 C   0  0  0  0  0  0  0  0  0  0  0  0
    0.7500   -1.2990    0.0000 C   0  0  0  0  0  0  0  0  0  0  0  0
   -0.7500   -1.2990    0.0000 C   0  0  0  0  0  0  0  0  0  0  0  0
   -1.5000    0.0000    0.0000 C   0  0  0  0  0  0  0  0  0  0  0  0
   -0.7500    1.2990    0.0000 C   0  0  0  0  0  0  0  0  0  0  0  0
    0.7500    1.2990    0.0000 C   0  0  0  0  0  0  0  0  0  0  0  0
   -1.5000    2.5981    0.0000 Cl  0  0  0  0  0  0  0  0  0  0  0  0
   -1.5000   -2.5981    0.0000 C   0  0  0  0  0  0  0  0  0  0  0  0
   -3.0000   -2.5981    0.0000 C   0  0  0  0  0  0  0  0  0  0  0  0
   -3.7500   -3.8971    0.0000 N   0  0  0  0  0  0  0  0  0  0  0  0
   -0.7500   -3.8971    0.0000 C   0  0  0  0  0  0  0  0  0  0  0  0
    0.7500   -3.8971    0.0000 O   0  0  0  0  0  0  0  0  0  0  0  0
   -1.5000   -5.1962    0.0000 N   0  0  0  0  0  0  0  0  0  0  0  0
   -0.7500   -6.4952    0.0000 N   0  0  0  0  0  0  0  0  0  0  0  0
   -1.5000   -7.7942    0.0000 C   0  0  0  0  0  0  0  0  0  0  0  0
   -0.7500   -9.0933    0.0000 C   0  0  0  0  0  0  0  0  0  0  0  0
   -1.5000  -10.3923    0.0000 C   0  0  0  0  0  0  0  0  0  0  0  0
   -0.7500  -11.6913    0.0000 C   0  0  0  0  0  0  0  0  0  0  0  0
    0.7500  -11.6913    0.0000 C   0  0  0  0  0  0  0  0  0  0  0  0
    1.5000  -10.3923    0.0000 C   0  0  0  0  0  0  0  0  0  0  0  0
    0.7500   -9.0933    0.0000 C   0  0  0  0  0  0  0  0  0  0  0  0
    3.0000  -10.3923    0.0000 Br  0  0  0  0  0  0  0  0  0  0  0  0
    1.5000  -12.9904    0.0000 O   0  0  0  0  0  0  0  0  0  0  0  0
  1  2  2  0
  2  3  1  0
  3  4  2  0
  4  5  1  0
  5  6  2  0
  5  7  1  0
  3  8  1  0
  8  9  1  6
  9 10  1  0
  8 11  1  0
 11 12  2  0
 11 13  1  0
 13 14  1  0
 14 15  2  0
 15 16  1  0
 16 17  2  0
 17 18  1  0
 18 19  2  0
 19 20  1  0
 20 21  2  0
 20 22  1  0
 19 23  1  0
  6  1  1  0
 21 16  1  0
M  END
>  <Structure>  (225) 
7BAR

>  <Dataset>  (225) 
PDB

>  <Chain>  (225) 
A

>  <Spatial_Label>  (225) 
DFGin

>  <Dihedral_Label>  (225) 
BLAminus

>  <C_Helix_Label>  (225) 
Chelix-in

>  <Lig_ID>  (225) 
T82

>  <Lig_Entity_ID>  (225) 
7BAR_2

>  <Lig_Name>  (225) 
(S,E)-3-(2-(3-bromo-4-hydroxybenzylidene)hydrazineyl)-2-(3-chlorophenyl)-3-oxopropan-1-aminium

>  <Lig_Formula>  (225) 
C16H15BrClN3O2

>  <Lig_SMILES>  (225) 
c1cc(cc(c1)Cl)[C@@H](CN)C(=O)N/N=C/c2ccc(c(c2)Br)O

>  <Lig_MW>  (225) 
396.666

>  <Lig_ChEMBL_ID>  (225) 
nan

>  <Lig_DrugBank_ID>  (225) 
nan

>  <Occurence>  (225) 
2.0

>  <Lig_SMILES_Uncharged>  (225) 
NC[C@@H](C(=O)N/N=C/c1ccc(O)c(Br)c1)c1cccc(Cl)c1

>  <Lig_Conformer>  (225) 
['A', 'B']

>  <Lig_Of_Interest>  (225) 
['Y', 'Y']

>  <Lig_Completeness>  (225) 
[1.0, 1.0]

>  <Lig_Occupancy>  (225) 
[0.41, 0.59]

>  <Lig_RSCC>  (225) 
[0.986, 0.986]

>  <Lig_RSR>  (225) 
[0.107, 0.107]

>  <Lig_RMSZ_Bonds>  (225) 
[0.2, 0.22]

>  <Lig_RMSZ_Angles>  (225) 
[0.46, 0.45]

>  <Lig_Alt_Conf>  (225) 
2.0

>  <Title>  (225) 
Crystal structure of the cAMP-dependent protein kinase A with a chiral ligand (S- and E-configuration, soaked)

>  <Nonpolymer_Entity_Count>  (225) 
1.0

>  <Protein_Entity_Count>  (225) 
1.0

>  <Exp_Method>  (225) 
X-Ray Diffraction

>  <Cryst_Method>  (225) 
Vapor Diffusion, Sitting Drop; 0.2 Mm Pka In 100 Mm Mes-Bis-Tris-Buffer, 1 Mm Dithiothreitol, 0.1 Mm Sodium Edta, 75 Mm Licl, 0.2 Mm Mega 8 And 23 % Methanol (V/V) 0.003 Ml Drop Volume, 0.5 Ml Reservoir Volume

>  <Deposit_Date>  (225) 
2020-12-16

>  <Resolution>  (225) 
1.37

>  <DOI>  (225) 
nan

>  <Source_Organism>  (225) 
Cricetulus griseus

>  <R_Free>  (225) 
0.1789

>  <Keywords>  (225) 
Transferase

>  <REMARK_280>  (225) 
 Crystal Solvent Content, Vs (%): 44.20 Matthews Coefficient, Vm (Angstroms**3/Da): 2.20 Crystallization Conditions: 0.2 Mm Pka In 100 Mm Mes-Bis-Tris -Buffer, 1 Mm Dithiothreitol, 0.1 Mm Sodium Edta, 75 Mm Licl, 0.2 Mm Mega 8 And 23 % Methanol (V/V) 0.003 Ml Drop Volume, 0.5 Ml Reservoir Volume, pH 7.0, Vapor Diffusion, Sitting Drop, Temperature 277K 

>  <REMARK_610>  (225) 
nan

>  <pH>  (225) 
7.0

>  <Cryst_Technique>  (225) 
nan

>  <Sequence>  (225) 
GHMGNAAAAKKGSEQESVKEFLAKAKEEFLKKWESPSQNTAQLDHFDRIKTLGTGSFGRVMLVKHKETGNHYAMKILDKQKVVKLKQIEHTLNEKRILQAVNFPFLVKLEFSFKDNSNLYMVMEYVPGGEMFSHLRRIGRFSEPHARFYAAQIVLTFEYLHSLDLIYRDLKPENLLIDQQGYIQVTDFGFAKRVKGRTWTLCGTPEYLAPEIILSKGYNKAVDWWALGVLIYEMAAGYPPFFADQPIQIYEKIVSGKVRFPSHFSSDLKDLLRNLLQVDLTKRFGNLKNGVNDIKNHKWFATTDWIAIYQRKVEAPFIPKFKGPGDTSNFDDYEEEEIRVSINEKCGKEFTEF

>  <Sequence_Length>  (225) 
353.0

>  <Mutation_Count>  (225) 
0.0

>  <Gene_Name>  (225) 
PKACA

>  <MW>  (225) 
41.114

>  <Name>  (225) 
cAMP-Dependent Protein Kinase Catalytic Subunit Alpha

>  <Mutations>  (225) 
nan

>  <EC_Number>  (225) 
2.7.11.11

>  <Peptidic_Inhibitor>  (225) 
False

>  <Lig_Missing_Atoms>  (225) 
['No', 'No']

>  <PDBbind_Resolution>  (225) 
nan

>  <PDBbind_Release_Year>  (225) 
nan

>  <PDBbind_Comment>  (225) 
nan

>  <PDBbind_Uniprot_Id>  (225) 
nan

>  <PDBbind_Protein_Name>  (225) 
nan

>  <PDBbind_-Logkd/Ki>  (225) 
nan

>  <PDBbind_Kd/Ki>  (225) 
nan

>  <PDBbind_Kd_Or_Ki_Or_Ic50>  (225) 
nan

>  <PDBbind_Relation>  (225) 
nan

>  <PDBbind_Value>  (225) 
nan

>  <PDBbind_Unit>  (225) 
nan

>  <PDBbind_Standard_Value>  (225) 
nan

>  <PDBbind_Standard_Unit>  (225) 
nan

>  <PDB_Chain>  (225) 
['A']

>  <Num_Ligs>  (225) 
[1.0]

>  <Orthosteric>  (225) 
[1.0]

>  <Allosteric>  (225) 
[0.0]

>  <Pockets_Assigned>  (225) 
['A']

>  <Multisite>  (225) 
[False]

>  <Same_Number>  (225) 
True

>  <Same_Binding_Site>  (225) 
True

>  <Same_Orientation>  (225) 
True

>  <Lig_Order_in_.pdb>  (225) 
Orthosteric

$$$$

     RDKit          2D

 30 33  0  0  0  0  0  0  0  0999 V2000
   -4.4875    5.8795    0.0000 C   0  0  0  0  0  0  0  0  0  0  0  0
   -5.4912    4.7648    0.0000 C   0  0  0  0  0  0  0  0  0  0  0  0
   -6.4949    3.6501    0.0000 C   0  0  0  0  0  0  0  0  0  0  0  0
   -4.3764    3.7611    0.0000 C   0  0  0  0  0  0  0  0  0  0  0  0
   -2.9499    4.2246    0.0000 C   0  0  0  0  0  0  0  0  0  0  0  0
   -2.6380    5.6918    0.0000 O   0  0  0  0  0  0  0  0  0  0  0  0
   -1.8351    3.2209    0.0000 N   0  0  0  0  0  0  0  0  0  0  0  0
   -2.1470    1.7537    0.0000 C   0  0  0  0  0  0  0  0  0  0  0  0
   -1.0323    0.7500    0.0000 C   0  0  0  0  0  0  0  0  0  0  0  0
    0.3943    1.2135    0.0000 C   0  0  0  0  0  0  0  0  0  0  0  0
    1.2760    0.0000    0.0000 N   0  0  0  0  0  0  0  0  0  0  0  0
    0.3943   -1.2135    0.0000 C   0  0  0  0  0  0  0  0  0  0  0  0
   -1.0323   -0.7500    0.0000 N   0  0  0  0  0  0  0  0  0  0  0  0
    0.7062    2.6807    0.0000 C   0  0  0  0  0  0  0  0  0  0  0  0
   -0.4086    3.6844    0.0000 C   0  0  0  0  0  0  0  0  0  0  0  0
   -0.0967    5.1517    0.0000 C   0  0  0  0  0  0  0  0  0  0  0  0
   -1.1004    6.2664    0.0000 N   0  0  0  0  0  0  0  0  0  0  0  0
   -0.3504    7.5654    0.0000 C   0  0  0  0  0  0  0  0  0  0  0  0
    1.1168    7.2536    0.0000 N   0  0  0  0  0  0  0  0  0  0  0  0
    1.2736    5.7618    0.0000 O   0  0  0  0  0  0  0  0  0  0  0  0
   -0.9605    8.9357    0.0000 C   0  0  0  0  0  0  0  0  0  0  0  0
   -0.0788   10.1493    0.0000 C   0  0  0  0  0  0  0  0  0  0  0  0
   -0.6889   11.5196    0.0000 C   0  0  0  0  0  0  0  0  0  0  0  0
   -2.1807   11.6764    0.0000 N   0  0  0  0  0  0  0  0  0  0  0  0
   -3.0624   10.4628    0.0000 C   0  0  0  0  0  0  0  0  0  0  0  0
   -2.4523    9.0925    0.0000 C   0  0  0  0  0  0  0  0  0  0  0  0
   -6.6059    5.7685    0.0000 C   0  0  0  0  0  0  0  0  0  0  0  0
   -6.2940    7.2357    0.0000 C   0  0  0  0  0  0  0  0  0  0  0  0
   -4.8674    7.6992    0.0000 O   0  0  0  0  0  0  0  0  0  0  0  0
   -7.4087    8.2394    0.0000 O   0  0  0  0  0  0  0  0  0  0  0  0
  1  2  1  0
  2  3  1  0
  2  4  1  0
  4  5  1  0
  5  6  2  0
  5  7  1  0
  7  8  1  0
  8  9  1  0
  9 10  2  0
 10 11  1  0
 11 12  1  0
 12 13  2  0
 10 14  1  0
 14 15  1  0
 15 16  1  1
 16 17  2  0
 17 18  1  0
 18 19  2  0
 19 20  1  0
 18 21  1  0
 21 22  2  0
 22 23  1  0
 23 24  2  0
 24 25  1  0
 25 26  2  0
  2 27  1  0
 27 28  1  0
 28 29  2  0
 28 30  1  0
 15  7  1  0
 13  9  1  0
 20 16  1  0
 26 21  1  0
M  END
>  <Structure>  (226) 
7BB0

>  <Dataset>  (226) 
PDB

>  <Chain>  (226) 
A

>  <Spatial_Label>  (226) 
DFGin

>  <Dihedral_Label>  (226) 
BLAminus

>  <C_Helix_Label>  (226) 
Chelix-in

>  <Lig_ID>  (226) 
T7W

>  <Lig_Entity_ID>  (226) 
7BB0_3

>  <Lig_Name>  (226) 
(R)-3,3-dimethyl-5-oxo-5-(6-(3-(pyridin-4-yl)-1,2,4-oxadiazol-5-yl)-1,4,6,7-tetrahydro-5H-imidazo[4,5-c]pyridin-5-yl)pentanoic acid

>  <Lig_Formula>  (226) 
C20H22N6O4

>  <Lig_SMILES>  (226) 
CC(C)(CC(=O)N1Cc2c([nH]cn2)C[C@@H]1c3nc(no3)c4ccncc4)CC(=O)O

>  <Lig_MW>  (226) 
410.426

>  <Lig_ChEMBL_ID>  (226) 
nan

>  <Lig_DrugBank_ID>  (226) 
nan

>  <Occurence>  (226) 
1.0

>  <Lig_SMILES_Uncharged>  (226) 
CC(C)(CC(=O)O)CC(=O)N1Cc2nc[nH]c2C[C@@H]1c1nc(-c2ccncc2)no1

>  <Lig_Conformer>  (226) 
['NaN']

>  <Lig_Of_Interest>  (226) 
['Y']

>  <Lig_Completeness>  (226) 
[1.0]

>  <Lig_Occupancy>  (226) 
[1.0]

>  <Lig_RSCC>  (226) 
[0.944]

>  <Lig_RSR>  (226) 
[0.104]

>  <Lig_RMSZ_Bonds>  (226) 
[0.95]

>  <Lig_RMSZ_Angles>  (226) 
[1.04]

>  <Lig_Alt_Conf>  (226) 
0.0

>  <Title>  (226) 
Crystal structure of the cAMP-dependent protein kinase A cocrystallized with NAT22-366511 and PKI (5-24)

>  <Nonpolymer_Entity_Count>  (226) 
1.0

>  <Protein_Entity_Count>  (226) 
2.0

>  <Exp_Method>  (226) 
X-Ray Diffraction

>  <Cryst_Method>  (226) 
Vapor Diffusion, Sitting Drop; 0.2 Mm Pka In 30 Mm Mes-Bis-Tris-Buffer, 1 Mm Dithiothreitol, 0.1 Mm Sodium Edta, 75 Mm Licl, 0.2 Mm Mega 8, 0.5 Mm Pki And 18-23 % Methanol (V/V) 0.003 Ml Drop Volume, 0.5 Ml Reservoir Volume

>  <Deposit_Date>  (226) 
2020-12-16

>  <Resolution>  (226) 
1.75

>  <DOI>  (226) 
nan

>  <Source_Organism>  (226) 
Cricetulus griseus

>  <R_Free>  (226) 
0.2347

>  <Keywords>  (226) 
Transferase

>  <REMARK_280>  (226) 
 Crystal Solvent Content, Vs (%): 57.76 Matthews Coefficient, Vm (Angstroms**3/Da): 2.91 Crystallization Conditions: 0.2 Mm Pka In 30 Mm Mes-Bis-Tris -Buffer, 1 Mm Dithiothreitol, 0.1 Mm Sodium Edta, 75 Mm Licl, 0.2 Mm Mega 8, 0.5 Mm Pki And 18-23 % Methanol (V/V) 0.003 Ml Drop Volume, 0.5 Ml Reservoir Volume, pH 7.0, Vapor Diffusion, Sitting Drop, Temperature 277K 

>  <REMARK_610>  (226) 
nan

>  <pH>  (226) 
7.0

>  <Cryst_Technique>  (226) 
nan

>  <Sequence>  (226) 
GHMGNAAAAKKGSEQESVKEFLAKAKEEFLKKWESPSQNTAQLDHFDRIKTLGTGSFGRVMLVKHKETGNHYAMKILDKQKVVKLKQIEHTLNEKRILQAVNFPFLVKLEFSFKDNSNLYMVMEYVPGGEMFSHLRRIGRFSEPHARFYAAQIVLTFEYLHSLDLIYRDLKPENLLIDQQGYIQVTDFGFAKRVKGRTWTLCGTPEYLAPEIILSKGYNKAVDWWALGVLIYEMAAGYPPFFADQPIQIYEKIVSGKVRFPSHFSSDLKDLLRNLLQVDLTKRFGNLKNGVNDIKNHKWFATTDWIAIYQRKVEAPFIPKFKGPGDTSNFDDYEEEEIRVSINEKCGKEFTEF

>  <Sequence_Length>  (226) 
353.0

>  <Mutation_Count>  (226) 
0.0

>  <Gene_Name>  (226) 
PKACA

>  <MW>  (226) 
41.114

>  <Name>  (226) 
cAMP-Dependent Protein Kinase Catalytic Subunit Alpha

>  <Mutations>  (226) 
nan

>  <EC_Number>  (226) 
2.7.11.11

>  <Peptidic_Inhibitor>  (226) 
True

>  <Lig_Missing_Atoms>  (226) 
['No']

>  <PDBbind_Resolution>  (226) 
nan

>  <PDBbind_Release_Year>  (226) 
nan

>  <PDBbind_Comment>  (226) 
nan

>  <PDBbind_Uniprot_Id>  (226) 
nan

>  <PDBbind_Protein_Name>  (226) 
nan

>  <PDBbind_-Logkd/Ki>  (226) 
nan

>  <PDBbind_Kd/Ki>  (226) 
nan

>  <PDBbind_Kd_Or_Ki_Or_Ic50>  (226) 
nan

>  <PDBbind_Relation>  (226) 
nan

>  <PDBbind_Value>  (226) 
nan

>  <PDBbind_Unit>  (226) 
nan

>  <PDBbind_Standard_Value>  (226) 
nan

>  <PDBbind_Standard_Unit>  (226) 
nan

>  <PDB_Chain>  (226) 
['A']

>  <Num_Ligs>  (226) 
[1.0]

>  <Orthosteric>  (226) 
[1.0]

>  <Allosteric>  (226) 
[0.0]

>  <Pockets_Assigned>  (226) 
['A']

>  <Multisite>  (226) 
[False]

>  <Same_Number>  (226) 
True

>  <Same_Binding_Site>  (226) 
True

>  <Same_Orientation>  (226) 
True

>  <Lig_Order_in_.pdb>  (226) 
Orthosteric

$$$$

     RDKit          2D

 31 33  0  0  0  0  0  0  0  0999 V2000
    1.5000    0.0000    0.0000 C   0  0  0  0  0  0  0  0  0  0  0  0
    0.7500   -1.2990    0.0000 N   0  0  0  0  0  0  0  0  0  0  0  0
   -0.7500   -1.2990    0.0000 C   0  0  0  0  0  0  0  0  0  0  0  0
   -1.5000    0.0000    0.0000 C   0  0  0  0  0  0  0  0  0  0  0  0
   -0.7500    1.2990    0.0000 C   0  0  0  0  0  0  0  0  0  0  0  0
    0.7500    1.2990    0.0000 N   0  0  0  0  0  0  0  0  0  0  0  0
   -1.7537    2.4138    0.0000 N   0  0  0  0  0  0  0  0  0  0  0  0
   -3.1240    1.8037    0.0000 C   0  0  0  0  0  0  0  0  0  0  0  0
   -2.9672    0.3119    0.0000 N   0  0  0  0  0  0  0  0  0  0  0  0
   -1.4418    3.8810    0.0000 C   0  0  0  0  0  0  0  0  0  0  0  0
   -2.4455    4.9957    0.0000 C   0  0  0  0  0  0  0  0  0  0  0  0
   -1.6955    6.2947    0.0000 C   0  0  0  0  0  0  0  0  0  0  0  0
   -0.2283    5.9829    0.0000 C   0  0  0  0  0  0  0  0  0  0  0  0
   -0.0715    4.4911    0.0000 O   0  0  0  0  0  0  0  0  0  0  0  0
    0.8864    6.9866    0.0000 C   0  0  0  0  0  0  0  0  0  0  0  0
    2.3130    6.5230    0.0000 O   0  0  0  0  0  0  0  0  0  0  0  0
    3.4277    7.5267    0.0000 P   0  0  0  0  0  5  0  0  0  0  0  0
    2.4240    8.6414    0.0000 O   0  0  0  0  0  0  0  0  0  0  0  0
    4.4314    6.4120    0.0000 O   0  0  0  0  0  0  0  0  0  0  0  0
    4.5424    8.5304    0.0000 O   0  0  0  0  0  0  0  0  0  0  0  0
    4.2306    9.9976    0.0000 P   0  0  0  0  0  5  0  0  0  0  0  0
    2.7633    9.6858    0.0000 O   0  0  0  0  0  0  0  0  0  0  0  0
    5.6978   10.3095    0.0000 N   0  0  0  0  0  0  0  0  0  0  0  0
    6.1613   11.7361    0.0000 P   0  0  0  0  0  0  0  0  0  0  0  0
    6.6248   13.1627    0.0000 O   0  0  0  0  0  0  0  0  0  0  0  0
    7.5879   11.2726    0.0000 O   0  0  0  0  0  0  0  0  0  0  0  0
    4.7347   12.1996    0.0000 O   0  0  0  0  0  0  0  0  0  0  0  0
    3.9187   11.4649    0.0000 O   0  0  0  0  0  0  0  0  0  0  0  0
   -2.3056    7.6651    0.0000 O   0  0  0  0  0  0  0  0  0  0  0  0
   -3.9373    4.8389    0.0000 O   0  0  0  0  0  0  0  0  0  0  0  0
   -1.5000   -2.5981    0.0000 N   0  0  0  0  0  0  0  0  0  0  0  0
  1  2  2  0
  2  3  1  0
  3  4  2  0
  4  5  1  0
  5  6  2  0
  5  7  1  0
  7  8  1  0
  8  9  2  0
 10  7  1  1
 10 11  1  0
 11 12  1  0
 12 13  1  0
 13 14  1  0
 13 15  1  1
 15 16  1  0
 16 17  1  0
 17 18  2  0
 17 19  1  6
 17 20  1  0
 20 21  1  0
 21 22  2  0
 21 23  1  0
 23 24  1  0
 24 25  2  0
 24 26  1  0
 24 27  1  0
 21 28  1  6
 12 29  1  6
 11 30  1  6
  3 31  1  0
  6  1  1  0
  9  4  1  0
 14 10  1  0
M  END
>  <Structure>  (227) 
7E0Z

>  <Dataset>  (227) 
PDB

>  <Chain>  (227) 
A

>  <Spatial_Label>  (227) 
DFGin

>  <Dihedral_Label>  (227) 
BLAminus

>  <C_Helix_Label>  (227) 
Chelix-in

>  <Lig_ID>  (227) 
ANP

>  <Lig_Entity_ID>  (227) 
7E0Z_3

>  <Lig_Name>  (227) 
PHOSPHOAMINOPHOSPHONIC ACID-ADENYLATE ESTER

>  <Lig_Formula>  (227) 
C10H17N6O12P3

>  <Lig_SMILES>  (227) 
c1nc(c2c(n1)n(cn2)[C@H]3[C@@H]([C@@H]([C@H](O3)CO[P@](=O)(O)O[P@@](=O)(NP(=O)(O)O)O)O)O)N

>  <Lig_MW>  (227) 
506.196

>  <Lig_ChEMBL_ID>  (227) 
['CHEMBL1230989']

>  <Lig_DrugBank_ID>  (227) 
nan

>  <Occurence>  (227) 
13.0

>  <Lig_SMILES_Uncharged>  (227) 
Nc1ncnc2c1ncn2[C@@H]1O[C@H](CO[P@](=O)(O)O[P@](=O)(O)NP(=O)(O)O)[C@@H](O)[C@H]1O

>  <Lig_Conformer>  (227) 
['NaN']

>  <Lig_Of_Interest>  (227) 
['Y']

>  <Lig_Completeness>  (227) 
[1.0]

>  <Lig_Occupancy>  (227) 
[1.0]

>  <Lig_RSCC>  (227) 
[0.971]

>  <Lig_RSR>  (227) 
[0.098]

>  <Lig_RMSZ_Bonds>  (227) 
[1.26]

>  <Lig_RMSZ_Angles>  (227) 
[1.02]

>  <Lig_Alt_Conf>  (227) 
0.0

>  <Title>  (227) 
Crystal structure of PKAc-PLN complex

>  <Nonpolymer_Entity_Count>  (227) 
3.0

>  <Protein_Entity_Count>  (227) 
2.0

>  <Exp_Method>  (227) 
X-Ray Diffraction

>  <Cryst_Method>  (227) 
Vapor Diffusion, Hanging Drop; 0.1M Bis-Tris, pH 6.5, 25% Peg 3350

>  <Deposit_Date>  (227) 
2021-01-28

>  <Resolution>  (227) 
2.162

>  <DOI>  (227) 
https://doi.org/10.7554/eLife.75346

>  <Source_Organism>  (227) 
Mus musculus

>  <R_Free>  (227) 
0.2276

>  <Keywords>  (227) 
Transferase

>  <REMARK_280>  (227) 
 Crystal Solvent Content, Vs (%): 42.60 Matthews Coefficient, Vm (Angstroms**3/Da): 2.14 Crystallization Conditions: 0.1M Bis-Tris, pH 6.5, 25% Peg 3350, Vapor Diffusion, Hanging Drop, Temperature 298.15K 

>  <REMARK_610>  (227) 
nan

>  <pH>  (227) 
6.5

>  <Cryst_Technique>  (227) 
nan

>  <Sequence>  (227) 
SNAMGNAAAAKKGSEQESVKEFLAKAKEDFLKKWETPSQNTAQLDQFDRIKTLGTGSFGRVMLVKHKESGNHYAMKILDKQKVVKLKQIEHTLNEKRILQAVNFPFLVKLEFSFKDNSNLYMVMEYVAGGEMFSHLRRIGRFSEPHARFYAAQIVLTFEYLHSLDLIYRDLKPENLLIDQQGYIQVTDFGFAKRVKGRTWTLCGTPEYLAPEIILSKGYNKAVDWWALGVLIYEMAAGYPPFFADQPIQIYEKIVSGKVRFPSHFSSDLKDLLRNLLQVDLTKRFGNLKNGVNDIKNHKWFATTDWIAIYQRKVEAPFIPKFKGPGDTSNFDDYEEEEIRVSINEKCGKEFTEFIGSG

>  <Sequence_Length>  (227) 
358.0

>  <Mutation_Count>  (227) 
0.0

>  <Gene_Name>  (227) 
PKACA

>  <MW>  (227) 
41.375

>  <Name>  (227) 
cAMP-Dependent Protein Kinase Catalytic Subunit Alpha

>  <Mutations>  (227) 
nan

>  <EC_Number>  (227) 
2.7.11.11

>  <Peptidic_Inhibitor>  (227) 
True

>  <Lig_Missing_Atoms>  (227) 
['No']

>  <PDBbind_Resolution>  (227) 
nan

>  <PDBbind_Release_Year>  (227) 
nan

>  <PDBbind_Comment>  (227) 
nan

>  <PDBbind_Uniprot_Id>  (227) 
nan

>  <PDBbind_Protein_Name>  (227) 
nan

>  <PDBbind_-Logkd/Ki>  (227) 
nan

>  <PDBbind_Kd/Ki>  (227) 
nan

>  <PDBbind_Kd_Or_Ki_Or_Ic50>  (227) 
nan

>  <PDBbind_Relation>  (227) 
nan

>  <PDBbind_Value>  (227) 
nan

>  <PDBbind_Unit>  (227) 
nan

>  <PDBbind_Standard_Value>  (227) 
nan

>  <PDBbind_Standard_Unit>  (227) 
nan

>  <PDB_Chain>  (227) 
['A']

>  <Num_Ligs>  (227) 
[1.0]

>  <Orthosteric>  (227) 
[1.0]

>  <Allosteric>  (227) 
[0.0]

>  <Pockets_Assigned>  (227) 
['A']

>  <Multisite>  (227) 
[False]

>  <Same_Number>  (227) 
True

>  <Same_Binding_Site>  (227) 
True

>  <Same_Orientation>  (227) 
True

>  <Lig_Order_in_.pdb>  (227) 
Orthosteric

$$$$

     RDKit          2D

 31 33  0  0  0  0  0  0  0  0999 V2000
    1.5000    0.0000    0.0000 C   0  0  0  0  0  0  0  0  0  0  0  0
    0.7500   -1.2990    0.0000 N   0  0  0  0  0  0  0  0  0  0  0  0
   -0.7500   -1.2990    0.0000 C   0  0  0  0  0  0  0  0  0  0  0  0
   -1.5000    0.0000    0.0000 C   0  0  0  0  0  0  0  0  0  0  0  0
   -0.7500    1.2990    0.0000 C   0  0  0  0  0  0  0  0  0  0  0  0
    0.7500    1.2990    0.0000 N   0  0  0  0  0  0  0  0  0  0  0  0
   -1.7537    2.4138    0.0000 N   0  0  0  0  0  0  0  0  0  0  0  0
   -3.1240    1.8037    0.0000 C   0  0  0  0  0  0  0  0  0  0  0  0
   -2.9672    0.3119    0.0000 N   0  0  0  0  0  0  0  0  0  0  0  0
   -1.4418    3.8810    0.0000 C   0  0  0  0  0  0  0  0  0  0  0  0
   -2.4455    4.9957    0.0000 C   0  0  0  0  0  0  0  0  0  0  0  0
   -1.6955    6.2947    0.0000 C   0  0  0  0  0  0  0  0  0  0  0  0
   -0.2283    5.9829    0.0000 C   0  0  0  0  0  0  0  0  0  0  0  0
   -0.0715    4.4911    0.0000 O   0  0  0  0  0  0  0  0  0  0  0  0
    0.8864    6.9866    0.0000 C   0  0  0  0  0  0  0  0  0  0  0  0
    2.3130    6.5230    0.0000 O   0  0  0  0  0  0  0  0  0  0  0  0
    3.4277    7.5267    0.0000 P   0  0  0  0  0  5  0  0  0  0  0  0
    2.4240    8.6414    0.0000 O   0  0  0  0  0  0  0  0  0  0  0  0
    4.4314    6.4120    0.0000 O   0  0  0  0  0  0  0  0  0  0  0  0
    4.5424    8.5304    0.0000 O   0  0  0  0  0  0  0  0  0  0  0  0
    4.2306    9.9976    0.0000 P   0  0  0  0  0  5  0  0  0  0  0  0
    2.7633    9.6858    0.0000 O   0  0  0  0  0  0  0  0  0  0  0  0
    5.6978   10.3095    0.0000 N   0  0  0  0  0  0  0  0  0  0  0  0
    6.1613   11.7361    0.0000 P   0  0  0  0  0  0  0  0  0  0  0  0
    6.6248   13.1627    0.0000 O   0  0  0  0  0  0  0  0  0  0  0  0
    7.5879   11.2726    0.0000 O   0  0  0  0  0  0  0  0  0  0  0  0
    4.7347   12.1996    0.0000 O   0  0  0  0  0  0  0  0  0  0  0  0
    3.9187   11.4649    0.0000 O   0  0  0  0  0  0  0  0  0  0  0  0
   -2.3056    7.6651    0.0000 O   0  0  0  0  0  0  0  0  0  0  0  0
   -3.9373    4.8389    0.0000 O   0  0  0  0  0  0  0  0  0  0  0  0
   -1.5000   -2.5981    0.0000 N   0  0  0  0  0  0  0  0  0  0  0  0
  1  2  2  0
  2  3  1  0
  3  4  2  0
  4  5  1  0
  5  6  2  0
  5  7  1  0
  7  8  1  0
  8  9  2  0
 10  7  1  1
 10 11  1  0
 11 12  1  0
 12 13  1  0
 13 14  1  0
 13 15  1  1
 15 16  1  0
 16 17  1  0
 17 18  2  0
 17 19  1  6
 17 20  1  0
 20 21  1  0
 21 22  2  0
 21 23  1  0
 23 24  1  0
 24 25  2  0
 24 26  1  0
 24 27  1  0
 21 28  1  6
 12 29  1  6
 11 30  1  6
  3 31  1  0
  6  1  1  0
  9  4  1  0
 14 10  1  0
M  END
>  <Structure>  (228) 
7E11

>  <Dataset>  (228) 
PDB

>  <Chain>  (228) 
A

>  <Spatial_Label>  (228) 
DFGin

>  <Dihedral_Label>  (228) 
BLAminus

>  <C_Helix_Label>  (228) 
Chelix-in

>  <Lig_ID>  (228) 
ANP

>  <Lig_Entity_ID>  (228) 
7E11_3

>  <Lig_Name>  (228) 
PHOSPHOAMINOPHOSPHONIC ACID-ADENYLATE ESTER

>  <Lig_Formula>  (228) 
C10H17N6O12P3

>  <Lig_SMILES>  (228) 
c1nc(c2c(n1)n(cn2)[C@H]3[C@@H]([C@@H]([C@H](O3)CO[P@](=O)(O)O[P@@](=O)(NP(=O)(O)O)O)O)O)N

>  <Lig_MW>  (228) 
506.196

>  <Lig_ChEMBL_ID>  (228) 
['CHEMBL1230989']

>  <Lig_DrugBank_ID>  (228) 
nan

>  <Occurence>  (228) 
13.0

>  <Lig_SMILES_Uncharged>  (228) 
Nc1ncnc2c1ncn2[C@@H]1O[C@H](CO[P@](=O)(O)O[P@](=O)(O)NP(=O)(O)O)[C@@H](O)[C@H]1O

>  <Lig_Conformer>  (228) 
['NaN']

>  <Lig_Of_Interest>  (228) 
['Y']

>  <Lig_Completeness>  (228) 
[1.0]

>  <Lig_Occupancy>  (228) 
[1.0]

>  <Lig_RSCC>  (228) 
[0.917]

>  <Lig_RSR>  (228) 
[0.311]

>  <Lig_RMSZ_Bonds>  (228) 
[1.08]

>  <Lig_RMSZ_Angles>  (228) 
[1.11]

>  <Lig_Alt_Conf>  (228) 
0.0

>  <Title>  (228) 
Crystal structure of PKAc-PLN R9C complex

>  <Nonpolymer_Entity_Count>  (228) 
3.0

>  <Protein_Entity_Count>  (228) 
2.0

>  <Exp_Method>  (228) 
X-Ray Diffraction

>  <Cryst_Method>  (228) 
Vapor Diffusion, Hanging Drop; 0.1 M Hepes, pH 7.5 25% Peg 3350, 0.2 M Mgcl2

>  <Deposit_Date>  (228) 
2021-01-28

>  <Resolution>  (228) 
3.43

>  <DOI>  (228) 
https://doi.org/10.7554/eLife.75346

>  <Source_Organism>  (228) 
Mus musculus

>  <R_Free>  (228) 
0.3168

>  <Keywords>  (228) 
Transferase

>  <REMARK_280>  (228) 
 Crystal Solvent Content, Vs (%): 55.31 Matthews Coefficient, Vm (Angstroms**3/Da): 2.75 Crystallization Conditions: 0.1 M Hepes, pH 7.5 25% Peg 3350, 0.2 M Mgcl2, Vapor Diffusion, Hanging Drop, Temperature 298.15K 

>  <REMARK_610>  (228) 
nan

>  <pH>  (228) 
7.5

>  <Cryst_Technique>  (228) 
nan

>  <Sequence>  (228) 
ESVKEFLAKAKEDFLKKWETPSQNTAQLDQFDRIKTLGTGSFGRVMLVKHKESGNHYAMKILDKQKVVKLKQIEHTLNEKRILQAVNFPFLVKLEFSFKDNSNLYMVMEYVAGGEMFSHLRRIGRFSEPHARFYAAQIVLTFEYLHSLDLIYRDLKPENLLIDQQGYIQVTDFGFAKRVKGRTWTLCGTPEYLAPEIILSKGYNKAVDWWALGVLIYEMAAGYPPFFADQPIQIYEKIVSGKVRFPSHFSSDLKDLLRNLLQVDLTKRFGNLKNGVNDIKNHKWFATTDWIAIYQRKVEAPFIPKFKGPGDTSNFDDYEEEEIRVSINEKCGKEFTEF

>  <Sequence_Length>  (228) 
338.0

>  <Mutation_Count>  (228) 
0.0

>  <Gene_Name>  (228) 
PKACA

>  <MW>  (228) 
39.542

>  <Name>  (228) 
cAMP-Dependent Protein Kinase Catalytic Subunit Alpha

>  <Mutations>  (228) 
nan

>  <EC_Number>  (228) 
2.7.11.11

>  <Peptidic_Inhibitor>  (228) 
True

>  <Lig_Missing_Atoms>  (228) 
['No']

>  <PDBbind_Resolution>  (228) 
nan

>  <PDBbind_Release_Year>  (228) 
nan

>  <PDBbind_Comment>  (228) 
nan

>  <PDBbind_Uniprot_Id>  (228) 
nan

>  <PDBbind_Protein_Name>  (228) 
nan

>  <PDBbind_-Logkd/Ki>  (228) 
nan

>  <PDBbind_Kd/Ki>  (228) 
nan

>  <PDBbind_Kd_Or_Ki_Or_Ic50>  (228) 
nan

>  <PDBbind_Relation>  (228) 
nan

>  <PDBbind_Value>  (228) 
nan

>  <PDBbind_Unit>  (228) 
nan

>  <PDBbind_Standard_Value>  (228) 
nan

>  <PDBbind_Standard_Unit>  (228) 
nan

>  <PDB_Chain>  (228) 
['A']

>  <Num_Ligs>  (228) 
[1.0]

>  <Orthosteric>  (228) 
[1.0]

>  <Allosteric>  (228) 
[0.0]

>  <Pockets_Assigned>  (228) 
['A']

>  <Multisite>  (228) 
[False]

>  <Same_Number>  (228) 
True

>  <Same_Binding_Site>  (228) 
True

>  <Same_Orientation>  (228) 
True

>  <Lig_Order_in_.pdb>  (228) 
Orthosteric

$$$$

     RDKit          2D

 31 33  0  0  0  0  0  0  0  0999 V2000
    1.5000    0.0000    0.0000 C   0  0  0  0  0  0  0  0  0  0  0  0
    0.7500   -1.2990    0.0000 N   0  0  0  0  0  0  0  0  0  0  0  0
   -0.7500   -1.2990    0.0000 C   0  0  0  0  0  0  0  0  0  0  0  0
   -1.5000    0.0000    0.0000 C   0  0  0  0  0  0  0  0  0  0  0  0
   -0.7500    1.2990    0.0000 C   0  0  0  0  0  0  0  0  0  0  0  0
    0.7500    1.2990    0.0000 N   0  0  0  0  0  0  0  0  0  0  0  0
   -1.7537    2.4138    0.0000 N   0  0  0  0  0  0  0  0  0  0  0  0
   -3.1240    1.8037    0.0000 C   0  0  0  0  0  0  0  0  0  0  0  0
   -2.9672    0.3119    0.0000 N   0  0  0  0  0  0  0  0  0  0  0  0
   -1.4418    3.8810    0.0000 C   0  0  0  0  0  0  0  0  0  0  0  0
   -2.4455    4.9957    0.0000 C   0  0  0  0  0  0  0  0  0  0  0  0
   -1.6955    6.2947    0.0000 C   0  0  0  0  0  0  0  0  0  0  0  0
   -0.2283    5.9829    0.0000 C   0  0  0  0  0  0  0  0  0  0  0  0
   -0.0715    4.4911    0.0000 O   0  0  0  0  0  0  0  0  0  0  0  0
    0.8864    6.9866    0.0000 C   0  0  0  0  0  0  0  0  0  0  0  0
    2.3130    6.5230    0.0000 O   0  0  0  0  0  0  0  0  0  0  0  0
    3.4277    7.5267    0.0000 P   0  0  0  0  0  5  0  0  0  0  0  0
    2.4240    8.6414    0.0000 O   0  0  0  0  0  0  0  0  0  0  0  0
    4.4314    6.4120    0.0000 O   0  0  0  0  0  0  0  0  0  0  0  0
    4.5424    8.5304    0.0000 O   0  0  0  0  0  0  0  0  0  0  0  0
    4.2306    9.9976    0.0000 P   0  0  0  0  0  5  0  0  0  0  0  0
    2.7633    9.6858    0.0000 O   0  0  0  0  0  0  0  0  0  0  0  0
    5.6978   10.3095    0.0000 N   0  0  0  0  0  0  0  0  0  0  0  0
    6.1613   11.7361    0.0000 P   0  0  0  0  0  0  0  0  0  0  0  0
    6.6248   13.1627    0.0000 O   0  0  0  0  0  0  0  0  0  0  0  0
    7.5879   11.2726    0.0000 O   0  0  0  0  0  0  0  0  0  0  0  0
    4.7347   12.1996    0.0000 O   0  0  0  0  0  0  0  0  0  0  0  0
    3.9187   11.4649    0.0000 O   0  0  0  0  0  0  0  0  0  0  0  0
   -2.3056    7.6651    0.0000 O   0  0  0  0  0  0  0  0  0  0  0  0
   -3.9373    4.8389    0.0000 O   0  0  0  0  0  0  0  0  0  0  0  0
   -1.5000   -2.5981    0.0000 N   0  0  0  0  0  0  0  0  0  0  0  0
  1  2  2  0
  2  3  1  0
  3  4  2  0
  4  5  1  0
  5  6  2  0
  5  7  1  0
  7  8  1  0
  8  9  2  0
 10  7  1  1
 10 11  1  0
 11 12  1  0
 12 13  1  0
 13 14  1  0
 13 15  1  1
 15 16  1  0
 16 17  1  0
 17 18  2  0
 17 19  1  6
 17 20  1  0
 20 21  1  0
 21 22  2  0
 21 23  1  0
 23 24  1  0
 24 25  2  0
 24 26  1  0
 24 27  1  0
 21 28  1  6
 12 29  1  6
 11 30  1  6
  3 31  1  0
  6  1  1  0
  9  4  1  0
 14 10  1  0
M  END
>  <Structure>  (229) 
7E12

>  <Dataset>  (229) 
PDB

>  <Chain>  (229) 
A

>  <Spatial_Label>  (229) 
DFGin

>  <Dihedral_Label>  (229) 
BLAminus

>  <C_Helix_Label>  (229) 
Chelix-in

>  <Lig_ID>  (229) 
ANP

>  <Lig_Entity_ID>  (229) 
7E12_3

>  <Lig_Name>  (229) 
PHOSPHOAMINOPHOSPHONIC ACID-ADENYLATE ESTER

>  <Lig_Formula>  (229) 
C10H17N6O12P3

>  <Lig_SMILES>  (229) 
c1nc(c2c(n1)n(cn2)[C@H]3[C@@H]([C@@H]([C@H](O3)CO[P@](=O)(O)O[P@@](=O)(NP(=O)(O)O)O)O)O)N

>  <Lig_MW>  (229) 
506.196

>  <Lig_ChEMBL_ID>  (229) 
['CHEMBL1230989']

>  <Lig_DrugBank_ID>  (229) 
nan

>  <Occurence>  (229) 
13.0

>  <Lig_SMILES_Uncharged>  (229) 
Nc1ncnc2c1ncn2[C@@H]1O[C@H](CO[P@](=O)(O)O[P@](=O)(O)NP(=O)(O)O)[C@@H](O)[C@H]1O

>  <Lig_Conformer>  (229) 
['NaN']

>  <Lig_Of_Interest>  (229) 
['Y']

>  <Lig_Completeness>  (229) 
[1.0]

>  <Lig_Occupancy>  (229) 
[1.0]

>  <Lig_RSCC>  (229) 
[0.956]

>  <Lig_RSR>  (229) 
[0.155]

>  <Lig_RMSZ_Bonds>  (229) 
[1.1]

>  <Lig_RMSZ_Angles>  (229) 
[1.07]

>  <Lig_Alt_Conf>  (229) 
0.0

>  <Title>  (229) 
Crystal structure of PKAc-A11E complex

>  <Nonpolymer_Entity_Count>  (229) 
3.0

>  <Protein_Entity_Count>  (229) 
2.0

>  <Exp_Method>  (229) 
X-Ray Diffraction

>  <Cryst_Method>  (229) 
Vapor Diffusion, Hanging Drop; 0.2 M Nacl, 0.1 M Hepes, pH 7.5, 25% Peg 3350

>  <Deposit_Date>  (229) 
2021-01-28

>  <Resolution>  (229) 
2.796

>  <DOI>  (229) 
https://doi.org/10.7554/eLife.75346

>  <Source_Organism>  (229) 
Mus musculus

>  <R_Free>  (229) 
0.2518

>  <Keywords>  (229) 
Transferase

>  <REMARK_280>  (229) 
 Crystal Solvent Content, Vs (%): 44.34 Matthews Coefficient, Vm (Angstroms**3/Da): 2.21 Crystallization Conditions: 0.2 M Nacl, 0.1 M Hepes, pH 7.5, 25% Peg 3350, Vapor Diffusion, Hanging Drop, Temperature 298.15K 

>  <REMARK_610>  (229) 
nan

>  <pH>  (229) 
7.5

>  <Cryst_Technique>  (229) 
nan

>  <Sequence>  (229) 
SNAMGNAAAAKKGSEQESVKEFLAKAKEDFLKKWETPSQNTAQLDQFDRIKTLGTGSFGRVMLVKHKESGNHYAMKILDKQKVVKLKQIEHTLNEKRILQAVNFPFLVKLEFSFKDNSNLYMVMEYVAGGEMFSHLRRIGRFSEPHARFYAAQIVLTFEYLHSLDLIYRDLKPENLLIDQQGYIQVTDFGFAKRVKGRTWTLCGTPEYLAPEIILSKGYNKAVDWWALGVLIYEMAAGYPPFFADQPIQIYEKIVSGKVRFPSHFSSDLKDLLRNLLQVDLTKRFGNLKNGVNDIKNHKWFATTDWIAIYQRKVEAPFIPKFKGPGDTSNFDDYEEEEIRVSINEKCGKEFTEFIGSG

>  <Sequence_Length>  (229) 
358.0

>  <Mutation_Count>  (229) 
0.0

>  <Gene_Name>  (229) 
PKACA

>  <MW>  (229) 
41.375

>  <Name>  (229) 
cAMP-Dependent Protein Kinase Catalytic Subunit Alpha

>  <Mutations>  (229) 
nan

>  <EC_Number>  (229) 
2.7.11.11

>  <Peptidic_Inhibitor>  (229) 
True

>  <Lig_Missing_Atoms>  (229) 
['No']

>  <PDBbind_Resolution>  (229) 
nan

>  <PDBbind_Release_Year>  (229) 
nan

>  <PDBbind_Comment>  (229) 
nan

>  <PDBbind_Uniprot_Id>  (229) 
nan

>  <PDBbind_Protein_Name>  (229) 
nan

>  <PDBbind_-Logkd/Ki>  (229) 
nan

>  <PDBbind_Kd/Ki>  (229) 
nan

>  <PDBbind_Kd_Or_Ki_Or_Ic50>  (229) 
nan

>  <PDBbind_Relation>  (229) 
nan

>  <PDBbind_Value>  (229) 
nan

>  <PDBbind_Unit>  (229) 
nan

>  <PDBbind_Standard_Value>  (229) 
nan

>  <PDBbind_Standard_Unit>  (229) 
nan

>  <PDB_Chain>  (229) 
['A']

>  <Num_Ligs>  (229) 
[1.0]

>  <Orthosteric>  (229) 
[1.0]

>  <Allosteric>  (229) 
[0.0]

>  <Pockets_Assigned>  (229) 
['A']

>  <Multisite>  (229) 
[False]

>  <Same_Number>  (229) 
True

>  <Same_Binding_Site>  (229) 
True

>  <Same_Orientation>  (229) 
True

>  <Lig_Order_in_.pdb>  (229) 
Orthosteric

$$$$

     RDKit          2D

 21 23  0  0  0  0  0  0  0  0999 V2000
    1.5000    0.0000    0.0000 C   0  0  0  0  0  0  0  0  0  0  0  0
    0.7500   -1.2990    0.0000 C   0  0  0  0  0  0  0  0  0  0  0  0
   -0.7500   -1.2990    0.0000 C   0  0  0  0  0  0  0  0  0  0  0  0
   -1.5000    0.0000    0.0000 C   0  0  0  0  0  0  0  0  0  0  0  0
   -0.7500    1.2990    0.0000 C   0  0  0  0  0  0  0  0  0  0  0  0
    0.7500    1.2990    0.0000 C   0  0  0  0  0  0  0  0  0  0  0  0
   -1.5000    2.5981    0.0000 C   0  0  0  0  0  0  0  0  0  0  0  0
   -0.7500    3.8971    0.0000 C   0  0  0  0  0  0  0  0  0  0  0  0
   -1.5000    5.1962    0.0000 O   0  0  0  0  0  0  0  0  0  0  0  0
   -3.0000    5.1962    0.0000 C   0  0  0  0  0  0  0  0  0  0  0  0
   -3.7500    3.8971    0.0000 C   0  0  0  0  0  0  0  0  0  0  0  0
   -3.0000    2.5981    0.0000 N   0  0  0  0  0  0  0  0  0  0  0  0
   -1.5000   -2.5981    0.0000 C   0  0  0  0  0  0  0  0  0  0  0  0
   -3.0000   -2.5981    0.0000 C   0  0  0  0  0  0  0  0  0  0  0  0
   -3.7500   -3.8971    0.0000 C   0  0  0  0  0  0  0  0  0  0  0  0
   -3.0000   -5.1962    0.0000 C   0  0  0  0  0  0  0  0  0  0  0  0
   -1.5000   -5.1962    0.0000 C   0  0  0  0  0  0  0  0  0  0  0  0
   -0.7500   -3.8971    0.0000 C   0  0  0  0  0  0  0  0  0  0  0  0
   -0.7500   -6.4952    0.0000 C   0  0  0  0  0  0  0  0  0  0  0  0
   -0.0000   -7.7942    0.0000 N   0  0  0  0  0  0  0  0  0  0  0  0
   -3.7500   -6.4952    0.0000 N   0  0  0  0  0  0  0  0  0  0  0  0
  1  2  2  0
  2  3  1  0
  3  4  2  0
  4  5  1  0
  5  6  2  0
  7  5  1  1
  7  8  1  0
  8  9  1  0
  9 10  1  0
 10 11  1  0
 11 12  1  0
  3 13  1  0
 13 14  2  0
 14 15  1  0
 15 16  2  0
 16 17  1  0
 17 18  2  0
 17 19  1  0
 19 20  3  0
 16 21  1  0
  6  1  1  0
 12  7  1  0
 18 13  1  0
M  END
>  <Structure>  (230) 
7PID

>  <Dataset>  (230) 
PDB

>  <Chain>  (230) 
A

>  <Spatial_Label>  (230) 
DFGin

>  <Dihedral_Label>  (230) 
ABAminus

>  <C_Helix_Label>  (230) 
Chelix-in

>  <Lig_ID>  (230) 
7QI

>  <Lig_Entity_ID>  (230) 
7PID_3

>  <Lig_Name>  (230) 
2-azanyl-5-[3-[(3R)-morpholin-3-yl]phenyl]benzenecarbonitrile

>  <Lig_Formula>  (230) 
C17H17N3O

>  <Lig_SMILES>  (230) 
c1cc(cc(c1)[C@@H]2COCCN2)c3ccc(c(c3)C#N)N

>  <Lig_MW>  (230) 
279.336

>  <Lig_ChEMBL_ID>  (230) 
nan

>  <Lig_DrugBank_ID>  (230) 
nan

>  <Occurence>  (230) 
1.0

>  <Lig_SMILES_Uncharged>  (230) 
N#Cc1cc(-c2cccc([C@@H]3COCCN3)c2)ccc1N

>  <Lig_Conformer>  (230) 
['NaN']

>  <Lig_Of_Interest>  (230) 
['Y']

>  <Lig_Completeness>  (230) 
[1.0]

>  <Lig_Occupancy>  (230) 
[1.0]

>  <Lig_RSCC>  (230) 
[0.938]

>  <Lig_RSR>  (230) 
[0.082]

>  <Lig_RMSZ_Bonds>  (230) 
[0.25]

>  <Lig_RMSZ_Angles>  (230) 
[0.41]

>  <Lig_Alt_Conf>  (230) 
0.0

>  <Title>  (230) 
Protein kinase A catalytic subunit in complex with PKI5-24 and EN060

>  <Nonpolymer_Entity_Count>  (230) 
2.0

>  <Protein_Entity_Count>  (230) 
2.0

>  <Exp_Method>  (230) 
X-Ray Diffraction

>  <Cryst_Method>  (230) 
Vapor Diffusion, Sitting Drop; Protein At 8 Mg/Ml In 100 Mm Mes-Bis-Tris pH 6.9, 75 Mm Lithium Chloride, 1 Mm Dtt, 100 Mm Sodium-Edta.  Master-Mix: 540 Ul Of Protein + 15 Ul 10 Mm Mega8 In Water + 45 Ul 10 Mm Pki5-24 In Protein-Buffer. 70 % Master-Mix Mixed With 30 % 50 Mm Ligand In Dmso Before Setting Of Drops. 15-24 % Methanol/Water In Reservoir.

>  <Deposit_Date>  (230) 
2021-08-19

>  <Resolution>  (230) 
1.496

>  <DOI>  (230) 
https://doi.org/10.1021/acs.jmedchem.2c00813

>  <Source_Organism>  (230) 
Cricetulus griseus

>  <R_Free>  (230) 
0.16138

>  <Keywords>  (230) 
Transferase

>  <REMARK_280>  (230) 
 Crystal Solvent Content, Vs (%): 54.51 Matthews Coefficient, Vm (Angstroms**3/Da): 2.70 Crystallization Conditions: Protein At 8 Mg/Ml In 100 Mm Mes-Bis -Tris pH 6.9, 75 Mm Lithium Chloride, 1 Mm Dtt, 100 Mm Sodium- Edta. Master-Mix: 540 Ul Of Protein + 15 Ul 10 Mm Mega8 In Water + 45 Ul 10 Mm Pki5-24 In Protein-Buffer. 70 % Master-Mix Mixed With 30 % 50 Mm Ligand In Dmso Before Setting Of Drops. 15-24 % Methanol/Water In Reservoir., Vapor Diffusion, Sitting Drop, Temperature 277.15K 

>  <REMARK_610>  (230) 
nan

>  <pH>  (230) 
6.9

>  <Cryst_Technique>  (230) 
co-crystallized

>  <Sequence>  (230) 
GHMGNAAAAKKGSEQESVKEFLAKAKEEFLKKWESPSQNTAQLDHFDRIKTLGTGSFGRVMLVKHKETGNHYAMKILDKQKVVKLKQIEHTLNEKRILQAVNFPFLVKLEFSFKDNSNLYMVMEYVPGGEMFSHLRRIGRFSEPHARFYAAQIVLTFEYLHSLDLIYRDLKPENLLIDQQGYIQVTDFGFAKRVKGRTWTLCGTPEYLAPEIILSKGYNKAVDWWALGVLIYEMAAGYPPFFADQPIQIYEKIVSGKVRFPSHFSSDLKDLLRNLLQVDLTKRFGNLKNGVNDIKNHKWFATTDWIAIYQRKVEAPFIPKFKGPGDTSNFDDYEEEEIRVSINEKCGKEFTEF

>  <Sequence_Length>  (230) 
353.0

>  <Mutation_Count>  (230) 
0.0

>  <Gene_Name>  (230) 
PKACA

>  <MW>  (230) 
41.194

>  <Name>  (230) 
cAMP-Dependent Protein Kinase Catalytic Subunit Alpha

>  <Mutations>  (230) 
nan

>  <EC_Number>  (230) 
2.7.11.11

>  <Peptidic_Inhibitor>  (230) 
True

>  <Lig_Missing_Atoms>  (230) 
['No']

>  <PDBbind_Resolution>  (230) 
nan

>  <PDBbind_Release_Year>  (230) 
nan

>  <PDBbind_Comment>  (230) 
nan

>  <PDBbind_Uniprot_Id>  (230) 
nan

>  <PDBbind_Protein_Name>  (230) 
nan

>  <PDBbind_-Logkd/Ki>  (230) 
nan

>  <PDBbind_Kd/Ki>  (230) 
nan

>  <PDBbind_Kd_Or_Ki_Or_Ic50>  (230) 
nan

>  <PDBbind_Relation>  (230) 
nan

>  <PDBbind_Value>  (230) 
nan

>  <PDBbind_Unit>  (230) 
nan

>  <PDBbind_Standard_Value>  (230) 
nan

>  <PDBbind_Standard_Unit>  (230) 
nan

>  <PDB_Chain>  (230) 
['A']

>  <Num_Ligs>  (230) 
[1.0]

>  <Orthosteric>  (230) 
[1.0]

>  <Allosteric>  (230) 
[0.0]

>  <Pockets_Assigned>  (230) 
['A']

>  <Multisite>  (230) 
[False]

>  <Same_Number>  (230) 
True

>  <Same_Binding_Site>  (230) 
True

>  <Same_Orientation>  (230) 
True

>  <Lig_Order_in_.pdb>  (230) 
Orthosteric

$$$$

     RDKit          2D

 21 23  0  0  0  0  0  0  0  0999 V2000
    1.5000    0.0000    0.0000 C   0  0  0  0  0  0  0  0  0  0  0  0
    0.7500   -1.2990    0.0000 C   0  0  0  0  0  0  0  0  0  0  0  0
   -0.7500   -1.2990    0.0000 C   0  0  0  0  0  0  0  0  0  0  0  0
   -1.5000    0.0000    0.0000 C   0  0  0  0  0  0  0  0  0  0  0  0
   -0.7500    1.2990    0.0000 C   0  0  0  0  0  0  0  0  0  0  0  0
    0.7500    1.2990    0.0000 C   0  0  0  0  0  0  0  0  0  0  0  0
   -1.5000    2.5981    0.0000 C   0  0  0  0  0  0  0  0  0  0  0  0
   -0.7500    3.8971    0.0000 C   0  0  0  0  0  0  0  0  0  0  0  0
   -1.5000    5.1962    0.0000 N   0  0  0  0  0  0  0  0  0  0  0  0
   -3.0000    5.1962    0.0000 C   0  0  0  0  0  0  0  0  0  0  0  0
   -3.7500    3.8971    0.0000 C   0  0  0  0  0  0  0  0  0  0  0  0
   -3.0000    2.5981    0.0000 O   0  0  0  0  0  0  0  0  0  0  0  0
   -1.5000   -2.5981    0.0000 C   0  0  0  0  0  0  0  0  0  0  0  0
   -3.0000   -2.5981    0.0000 C   0  0  0  0  0  0  0  0  0  0  0  0
   -3.7500   -3.8971    0.0000 C   0  0  0  0  0  0  0  0  0  0  0  0
   -3.0000   -5.1962    0.0000 C   0  0  0  0  0  0  0  0  0  0  0  0
   -1.5000   -5.1962    0.0000 C   0  0  0  0  0  0  0  0  0  0  0  0
   -0.7500   -3.8971    0.0000 C   0  0  0  0  0  0  0  0  0  0  0  0
   -0.7500   -6.4952    0.0000 C   0  0  0  0  0  0  0  0  0  0  0  0
   -0.0000   -7.7942    0.0000 N   0  0  0  0  0  0  0  0  0  0  0  0
   -3.7500   -6.4952    0.0000 N   0  0  0  0  0  0  0  0  0  0  0  0
  1  2  2  0
  2  3  1  0
  3  4  2  0
  4  5  1  0
  5  6  2  0
  7  5  1  1
  7  8  1  0
  8  9  1  0
  9 10  1  0
 10 11  1  0
 11 12  1  0
  3 13  1  0
 13 14  2  0
 14 15  1  0
 15 16  2  0
 16 17  1  0
 17 18  2  0
 17 19  1  0
 19 20  3  0
 16 21  1  0
  6  1  1  0
 12  7  1  0
 18 13  1  0
M  END
>  <Structure>  (231) 
7PIE

>  <Dataset>  (231) 
PDB

>  <Chain>  (231) 
A

>  <Spatial_Label>  (231) 
DFGin

>  <Dihedral_Label>  (231) 
ABAminus

>  <C_Helix_Label>  (231) 
Chelix-in

>  <Lig_ID>  (231) 
7QF

>  <Lig_Entity_ID>  (231) 
7PIE_3

>  <Lig_Name>  (231) 
2-azanyl-5-[3-[(2R)-morpholin-2-yl]phenyl]benzenecarbonitrile

>  <Lig_Formula>  (231) 
C17H17N3O

>  <Lig_SMILES>  (231) 
c1cc(cc(c1)[C@@H]2CNCCO2)c3ccc(c(c3)C#N)N

>  <Lig_MW>  (231) 
279.336

>  <Lig_ChEMBL_ID>  (231) 
nan

>  <Lig_DrugBank_ID>  (231) 
nan

>  <Occurence>  (231) 
1.0

>  <Lig_SMILES_Uncharged>  (231) 
N#Cc1cc(-c2cccc([C@@H]3CNCCO3)c2)ccc1N

>  <Lig_Conformer>  (231) 
['NaN']

>  <Lig_Of_Interest>  (231) 
['Y']

>  <Lig_Completeness>  (231) 
[1.0]

>  <Lig_Occupancy>  (231) 
[0.869]

>  <Lig_RSCC>  (231) 
[0.9]

>  <Lig_RSR>  (231) 
[0.123]

>  <Lig_RMSZ_Bonds>  (231) 
[0.23]

>  <Lig_RMSZ_Angles>  (231) 
[0.43]

>  <Lig_Alt_Conf>  (231) 
0.0

>  <Title>  (231) 
Protein kinase A catalytic subunit in complex with PKI5-24 and EN068

>  <Nonpolymer_Entity_Count>  (231) 
2.0

>  <Protein_Entity_Count>  (231) 
2.0

>  <Exp_Method>  (231) 
X-Ray Diffraction

>  <Cryst_Method>  (231) 
Vapor Diffusion, Sitting Drop; Protein At 8 Mg/Ml In 100 Mm Mes-Bis-Tris pH 6.9, 75 Mm Lithium Chloride, 1 Mm Dtt, 100 Mm Sodium-Edta.  Master-Mix: 540 Ul Of Protein + 15 Ul 10 Mm Mega8 In Water + 45 Ul 10 Mm Pki5-24 In Protein-Buffer. 70 % Master-Mix Mixed With 30 % 50 Mm Ligand In Dmso Before Setting Of Drops. 15-24 % Methanol/Water In Reservoir.

>  <Deposit_Date>  (231) 
2021-08-19

>  <Resolution>  (231) 
1.427

>  <DOI>  (231) 
https://doi.org/10.1021/acs.jmedchem.2c00813

>  <Source_Organism>  (231) 
Cricetulus griseus

>  <R_Free>  (231) 
0.157911

>  <Keywords>  (231) 
Transferase

>  <REMARK_280>  (231) 
 Crystal Solvent Content, Vs (%): 54.52 Matthews Coefficient, Vm (Angstroms**3/Da): 2.70 Crystallization Conditions: Protein At 8 Mg/Ml In 100 Mm Mes-Bis -Tris pH 6.9, 75 Mm Lithium Chloride, 1 Mm Dtt, 100 Mm Sodium- Edta. Master-Mix: 540 Ul Of Protein + 15 Ul 10 Mm Mega8 In Water + 45 Ul 10 Mm Pki5-24 In Protein-Buffer. 70 % Master-Mix Mixed With 30 % 50 Mm Ligand In Dmso Before Setting Of Drops. 15-24 % Methanol/Water In Reservoir., Vapor Diffusion, Sitting Drop, Temperature 277.15K 

>  <REMARK_610>  (231) 
nan

>  <pH>  (231) 
6.9

>  <Cryst_Technique>  (231) 
co-crystallized

>  <Sequence>  (231) 
GHMGNAAAAKKGSEQESVKEFLAKAKEEFLKKWESPSQNTAQLDHFDRIKTLGTGSFGRVMLVKHKETGNHYAMKILDKQKVVKLKQIEHTLNEKRILQAVNFPFLVKLEFSFKDNSNLYMVMEYVPGGEMFSHLRRIGRFSEPHARFYAAQIVLTFEYLHSLDLIYRDLKPENLLIDQQGYIQVTDFGFAKRVKGRTWTLCGTPEYLAPEIILSKGYNKAVDWWALGVLIYEMAAGYPPFFADQPIQIYEKIVSGKVRFPSHFSSDLKDLLRNLLQVDLTKRFGNLKNGVNDIKNHKWFATTDWIAIYQRKVEAPFIPKFKGPGDTSNFDDYEEEEIRVSINEKCGKEFTEF

>  <Sequence_Length>  (231) 
353.0

>  <Mutation_Count>  (231) 
0.0

>  <Gene_Name>  (231) 
PKACA

>  <MW>  (231) 
41.194

>  <Name>  (231) 
cAMP-Dependent Protein Kinase Catalytic Subunit Alpha

>  <Mutations>  (231) 
nan

>  <EC_Number>  (231) 
2.7.11.11

>  <Peptidic_Inhibitor>  (231) 
True

>  <Lig_Missing_Atoms>  (231) 
['No']

>  <PDBbind_Resolution>  (231) 
nan

>  <PDBbind_Release_Year>  (231) 
nan

>  <PDBbind_Comment>  (231) 
nan

>  <PDBbind_Uniprot_Id>  (231) 
nan

>  <PDBbind_Protein_Name>  (231) 
nan

>  <PDBbind_-Logkd/Ki>  (231) 
nan

>  <PDBbind_Kd/Ki>  (231) 
nan

>  <PDBbind_Kd_Or_Ki_Or_Ic50>  (231) 
nan

>  <PDBbind_Relation>  (231) 
nan

>  <PDBbind_Value>  (231) 
nan

>  <PDBbind_Unit>  (231) 
nan

>  <PDBbind_Standard_Value>  (231) 
nan

>  <PDBbind_Standard_Unit>  (231) 
nan

>  <PDB_Chain>  (231) 
['A']

>  <Num_Ligs>  (231) 
[1.0]

>  <Orthosteric>  (231) 
[1.0]

>  <Allosteric>  (231) 
[0.0]

>  <Pockets_Assigned>  (231) 
['A']

>  <Multisite>  (231) 
[False]

>  <Same_Number>  (231) 
True

>  <Same_Binding_Site>  (231) 
True

>  <Same_Orientation>  (231) 
True

>  <Lig_Order_in_.pdb>  (231) 
Orthosteric

$$$$

     RDKit          2D

 23 25  0  0  0  0  0  0  0  0999 V2000
    1.5000    0.0000    0.0000 C   0  0  0  0  0  0  0  0  0  0  0  0
    0.7500   -1.2990    0.0000 C   0  0  0  0  0  0  0  0  0  0  0  0
   -0.7500   -1.2990    0.0000 C   0  0  0  0  0  0  0  0  0  0  0  0
   -1.5000    0.0000    0.0000 C   0  0  0  0  0  0  0  0  0  0  0  0
   -0.7500    1.2990    0.0000 C   0  0  0  0  0  0  0  0  0  0  0  0
    0.7500    1.2990    0.0000 C   0  0  0  0  0  0  0  0  0  0  0  0
   -1.5000    2.5981    0.0000 C   0  0  0  0  0  0  0  0  0  0  0  0
   -0.0905    3.1111    0.0000 C   0  0  0  0  0  0  0  0  0  0  0  0
    0.1700    4.5883    0.0000 C   0  0  0  0  0  0  0  0  0  0  0  0
   -0.9791    5.5525    0.0000 O   0  0  0  0  0  0  0  0  0  0  0  0
   -2.3886    5.0395    0.0000 C   0  0  0  0  0  0  0  0  0  0  0  0
   -2.6491    3.5623    0.0000 C   0  0  0  0  0  0  0  0  0  0  0  0
   -2.6491    1.6339    0.0000 C   0  0  0  0  0  0  0  0  0  0  0  0
   -4.0586    2.1469    0.0000 N   0  0  0  0  0  0  0  0  0  0  0  0
   -1.5000   -2.5981    0.0000 C   0  0  0  0  0  0  0  0  0  0  0  0
   -3.0000   -2.5981    0.0000 C   0  0  0  0  0  0  0  0  0  0  0  0
   -3.7500   -3.8971    0.0000 C   0  0  0  0  0  0  0  0  0  0  0  0
   -3.0000   -5.1962    0.0000 C   0  0  0  0  0  0  0  0  0  0  0  0
   -1.5000   -5.1962    0.0000 C   0  0  0  0  0  0  0  0  0  0  0  0
   -0.7500   -3.8971    0.0000 C   0  0  0  0  0  0  0  0  0  0  0  0
   -0.7500   -6.4952    0.0000 C   0  0  0  0  0  0  0  0  0  0  0  0
   -0.0000   -7.7942    0.0000 N   0  0  0  0  0  0  0  0  0  0  0  0
   -3.7500   -6.4952    0.0000 N   0  0  0  0  0  0  0  0  0  0  0  0
  1  2  2  0
  2  3  1  0
  3  4  2  0
  4  5  1  0
  5  6  2  0
  5  7  1  0
  7  8  1  0
  8  9  1  0
  9 10  1  0
 10 11  1  0
 11 12  1  0
  7 13  1  0
 13 14  1  0
  3 15  1  0
 15 16  2  0
 16 17  1  0
 17 18  2  0
 18 19  1  0
 19 20  2  0
 19 21  1  0
 21 22  3  0
 18 23  1  0
  6  1  1  0
 12  7  1  0
 20 15  1  0
M  END
>  <Structure>  (232) 
7PIF

>  <Dataset>  (232) 
PDB

>  <Chain>  (232) 
A

>  <Spatial_Label>  (232) 
DFGin

>  <Dihedral_Label>  (232) 
ABAminus

>  <C_Helix_Label>  (232) 
Chelix-in

>  <Lig_ID>  (232) 
7QL

>  <Lig_Entity_ID>  (232) 
7PIF_3

>  <Lig_Name>  (232) 
5-[3-[4-(aminomethyl)oxan-4-yl]phenyl]-2-azanyl-benzenecarbonitrile

>  <Lig_Formula>  (232) 
C19H21N3O

>  <Lig_SMILES>  (232) 
c1cc(cc(c1)C2(CCOCC2)CN)c3ccc(c(c3)C#N)N

>  <Lig_MW>  (232) 
307.39

>  <Lig_ChEMBL_ID>  (232) 
nan

>  <Lig_DrugBank_ID>  (232) 
nan

>  <Occurence>  (232) 
1.0

>  <Lig_SMILES_Uncharged>  (232) 
N#Cc1cc(-c2cccc(C3(CN)CCOCC3)c2)ccc1N

>  <Lig_Conformer>  (232) 
['NaN']

>  <Lig_Of_Interest>  (232) 
['Y']

>  <Lig_Completeness>  (232) 
[1.0]

>  <Lig_Occupancy>  (232) 
[1.0]

>  <Lig_RSCC>  (232) 
[0.965]

>  <Lig_RSR>  (232) 
[0.072]

>  <Lig_RMSZ_Bonds>  (232) 
[0.29]

>  <Lig_RMSZ_Angles>  (232) 
[0.44]

>  <Lig_Alt_Conf>  (232) 
0.0

>  <Title>  (232) 
Protein kinase A catalytic subunit in complex with PKI5-24 and EN086

>  <Nonpolymer_Entity_Count>  (232) 
3.0

>  <Protein_Entity_Count>  (232) 
2.0

>  <Exp_Method>  (232) 
X-Ray Diffraction

>  <Cryst_Method>  (232) 
Vapor Diffusion, Sitting Drop; Protein At 8 Mg/Ml In 100 Mm Mes-Bis-Tris pH 6.9, 75 Mm Lithium Chloride, 1 Mm Dtt, 100 Mm Sodium-Edta.  Master-Mix: 540 Ul Of Protein + 15 Ul 10 Mm Mega8 In Water + 45 Ul 10 Mm Pki5-24 In Protein-Buffer. 70 % Master-Mix Mixed With 30 % 50 Mm Ligand In Dmso Before Setting Of Drops. 15-24 % Methanol/Water In Reservoir.

>  <Deposit_Date>  (232) 
2021-08-19

>  <Resolution>  (232) 
1.395

>  <DOI>  (232) 
https://doi.org/10.1021/acs.jmedchem.2c00813

>  <Source_Organism>  (232) 
Cricetulus griseus

>  <R_Free>  (232) 
0.155226

>  <Keywords>  (232) 
Transferase

>  <REMARK_280>  (232) 
 Crystal Solvent Content, Vs (%): 54.30 Matthews Coefficient, Vm (Angstroms**3/Da): 2.69 Crystallization Conditions: Protein At 8 Mg/Ml In 100 Mm Mes-Bis -Tris pH 6.9, 75 Mm Lithium Chloride, 1 Mm Dtt, 100 Mm Sodium- Edta. Master-Mix: 540 Ul Of Protein + 15 Ul 10 Mm Mega8 In Water + 45 Ul 10 Mm Pki5-24 In Protein-Buffer. 70 % Master-Mix Mixed With 30 % 50 Mm Ligand In Dmso Before Setting Of Drops. 15-24 % Methanol/Water In Reservoir., Vapor Diffusion, Sitting Drop, Temperature 277.15K 

>  <REMARK_610>  (232) 
nan

>  <pH>  (232) 
6.9

>  <Cryst_Technique>  (232) 
co-crystallized

>  <Sequence>  (232) 
GHMGNAAAAKKGSEQESVKEFLAKAKEEFLKKWESPSQNTAQLDHFDRIKTLGTGSFGRVMLVKHKETGNHYAMKILDKQKVVKLKQIEHTLNEKRILQAVNFPFLVKLEFSFKDNSNLYMVMEYVPGGEMFSHLRRIGRFSEPHARFYAAQIVLTFEYLHSLDLIYRDLKPENLLIDQQGYIQVTDFGFAKRVKGRTWTLCGTPEYLAPEIILSKGYNKAVDWWALGVLIYEMAAGYPPFFADQPIQIYEKIVSGKVRFPSHFSSDLKDLLRNLLQVDLTKRFGNLKNGVNDIKNHKWFATTDWIAIYQRKVEAPFIPKFKGPGDTSNFDDYEEEEIRVSINEKCGKEFTEF

>  <Sequence_Length>  (232) 
353.0

>  <Mutation_Count>  (232) 
0.0

>  <Gene_Name>  (232) 
PKACA

>  <MW>  (232) 
41.194

>  <Name>  (232) 
cAMP-Dependent Protein Kinase Catalytic Subunit Alpha

>  <Mutations>  (232) 
nan

>  <EC_Number>  (232) 
2.7.11.11

>  <Peptidic_Inhibitor>  (232) 
True

>  <Lig_Missing_Atoms>  (232) 
['No']

>  <PDBbind_Resolution>  (232) 
nan

>  <PDBbind_Release_Year>  (232) 
nan

>  <PDBbind_Comment>  (232) 
nan

>  <PDBbind_Uniprot_Id>  (232) 
nan

>  <PDBbind_Protein_Name>  (232) 
nan

>  <PDBbind_-Logkd/Ki>  (232) 
nan

>  <PDBbind_Kd/Ki>  (232) 
nan

>  <PDBbind_Kd_Or_Ki_Or_Ic50>  (232) 
nan

>  <PDBbind_Relation>  (232) 
nan

>  <PDBbind_Value>  (232) 
nan

>  <PDBbind_Unit>  (232) 
nan

>  <PDBbind_Standard_Value>  (232) 
nan

>  <PDBbind_Standard_Unit>  (232) 
nan

>  <PDB_Chain>  (232) 
['A']

>  <Num_Ligs>  (232) 
[1.0]

>  <Orthosteric>  (232) 
[1.0]

>  <Allosteric>  (232) 
[0.0]

>  <Pockets_Assigned>  (232) 
['A']

>  <Multisite>  (232) 
[False]

>  <Same_Number>  (232) 
True

>  <Same_Binding_Site>  (232) 
True

>  <Same_Orientation>  (232) 
True

>  <Lig_Order_in_.pdb>  (232) 
Orthosteric

$$$$

     RDKit          2D

 17 18  0  0  0  0  0  0  0  0999 V2000
    1.5000    0.0000    0.0000 C   0  0  0  0  0  0  0  0  0  0  0  0
    0.7500   -1.2990    0.0000 C   0  0  0  0  0  0  0  0  0  0  0  0
   -0.7500   -1.2990    0.0000 C   0  0  0  0  0  0  0  0  0  0  0  0
   -1.5000    0.0000    0.0000 C   0  0  0  0  0  0  0  0  0  0  0  0
   -0.7500    1.2990    0.0000 C   0  0  0  0  0  0  0  0  0  0  0  0
    0.7500    1.2990    0.0000 C   0  0  0  0  0  0  0  0  0  0  0  0
    1.5000    2.5981    0.0000 C   0  0  0  0  0  0  0  0  0  0  0  0
    3.0000    2.5981    0.0000 C   0  0  0  0  0  0  0  0  0  0  0  0
    3.7500    3.8971    0.0000 C   0  0  0  0  0  0  0  0  0  0  0  0
    5.2500    3.8971    0.0000 C   0  0  0  0  0  0  0  0  0  0  0  0
    6.0000    2.5981    0.0000 C   0  0  0  0  0  0  0  0  0  0  0  0
    5.2500    1.2990    0.0000 N   0  0  0  0  0  0  0  0  0  0  0  0
    3.7500    1.2990    0.0000 C   0  0  0  0  0  0  0  0  0  0  0  0
   -1.5000    2.5981    0.0000 Cl  0  0  0  0  0  0  0  0  0  0  0  0
   -3.0000    0.0000    0.0000 C   0  0  0  0  0  0  0  0  0  0  0  0
   -4.5000    0.0000    0.0000 N   0  0  0  0  0  0  0  0  0  0  0  0
   -1.5000   -2.5981    0.0000 N   0  0  0  0  0  0  0  0  0  0  0  0
  1  2  2  0
  2  3  1  0
  3  4  2  0
  4  5  1  0
  5  6  2  0
  6  7  1  0
  7  8  2  0
  8  9  1  0
  9 10  1  0
 10 11  1  0
 11 12  1  0
 12 13  1  0
  5 14  1  0
  4 15  1  0
 15 16  3  0
  3 17  1  0
  6  1  1  0
 13  8  1  0
M  END
>  <Structure>  (233) 
7PIG

>  <Dataset>  (233) 
PDB

>  <Chain>  (233) 
A

>  <Spatial_Label>  (233) 
DFGin

>  <Dihedral_Label>  (233) 
ABAminus

>  <C_Helix_Label>  (233) 
Chelix-in

>  <Lig_ID>  (233) 
7QR

>  <Lig_Entity_ID>  (233) 
7PIG_3

>  <Lig_Name>  (233) 
6-azanyl-2-chloranyl-3-[(Z)-piperidin-3-ylidenemethyl]benzenecarbonitrile

>  <Lig_Formula>  (233) 
C13H14ClN3

>  <Lig_SMILES>  (233) 
c1cc(c(c(c1/C=C\2/CCCNC2)Cl)C#N)N

>  <Lig_MW>  (233) 
247.723

>  <Lig_ChEMBL_ID>  (233) 
nan

>  <Lig_DrugBank_ID>  (233) 
nan

>  <Occurence>  (233) 
1.0

>  <Lig_SMILES_Uncharged>  (233) 
N#Cc1c(N)ccc(/C=C2/CCCNC2)c1Cl

>  <Lig_Conformer>  (233) 
['NaN']

>  <Lig_Of_Interest>  (233) 
['Y']

>  <Lig_Completeness>  (233) 
[1.0]

>  <Lig_Occupancy>  (233) 
[1.0]

>  <Lig_RSCC>  (233) 
[0.929]

>  <Lig_RSR>  (233) 
[0.08]

>  <Lig_RMSZ_Bonds>  (233) 
[0.75]

>  <Lig_RMSZ_Angles>  (233) 
[0.66]

>  <Lig_Alt_Conf>  (233) 
0.0

>  <Title>  (233) 
Protein kinase A catalytic subunit in complex with PKI5-24 and EN088

>  <Nonpolymer_Entity_Count>  (233) 
2.0

>  <Protein_Entity_Count>  (233) 
2.0

>  <Exp_Method>  (233) 
X-Ray Diffraction

>  <Cryst_Method>  (233) 
Vapor Diffusion, Sitting Drop; Protein At 8 Mg/Ml In 100 Mm Mes-Bis-Tris pH 6.9, 75 Mm Lithium Chloride, 1 Mm Dtt, 100 Mm Sodium-Edta.  Master-Mix: 540 Ul Of Protein + 15 Ul 10 Mm Mega8 In Water + 45 Ul 10 Mm Pki5-24 In Protein-Buffer. 70 % Master-Mix Mixed With 30 % 50 Mm Ligand In Dmso Before Setting Of Drops. 15-24 % Methanol/Water In Reservoir.

>  <Deposit_Date>  (233) 
2021-08-19

>  <Resolution>  (233) 
1.553

>  <DOI>  (233) 
https://doi.org/10.1021/acs.jmedchem.2c00813

>  <Source_Organism>  (233) 
Cricetulus griseus

>  <R_Free>  (233) 
0.154489

>  <Keywords>  (233) 
Transferase

>  <REMARK_280>  (233) 
 Crystal Solvent Content, Vs (%): 53.67 Matthews Coefficient, Vm (Angstroms**3/Da): 2.65 Crystallization Conditions: Protein At 8 Mg/Ml In 100 Mm Mes-Bis -Tris pH 6.9, 75 Mm Lithium Chloride, 1 Mm Dtt, 100 Mm Sodium- Edta. Master-Mix: 540 Ul Of Protein + 15 Ul 10 Mm Mega8 In Water + 45 Ul 10 Mm Pki5-24 In Protein-Buffer. 70 % Master-Mix Mixed With 30 % 50 Mm Ligand In Dmso Before Setting Of Drops. 15-24 % Methanol/Water In Reservoir., Vapor Diffusion, Sitting Drop, Temperature 277.15K 

>  <REMARK_610>  (233) 
nan

>  <pH>  (233) 
6.9

>  <Cryst_Technique>  (233) 
co-crystallized

>  <Sequence>  (233) 
GHMGNAAAAKKGSEQESVKEFLAKAKEEFLKKWESPSQNTAQLDHFDRIKTLGTGSFGRVMLVKHKETGNHYAMKILDKQKVVKLKQIEHTLNEKRILQAVNFPFLVKLEFSFKDNSNLYMVMEYVPGGEMFSHLRRIGRFSEPHARFYAAQIVLTFEYLHSLDLIYRDLKPENLLIDQQGYIQVTDFGFAKRVKGRTWTLCGTPEYLAPEIILSKGYNKAVDWWALGVLIYEMAAGYPPFFADQPIQIYEKIVSGKVRFPSHFSSDLKDLLRNLLQVDLTKRFGNLKNGVNDIKNHKWFATTDWIAIYQRKVEAPFIPKFKGPGDTSNFDDYEEEEIRVSINEKCGKEFTEF

>  <Sequence_Length>  (233) 
353.0

>  <Mutation_Count>  (233) 
0.0

>  <Gene_Name>  (233) 
PKACA

>  <MW>  (233) 
41.194

>  <Name>  (233) 
cAMP-Dependent Protein Kinase Catalytic Subunit Alpha

>  <Mutations>  (233) 
nan

>  <EC_Number>  (233) 
2.7.11.11

>  <Peptidic_Inhibitor>  (233) 
True

>  <Lig_Missing_Atoms>  (233) 
['No']

>  <PDBbind_Resolution>  (233) 
nan

>  <PDBbind_Release_Year>  (233) 
nan

>  <PDBbind_Comment>  (233) 
nan

>  <PDBbind_Uniprot_Id>  (233) 
nan

>  <PDBbind_Protein_Name>  (233) 
nan

>  <PDBbind_-Logkd/Ki>  (233) 
nan

>  <PDBbind_Kd/Ki>  (233) 
nan

>  <PDBbind_Kd_Or_Ki_Or_Ic50>  (233) 
nan

>  <PDBbind_Relation>  (233) 
nan

>  <PDBbind_Value>  (233) 
nan

>  <PDBbind_Unit>  (233) 
nan

>  <PDBbind_Standard_Value>  (233) 
nan

>  <PDBbind_Standard_Unit>  (233) 
nan

>  <PDB_Chain>  (233) 
['A']

>  <Num_Ligs>  (233) 
[1.0]

>  <Orthosteric>  (233) 
[1.0]

>  <Allosteric>  (233) 
[0.0]

>  <Pockets_Assigned>  (233) 
['A']

>  <Multisite>  (233) 
[False]

>  <Same_Number>  (233) 
True

>  <Same_Binding_Site>  (233) 
True

>  <Same_Orientation>  (233) 
True

>  <Lig_Order_in_.pdb>  (233) 
Orthosteric

$$$$

     RDKit          2D

 24 27  0  0  0  0  0  0  0  0999 V2000
    3.7500   -3.8971    0.0000 C   0  0  0  0  0  0  0  0  0  0  0  0
    3.0000   -5.1962    0.0000 C   0  0  0  0  0  0  0  0  0  0  0  0
    1.5000   -5.1962    0.0000 C   0  0  0  0  0  0  0  0  0  0  0  0
    0.7500   -3.8971    0.0000 C   0  0  0  0  0  0  0  0  0  0  0  0
    1.5000   -2.5981    0.0000 C   0  0  0  0  0  0  0  0  0  0  0  0
    3.0000   -2.5981    0.0000 C   0  0  0  0  0  0  0  0  0  0  0  0
    0.7500   -1.2990    0.0000 C   0  0  0  0  0  0  0  0  0  0  0  0
    1.5000    0.0000    0.0000 C   0  0  0  0  0  0  0  0  0  0  0  0
    0.7500    1.2990    0.0000 C   0  0  0  0  0  0  0  0  0  0  0  0
   -0.7500    1.2990    0.0000 C   0  0  0  0  0  0  0  0  0  0  0  0
   -1.5000    0.0000    0.0000 C   0  0  0  0  0  0  0  0  0  0  0  0
   -0.7500   -1.2990    0.0000 C   0  0  0  0  0  0  0  0  0  0  0  0
   -3.0000    0.0000    0.0000 C   0  0  0  0  0  0  0  0  0  0  0  0
   -3.7500    1.2990    0.0000 C   0  0  0  0  0  0  0  0  0  0  0  0
   -3.0000    2.5981    0.0000 N   0  0  0  0  0  0  0  0  0  0  0  0
   -1.5000    2.5981    0.0000 C   0  0  0  0  0  0  0  0  0  0  0  0
   -0.7500    3.8971    0.0000 O   0  0  0  0  0  0  0  0  0  0  0  0
    0.7500   -6.4952    0.0000 C   0  0  0  0  0  0  0  0  0  0  0  0
   -0.7500   -6.4952    0.0000 N   0  0  0  0  0  0  0  0  0  0  0  0
   -1.6317   -7.7087    0.0000 C   0  0  0  0  0  0  0  0  0  0  0  0
   -3.0583   -7.2452    0.0000 C   0  0  0  0  0  0  0  0  0  0  0  0
   -3.0583   -5.7452    0.0000 C   0  0  0  0  0  0  0  0  0  0  0  0
   -1.6317   -5.2817    0.0000 C   0  0  0  0  0  0  0  0  0  0  0  0
   -4.2718   -4.8635    0.0000 N   0  0  0  0  0  0  0  0  0  0  0  0
  1  2  2  0
  2  3  1  0
  3  4  2  0
  4  5  1  0
  5  6  2  0
  5  7  1  0
  7  8  2  0
  8  9  1  0
  9 10  2  0
 10 11  1  0
 11 12  2  0
 11 13  1  0
 13 14  2  0
 14 15  1  0
 15 16  2  0
 16 17  1  0
  3 18  1  0
 18 19  1  0
 19 20  1  0
 20 21  1  0
 21 22  1  0
 22 23  1  0
 22 24  1  0
  6  1  1  0
 12  7  1  0
 16 10  1  0
 23 19  1  0
M  END
>  <Structure>  (234) 
7PIH

>  <Dataset>  (234) 
PDB

>  <Chain>  (234) 
A

>  <Spatial_Label>  (234) 
DFGin

>  <Dihedral_Label>  (234) 
BLAminus

>  <C_Helix_Label>  (234) 
Chelix-in

>  <Lig_ID>  (234) 
7QW

>  <Lig_Entity_ID>  (234) 
7PIH_3

>  <Lig_Name>  (234) 
6-[3-[[(3~{R})-3-azanylpyrrolidin-1-yl]methyl]phenyl]-4~{H}-isoquinolin-1-one

>  <Lig_Formula>  (234) 
C20H21N3O

>  <Lig_SMILES>  (234) 
c1cc(cc(c1)c2ccc3c(c2)ccnc3O)CN4CCC(C4)N

>  <Lig_MW>  (234) 
319.4

>  <Lig_ChEMBL_ID>  (234) 
nan

>  <Lig_DrugBank_ID>  (234) 
nan

>  <Occurence>  (234) 
1.0

>  <Lig_SMILES_Uncharged>  (234) 
NC1CCN(Cc2cccc(-c3ccc4c(O)nccc4c3)c2)C1

>  <Lig_Conformer>  (234) 
['NaN']

>  <Lig_Of_Interest>  (234) 
['Y']

>  <Lig_Completeness>  (234) 
[1.0]

>  <Lig_Occupancy>  (234) 
[1.0]

>  <Lig_RSCC>  (234) 
[0.966]

>  <Lig_RSR>  (234) 
[0.09]

>  <Lig_RMSZ_Bonds>  (234) 
[0.32]

>  <Lig_RMSZ_Angles>  (234) 
[0.8]

>  <Lig_Alt_Conf>  (234) 
0.0

>  <Title>  (234) 
Protein kinase A catalytic subunit in complex with PKI5-24 and EN093

>  <Nonpolymer_Entity_Count>  (234) 
3.0

>  <Protein_Entity_Count>  (234) 
2.0

>  <Exp_Method>  (234) 
X-Ray Diffraction

>  <Cryst_Method>  (234) 
Vapor Diffusion, Sitting Drop; Protein At 8 Mg/Ml In 100 Mm Mes-Bis-Tris pH 6.9, 75 Mm Lithium Chloride, 1 Mm Dtt, 100 Mm Sodium-Edta.  Master-Mix: 540 Ul Of Protein + 15 Ul 10 Mm Mega8 In Water + 45 Ul 10 Mm Pki5-24 In Protein-Buffer. 70 % Master-Mix Mixed With 30 % 50 Mm Ligand In Dmso Before Setting Of Drops. 15-24 % Methanol/Water In Reservoir

>  <Deposit_Date>  (234) 
2021-08-19

>  <Resolution>  (234) 
1.374

>  <DOI>  (234) 
https://doi.org/10.1021/acs.jmedchem.2c00813

>  <Source_Organism>  (234) 
Cricetulus griseus

>  <R_Free>  (234) 
0.156667

>  <Keywords>  (234) 
Transferase

>  <REMARK_280>  (234) 
 Crystal Solvent Content, Vs (%): 54.27 Matthews Coefficient, Vm (Angstroms**3/Da): 2.69 Crystallization Conditions: Protein At 8 Mg/Ml In 100 Mm Mes-Bis -Tris pH 6.9, 75 Mm Lithium Chloride, 1 Mm Dtt, 100 Mm Sodium- Edta. Master-Mix: 540 Ul Of Protein + 15 Ul 10 Mm Mega8 In Water + 45 Ul 10 Mm Pki5-24 In Protein-Buffer. 70 % Master-Mix Mixed With 30 % 50 Mm Ligand In Dmso Before Setting Of Drops. 15-24 % Methanol/Water In Reservoir, Vapor Diffusion, Sitting Drop, Temperature 277.15K 

>  <REMARK_610>  (234) 
nan

>  <pH>  (234) 
6.9

>  <Cryst_Technique>  (234) 
co-crystallized

>  <Sequence>  (234) 
GHMGNAAAAKKGSEQESVKEFLAKAKEEFLKKWESPSQNTAQLDHFDRIKTLGTGSFGRVMLVKHKETGNHYAMKILDKQKVVKLKQIEHTLNEKRILQAVNFPFLVKLEFSFKDNSNLYMVMEYVPGGEMFSHLRRIGRFSEPHARFYAAQIVLTFEYLHSLDLIYRDLKPENLLIDQQGYIQVTDFGFAKRVKGRTWTLCGTPEYLAPEIILSKGYNKAVDWWALGVLIYEMAAGYPPFFADQPIQIYEKIVSGKVRFPSHFSSDLKDLLRNLLQVDLTKRFGNLKNGVNDIKNHKWFATTDWIAIYQRKVEAPFIPKFKGPGDTSNFDDYEEEEIRVSINEKCGKEFTEF

>  <Sequence_Length>  (234) 
353.0

>  <Mutation_Count>  (234) 
0.0

>  <Gene_Name>  (234) 
PKACA

>  <MW>  (234) 
41.194

>  <Name>  (234) 
cAMP-Dependent Protein Kinase Catalytic Subunit Alpha

>  <Mutations>  (234) 
nan

>  <EC_Number>  (234) 
2.7.11.11

>  <Peptidic_Inhibitor>  (234) 
True

>  <Lig_Missing_Atoms>  (234) 
['No']

>  <PDBbind_Resolution>  (234) 
nan

>  <PDBbind_Release_Year>  (234) 
nan

>  <PDBbind_Comment>  (234) 
nan

>  <PDBbind_Uniprot_Id>  (234) 
nan

>  <PDBbind_Protein_Name>  (234) 
nan

>  <PDBbind_-Logkd/Ki>  (234) 
nan

>  <PDBbind_Kd/Ki>  (234) 
nan

>  <PDBbind_Kd_Or_Ki_Or_Ic50>  (234) 
nan

>  <PDBbind_Relation>  (234) 
nan

>  <PDBbind_Value>  (234) 
nan

>  <PDBbind_Unit>  (234) 
nan

>  <PDBbind_Standard_Value>  (234) 
nan

>  <PDBbind_Standard_Unit>  (234) 
nan

>  <PDB_Chain>  (234) 
['A']

>  <Num_Ligs>  (234) 
[1.0]

>  <Orthosteric>  (234) 
[1.0]

>  <Allosteric>  (234) 
[0.0]

>  <Pockets_Assigned>  (234) 
['A']

>  <Multisite>  (234) 
[False]

>  <Same_Number>  (234) 
True

>  <Same_Binding_Site>  (234) 
True

>  <Same_Orientation>  (234) 
True

>  <Lig_Order_in_.pdb>  (234) 
Orthosteric

$$$$

     RDKit          2D

 23 25  0  0  0  0  0  0  0  0999 V2000
    7.5000   -5.1962    0.0000 C   0  0  0  0  0  0  0  0  0  0  0  0
    6.0000   -5.1962    0.0000 N   0  0  0  0  0  0  0  0  0  0  0  0
    5.2500   -6.4952    0.0000 C   0  0  0  0  0  0  0  0  0  0  0  0
    5.2500   -3.8971    0.0000 C   0  0  0  0  0  0  0  0  0  0  0  0
    3.7500   -3.8971    0.0000 C   0  0  0  0  0  0  0  0  0  0  0  0
    3.0000   -5.1962    0.0000 C   0  0  0  0  0  0  0  0  0  0  0  0
    1.5000   -5.1962    0.0000 C   0  0  0  0  0  0  0  0  0  0  0  0
    0.7500   -3.8971    0.0000 C   0  0  0  0  0  0  0  0  0  0  0  0
    1.5000   -2.5981    0.0000 C   0  0  0  0  0  0  0  0  0  0  0  0
    3.0000   -2.5981    0.0000 C   0  0  0  0  0  0  0  0  0  0  0  0
    0.7500   -1.2990    0.0000 C   0  0  0  0  0  0  0  0  0  0  0  0
    1.5000    0.0000    0.0000 C   0  0  0  0  0  0  0  0  0  0  0  0
    0.7500    1.2990    0.0000 C   0  0  0  0  0  0  0  0  0  0  0  0
   -0.7500    1.2990    0.0000 C   0  0  0  0  0  0  0  0  0  0  0  0
   -1.5000    0.0000    0.0000 C   0  0  0  0  0  0  0  0  0  0  0  0
   -0.7500   -1.2990    0.0000 C   0  0  0  0  0  0  0  0  0  0  0  0
   -2.9672    0.3119    0.0000 N   0  0  0  0  0  0  0  0  0  0  0  0
   -3.1240    1.8037    0.0000 C   0  0  0  0  0  0  0  0  0  0  0  0
   -1.7537    2.4138    0.0000 C   0  0  0  0  0  0  0  0  0  0  0  0
   -1.4418    3.8810    0.0000 C   0  0  0  0  0  0  0  0  0  0  0  0
   -1.1300    5.3482    0.0000 N   0  0  0  0  0  0  0  0  0  0  0  0
   -4.4231    2.5537    0.0000 N   0  0  0  0  0  0  0  0  0  0  0  0
   -0.7500   -3.8971    0.0000 F   0  0  0  0  0  0  0  0  0  0  0  0
  1  2  1  0
  2  3  1  0
  2  4  1  0
  4  5  1  0
  5  6  2  0
  6  7  1  0
  7  8  2  0
  8  9  1  0
  9 10  2  0
  9 11  1  0
 11 12  2  0
 12 13  1  0
 13 14  2  0
 14 15  1  0
 15 16  2  0
 15 17  1  0
 17 18  1  0
 18 19  2  0
 19 20  1  0
 20 21  3  0
 18 22  1  0
  8 23  1  0
 10  5  1  0
 16 11  1  0
 19 14  1  0
M  END
>  <Structure>  (235) 
7PNS

>  <Dataset>  (235) 
PDB

>  <Chain>  (235) 
A

>  <Spatial_Label>  (235) 
DFGin

>  <Dihedral_Label>  (235) 
ABAminus

>  <C_Helix_Label>  (235) 
Chelix-in

>  <Lig_ID>  (235) 
7W8

>  <Lig_Entity_ID>  (235) 
7PNS_4

>  <Lig_Name>  (235) 
2-azanyl-6-[5-[(dimethylamino)methyl]-2-fluoranyl-phenyl]-1H-indole-3-carbonitrile

>  <Lig_Formula>  (235) 
C18H17FN4

>  <Lig_SMILES>  (235) 
CN(C)Cc1ccc(c(c1)c2ccc3c(c2)[nH]c(c3C#N)N)F

>  <Lig_MW>  (235) 
308.353

>  <Lig_ChEMBL_ID>  (235) 
nan

>  <Lig_DrugBank_ID>  (235) 
nan

>  <Occurence>  (235) 
1.0

>  <Lig_SMILES_Uncharged>  (235) 
CN(C)Cc1ccc(F)c(-c2ccc3c(C#N)c(N)[nH]c3c2)c1

>  <Lig_Conformer>  (235) 
['NaN']

>  <Lig_Of_Interest>  (235) 
['Y']

>  <Lig_Completeness>  (235) 
[0.8696]

>  <Lig_Occupancy>  (235) 
[0.8696]

>  <Lig_RSCC>  (235) 
[0.881]

>  <Lig_RSR>  (235) 
[0.148]

>  <Lig_RMSZ_Bonds>  (235) 
[0.78]

>  <Lig_RMSZ_Angles>  (235) 
[0.73]

>  <Lig_Alt_Conf>  (235) 
0.0

>  <Title>  (235) 
Protein kinase A catalytic subunit in complex with PKI5-24 and EN081

>  <Nonpolymer_Entity_Count>  (235) 
2.0

>  <Protein_Entity_Count>  (235) 
2.0

>  <Exp_Method>  (235) 
X-Ray Diffraction

>  <Cryst_Method>  (235) 
Vapor Diffusion, Sitting Drop; Protein At 8 Mg/Ml In 100 Mm Mes-Bis-Tris pH 6.9, 75 Mm Lithium Chloride, 1 Mm Dtt, 100 Mm Sodium-Edta.  Master-Mix: 540 Ul Of Protein + 15 Ul 10 Mm Mega8 In Water + 45 Ul 10 Mm Pki5-24 In Protein-Buffer. 70 % Master-Mix Mixed With 30 % 50 Mm Ligand In Dmso Before Setting Of Drops. 15-24 % Methanol/Water In Reservoir.

>  <Deposit_Date>  (235) 
2021-09-07

>  <Resolution>  (235) 
1.855

>  <DOI>  (235) 
https://doi.org/10.1021/acs.jmedchem.2c00813

>  <Source_Organism>  (235) 
Cricetulus griseus

>  <R_Free>  (235) 
0.20153

>  <Keywords>  (235) 
Transferase

>  <REMARK_280>  (235) 
 Crystal Solvent Content, Vs (%): 45.80 Matthews Coefficient, Vm (Angstroms**3/Da): 2.27 Crystallization Conditions: Protein At 8 Mg/Ml In 100 Mm Mes-Bis -Tris pH 6.9, 75 Mm Lithium Chloride, 1 Mm Dtt, 100 Mm Sodium- Edta. Master-Mix: 540 Ul Of Protein + 15 Ul 10 Mm Mega8 In Water + 45 Ul 10 Mm Pki5-24 In Protein-Buffer. 70 % Master-Mix Mixed With 30 % 50 Mm Ligand In Dmso Before Setting Of Drops. 15-24 % Methanol/Water In Reservoir., Vapor Diffusion, Sitting Drop, Temperature 277.15K 

>  <REMARK_610>  (235) 
  7W8 A 402 

>  <pH>  (235) 
6.9

>  <Cryst_Technique>  (235) 
co-crystallized

>  <Sequence>  (235) 
GHMGNAAAAKKGSEQESVKEFLAKAKEEFLKKWESPSQNTAQLDHFDRIKTLGTGSFGRVMLVKHKETGNHYAMKILDKQKVVKLKQIEHTLNEKRILQAVNFPFLVKLEFSFKDNSNLYMVMEYVPGGEMFSHLRRIGRFSEPHARFYAAQIVLTFEYLHSLDLIYRDLKPENLLIDQQGYIQVTDFGFAKRVKGRTWTLCGTPEYLAPEIILSKGYNKAVDWWALGVLIYEMAAGYPPFFADQPIQIYEKIVSGKVRFPSHFSSDLKDLLRNLLQVDLTKRFGNLKNGVNDIKNHKWFATTDWIAIYQRKVEAPFIPKFKGPGDTSNFDDYEEEEIRVSINEKCGKEFTEF

>  <Sequence_Length>  (235) 
353.0

>  <Mutation_Count>  (235) 
0.0

>  <Gene_Name>  (235) 
PKACA

>  <MW>  (235) 
41.194

>  <Name>  (235) 
cAMP-Dependent Protein Kinase Catalytic Subunit Alpha

>  <Mutations>  (235) 
nan

>  <EC_Number>  (235) 
2.7.11.11

>  <Peptidic_Inhibitor>  (235) 
True

>  <Lig_Missing_Atoms>  (235) 
['No']

>  <PDBbind_Resolution>  (235) 
nan

>  <PDBbind_Release_Year>  (235) 
nan

>  <PDBbind_Comment>  (235) 
nan

>  <PDBbind_Uniprot_Id>  (235) 
nan

>  <PDBbind_Protein_Name>  (235) 
nan

>  <PDBbind_-Logkd/Ki>  (235) 
nan

>  <PDBbind_Kd/Ki>  (235) 
nan

>  <PDBbind_Kd_Or_Ki_Or_Ic50>  (235) 
nan

>  <PDBbind_Relation>  (235) 
nan

>  <PDBbind_Value>  (235) 
nan

>  <PDBbind_Unit>  (235) 
nan

>  <PDBbind_Standard_Value>  (235) 
nan

>  <PDBbind_Standard_Unit>  (235) 
nan

>  <PDB_Chain>  (235) 
['A']

>  <Num_Ligs>  (235) 
[1.0]

>  <Orthosteric>  (235) 
[1.0]

>  <Allosteric>  (235) 
[0.0]

>  <Pockets_Assigned>  (235) 
['A']

>  <Multisite>  (235) 
[False]

>  <Same_Number>  (235) 
True

>  <Same_Binding_Site>  (235) 
True

>  <Same_Orientation>  (235) 
True

>  <Lig_Order_in_.pdb>  (235) 
Orthosteric

$$$$

     RDKit          2D

 27 29  0  0  0  0  0  0  0  0999 V2000
    1.5000    0.0000    0.0000 C   0  0  0  0  0  0  0  0  0  0  0  0
    0.7500   -1.2990    0.0000 N   0  0  0  0  0  0  0  0  0  0  0  0
   -0.7500   -1.2990    0.0000 C   0  0  0  0  0  0  0  0  0  0  0  0
   -1.5000    0.0000    0.0000 C   0  0  0  0  0  0  0  0  0  0  0  0
   -0.7500    1.2990    0.0000 C   0  0  0  0  0  0  0  0  0  0  0  0
    0.7500    1.2990    0.0000 N   0  0  0  0  0  0  0  0  0  0  0  0
   -1.7537    2.4138    0.0000 N   0  0  0  0  0  0  0  0  0  0  0  0
   -3.1240    1.8037    0.0000 C   0  0  0  0  0  0  0  0  0  0  0  0
   -2.9672    0.3119    0.0000 N   0  0  0  0  0  0  0  0  0  0  0  0
   -1.4418    3.8810    0.0000 C   0  0  0  0  0  0  0  0  0  0  0  0
   -2.4455    4.9957    0.0000 C   0  0  0  0  0  0  0  0  0  0  0  0
   -1.6955    6.2947    0.0000 C   0  0  0  0  0  0  0  0  0  0  0  0
   -0.2283    5.9829    0.0000 C   0  0  0  0  0  0  0  0  0  0  0  0
   -0.0715    4.4911    0.0000 O   0  0  0  0  0  0  0  0  0  0  0  0
    0.8864    6.9866    0.0000 C   0  0  0  0  0  0  0  0  0  0  0  0
    2.3130    6.5230    0.0000 O   0  0  0  0  0  0  0  0  0  0  0  0
    3.4277    7.5267    0.0000 P   0  0  0  0  0  5  0  0  0  0  0  0
    2.4240    8.6414    0.0000 O   0  0  0  0  0  0  0  0  0  0  0  0
    4.4314    6.4120    0.0000 O   0  0  0  0  0  0  0  0  0  0  0  0
    4.5424    8.5304    0.0000 O   0  0  0  0  0  0  0  0  0  0  0  0
    4.2306    9.9976    0.0000 P   0  0  0  0  0  0  0  0  0  0  0  0
    5.6978   10.3095    0.0000 O   0  0  0  0  0  0  0  0  0  0  0  0
    2.7633    9.6858    0.0000 O   0  0  0  0  0  0  0  0  0  0  0  0
    3.9187   11.4649    0.0000 O   0  0  0  0  0  0  0  0  0  0  0  0
   -2.3056    7.6651    0.0000 O   0  0  0  0  0  0  0  0  0  0  0  0
   -3.9373    4.8389    0.0000 O   0  0  0  0  0  0  0  0  0  0  0  0
   -1.5000   -2.5981    0.0000 N   0  0  0  0  0  0  0  0  0  0  0  0
  1  2  2  0
  2  3  1  0
  3  4  2  0
  4  5  1  0
  5  6  2  0
  5  7  1  0
  7  8  1  0
  8  9  2  0
 10  7  1  1
 10 11  1  0
 11 12  1  0
 12 13  1  0
 13 14  1  0
 13 15  1  1
 15 16  1  0
 16 17  1  0
 17 18  2  0
 17 19  1  6
 17 20  1  0
 20 21  1  0
 21 22  2  0
 21 23  1  0
 21 24  1  0
 12 25  1  6
 11 26  1  6
  3 27  1  0
  6  1  1  0
  9  4  1  0
 14 10  1  0
M  END
>  <Structure>  (236) 
7UJX

>  <Dataset>  (236) 
PDB

>  <Chain>  (236) 
E

>  <Spatial_Label>  (236) 
DFGin

>  <Dihedral_Label>  (236) 
BLAminus

>  <C_Helix_Label>  (236) 
Chelix-in

>  <Lig_ID>  (236) 
ADP

>  <Lig_Entity_ID>  (236) 
7UJX_3

>  <Lig_Name>  (236) 
ADENOSINE-5'-DIPHOSPHATE

>  <Lig_Formula>  (236) 
C10H15N5O10P2

>  <Lig_SMILES>  (236) 
c1nc(c2c(n1)n(cn2)[C@H]3[C@@H]([C@@H]([C@H](O3)CO[P@](=O)(O)OP(=O)(O)O)O)O)N

>  <Lig_MW>  (236) 
427.201

>  <Lig_ChEMBL_ID>  (236) 
['CHEMBL14830']

>  <Lig_DrugBank_ID>  (236) 
['DB16833']

>  <Occurence>  (236) 
19.0

>  <Lig_SMILES_Uncharged>  (236) 
Nc1ncnc2c1ncn2[C@@H]1O[C@H](CO[P@](=O)(O)OP(=O)(O)O)[C@@H](O)[C@H]1O

>  <Lig_Conformer>  (236) 
['NaN']

>  <Lig_Of_Interest>  (236) 
['Y']

>  <Lig_Completeness>  (236) 
[1.0]

>  <Lig_Occupancy>  (236) 
[1.0]

>  <Lig_RSCC>  (236) 
[0.989]

>  <Lig_RSR>  (236) 
[0.097]

>  <Lig_RMSZ_Bonds>  (236) 
[1.0]

>  <Lig_RMSZ_Angles>  (236) 
[1.4]

>  <Lig_Alt_Conf>  (236) 
0.0

>  <Title>  (236) 
Structure of cAMP-dependent protein kinase using a MD-MX procedure, produced using 2.4 Angstrom data

>  <Nonpolymer_Entity_Count>  (236) 
5.0

>  <Protein_Entity_Count>  (236) 
2.0

>  <Exp_Method>  (236) 
X-Ray Diffraction

>  <Cryst_Method>  (236) 
Vapor Diffusion, Hanging Drop; 20% Peg 4000, 0.05 M Mes pH 5.2, 0.05 M Mgcl2, And 0.005 M Dtt

>  <Deposit_Date>  (236) 
2022-03-31

>  <Resolution>  (236) 
2.4

>  <DOI>  (236) 
https://doi.org/10.1107/S2059798322011871

>  <Source_Organism>  (236) 
Mus musculus

>  <R_Free>  (236) 
0.1765

>  <Keywords>  (236) 
Transferase/Inhibitor

>  <REMARK_280>  (236) 
 Crystal Solvent Content, Vs (%): 54.75 Matthews Coefficient, Vm (Angstroms**3/Da): 2.72 Crystallization Conditions: 20% Peg 4000, 0.05 M Mes pH 5.2, 0.05 M Mgcl2, And 0.005 M Dtt, pH 6.5, Vapor Diffusion, Hanging Drop, Temperature 293K 

>  <REMARK_610>  (236) 
nan

>  <pH>  (236) 
5.2

>  <Cryst_Technique>  (236) 
co-crystallized

>  <Sequence>  (236) 
GNAAAAKKGSEQESVKEFLAKAKEDFLKKWETPSQNTAQLDQFDRIKTLGTGSFGRVMLVKHKESGNHYAMKILDKQKVVKLKQIEHTLNEKRILQAVNFPFLVKLEFSFKDNSNLYMVMEYVAGGEMFSHLRRIGRFSEPHARFYAAQIVLTFEYLHSLDLIYRDLKPENLLIDQQGYIQVTDFGFAKRVKGRTWTLCGTPEYLAPEIILSKGYNKAVDWWALGVLIYEMAAGYPPFFADQPIQIYEKIVSGKVRFPSHFSSDLKDLLRNLLQVDLTKRFGNLKNGVNDIKNHKWFATTDWIAIYQRKVEAPFIPKFKGPGDTSNFDDYEEEEIRVSINEKCGKEFTEF

>  <Sequence_Length>  (236) 
350.0

>  <Mutation_Count>  (236) 
0.0

>  <Gene_Name>  (236) 
PKACA

>  <MW>  (236) 
40.737

>  <Name>  (236) 
cAMP-Dependent Protein Kinase Catalytic Subunit Alpha

>  <Mutations>  (236) 
nan

>  <EC_Number>  (236) 
2.7.11.11

>  <Peptidic_Inhibitor>  (236) 
True

>  <Lig_Missing_Atoms>  (236) 
['No']

>  <PDBbind_Resolution>  (236) 
nan

>  <PDBbind_Release_Year>  (236) 
nan

>  <PDBbind_Comment>  (236) 
nan

>  <PDBbind_Uniprot_Id>  (236) 
nan

>  <PDBbind_Protein_Name>  (236) 
nan

>  <PDBbind_-Logkd/Ki>  (236) 
nan

>  <PDBbind_Kd/Ki>  (236) 
nan

>  <PDBbind_Kd_Or_Ki_Or_Ic50>  (236) 
nan

>  <PDBbind_Relation>  (236) 
nan

>  <PDBbind_Value>  (236) 
nan

>  <PDBbind_Unit>  (236) 
nan

>  <PDBbind_Standard_Value>  (236) 
nan

>  <PDBbind_Standard_Unit>  (236) 
nan

>  <PDB_Chain>  (236) 
['E']

>  <Num_Ligs>  (236) 
[1.0]

>  <Orthosteric>  (236) 
[1.0]

>  <Allosteric>  (236) 
[0.0]

>  <Pockets_Assigned>  (236) 
['A']

>  <Multisite>  (236) 
[False]

>  <Same_Number>  (236) 
True

>  <Same_Binding_Site>  (236) 
True

>  <Same_Orientation>  (236) 
True

>  <Lig_Order_in_.pdb>  (236) 
Orthosteric

$$$$

     RDKit          2D

 27 29  0  0  0  0  0  0  0  0999 V2000
    1.5000    0.0000    0.0000 C   0  0  0  0  0  0  0  0  0  0  0  0
    0.7500   -1.2990    0.0000 N   0  0  0  0  0  0  0  0  0  0  0  0
   -0.7500   -1.2990    0.0000 C   0  0  0  0  0  0  0  0  0  0  0  0
   -1.5000    0.0000    0.0000 C   0  0  0  0  0  0  0  0  0  0  0  0
   -0.7500    1.2990    0.0000 C   0  0  0  0  0  0  0  0  0  0  0  0
    0.7500    1.2990    0.0000 N   0  0  0  0  0  0  0  0  0  0  0  0
   -1.7537    2.4138    0.0000 N   0  0  0  0  0  0  0  0  0  0  0  0
   -3.1240    1.8037    0.0000 C   0  0  0  0  0  0  0  0  0  0  0  0
   -2.9672    0.3119    0.0000 N   0  0  0  0  0  0  0  0  0  0  0  0
   -1.4418    3.8810    0.0000 C   0  0  0  0  0  0  0  0  0  0  0  0
   -2.4455    4.9957    0.0000 C   0  0  0  0  0  0  0  0  0  0  0  0
   -1.6955    6.2947    0.0000 C   0  0  0  0  0  0  0  0  0  0  0  0
   -0.2283    5.9829    0.0000 C   0  0  0  0  0  0  0  0  0  0  0  0
   -0.0715    4.4911    0.0000 O   0  0  0  0  0  0  0  0  0  0  0  0
    0.8864    6.9866    0.0000 C   0  0  0  0  0  0  0  0  0  0  0  0
    2.3130    6.5230    0.0000 O   0  0  0  0  0  0  0  0  0  0  0  0
    3.4277    7.5267    0.0000 P   0  0  0  0  0  5  0  0  0  0  0  0
    2.4240    8.6414    0.0000 O   0  0  0  0  0  0  0  0  0  0  0  0
    4.4314    6.4120    0.0000 O   0  0  0  0  0  0  0  0  0  0  0  0
    4.5424    8.5304    0.0000 O   0  0  0  0  0  0  0  0  0  0  0  0
    4.2306    9.9976    0.0000 P   0  0  0  0  0  0  0  0  0  0  0  0
    5.6978   10.3095    0.0000 O   0  0  0  0  0  0  0  0  0  0  0  0
    2.7633    9.6858    0.0000 O   0  0  0  0  0  0  0  0  0  0  0  0
    3.9187   11.4649    0.0000 O   0  0  0  0  0  0  0  0  0  0  0  0
   -2.3056    7.6651    0.0000 O   0  0  0  0  0  0  0  0  0  0  0  0
   -3.9373    4.8389    0.0000 O   0  0  0  0  0  0  0  0  0  0  0  0
   -1.5000   -2.5981    0.0000 N   0  0  0  0  0  0  0  0  0  0  0  0
  1  2  2  0
  2  3  1  0
  3  4  2  0
  4  5  1  0
  5  6  2  0
  5  7  1  0
  7  8  1  0
  8  9  2  0
 10  7  1  1
 10 11  1  0
 11 12  1  0
 12 13  1  0
 13 14  1  0
 13 15  1  1
 15 16  1  0
 16 17  1  0
 17 18  2  0
 17 19  1  6
 17 20  1  0
 20 21  1  0
 21 22  2  0
 21 23  1  0
 21 24  1  0
 12 25  1  6
 11 26  1  6
  3 27  1  0
  6  1  1  0
  9  4  1  0
 14 10  1  0
M  END
>  <Structure>  (237) 
7V0G

>  <Dataset>  (237) 
PDB

>  <Chain>  (237) 
E

>  <Spatial_Label>  (237) 
DFGin

>  <Dihedral_Label>  (237) 
BLAminus

>  <C_Helix_Label>  (237) 
Chelix-in

>  <Lig_ID>  (237) 
ADP

>  <Lig_Entity_ID>  (237) 
7V0G_3

>  <Lig_Name>  (237) 
ADENOSINE-5'-DIPHOSPHATE

>  <Lig_Formula>  (237) 
C10H15N5O10P2

>  <Lig_SMILES>  (237) 
c1nc(c2c(n1)n(cn2)[C@H]3[C@@H]([C@@H]([C@H](O3)CO[P@](=O)(O)OP(=O)(O)O)O)O)N

>  <Lig_MW>  (237) 
427.201

>  <Lig_ChEMBL_ID>  (237) 
['CHEMBL14830']

>  <Lig_DrugBank_ID>  (237) 
['DB16833']

>  <Occurence>  (237) 
19.0

>  <Lig_SMILES_Uncharged>  (237) 
Nc1ncnc2c1ncn2[C@@H]1O[C@H](CO[P@](=O)(O)OP(=O)(O)O)[C@@H](O)[C@H]1O

>  <Lig_Conformer>  (237) 
['NaN']

>  <Lig_Of_Interest>  (237) 
['Y']

>  <Lig_Completeness>  (237) 
[1.0]

>  <Lig_Occupancy>  (237) 
[1.0]

>  <Lig_RSCC>  (237) 
[0.991]

>  <Lig_RSR>  (237) 
[0.087]

>  <Lig_RMSZ_Bonds>  (237) 
[0.87]

>  <Lig_RMSZ_Angles>  (237) 
[1.31]

>  <Lig_Alt_Conf>  (237) 
0.0

>  <Title>  (237) 
Structure of cAMP-dependent protein kinase using a MD-MX procedure, produced using 1.63 Angstrom data

>  <Nonpolymer_Entity_Count>  (237) 
5.0

>  <Protein_Entity_Count>  (237) 
2.0

>  <Exp_Method>  (237) 
X-Ray Diffraction

>  <Cryst_Method>  (237) 
Vapor Diffusion, Hanging Drop; 20% Peg 4000, 0.05 M Mes pH 5.2, 0.05 M Mgcl2, And 0.005 M Dtt

>  <Deposit_Date>  (237) 
2022-05-10

>  <Resolution>  (237) 
1.63

>  <DOI>  (237) 
https://doi.org/10.1107/S2059798322011871

>  <Source_Organism>  (237) 
Mus musculus

>  <R_Free>  (237) 
0.1625

>  <Keywords>  (237) 
Transferase

>  <REMARK_280>  (237) 
 Crystal Solvent Content, Vs (%): 54.75 Matthews Coefficient, Vm (Angstroms**3/Da): 2.72 Crystallization Conditions: 20% Peg 4000, 0.05 M Mes pH 5.2, 0.05 M Mgcl2, And 0.005 M Dtt, pH 6.5, Vapor Diffusion, Hanging Drop, Temperature 293K 

>  <REMARK_610>  (237) 
nan

>  <pH>  (237) 
5.2

>  <Cryst_Technique>  (237) 
co-crystallized

>  <Sequence>  (237) 
GNAAAAKKGSEQESVKEFLAKAKEDFLKKWETPSQNTAQLDQFDRIKTLGTGSFGRVMLVKHKESGNHYAMKILDKQKVVKLKQIEHTLNEKRILQAVNFPFLVKLEFSFKDNSNLYMVMEYVAGGEMFSHLRRIGRFSEPHARFYAAQIVLTFEYLHSLDLIYRDLKPENLLIDQQGYIQVTDFGFAKRVKGRTWTLCGTPEYLAPEIILSKGYNKAVDWWALGVLIYEMAAGYPPFFADQPIQIYEKIVSGKVRFPSHFSSDLKDLLRNLLQVDLTKRFGNLKNGVNDIKNHKWFATTDWIAIYQRKVEAPFIPKFKGPGDTSNFDDYEEEEIRVSINEKCGKEFTEF

>  <Sequence_Length>  (237) 
350.0

>  <Mutation_Count>  (237) 
0.0

>  <Gene_Name>  (237) 
PKACA

>  <MW>  (237) 
40.737

>  <Name>  (237) 
cAMP-Dependent Protein Kinase Catalytic Subunit Alpha

>  <Mutations>  (237) 
nan

>  <EC_Number>  (237) 
2.7.11.11

>  <Peptidic_Inhibitor>  (237) 
True

>  <Lig_Missing_Atoms>  (237) 
['No']

>  <PDBbind_Resolution>  (237) 
nan

>  <PDBbind_Release_Year>  (237) 
nan

>  <PDBbind_Comment>  (237) 
nan

>  <PDBbind_Uniprot_Id>  (237) 
nan

>  <PDBbind_Protein_Name>  (237) 
nan

>  <PDBbind_-Logkd/Ki>  (237) 
nan

>  <PDBbind_Kd/Ki>  (237) 
nan

>  <PDBbind_Kd_Or_Ki_Or_Ic50>  (237) 
nan

>  <PDBbind_Relation>  (237) 
nan

>  <PDBbind_Value>  (237) 
nan

>  <PDBbind_Unit>  (237) 
nan

>  <PDBbind_Standard_Value>  (237) 
nan

>  <PDBbind_Standard_Unit>  (237) 
nan

>  <PDB_Chain>  (237) 
['E']

>  <Num_Ligs>  (237) 
[1.0]

>  <Orthosteric>  (237) 
[1.0]

>  <Allosteric>  (237) 
[0.0]

>  <Pockets_Assigned>  (237) 
['A']

>  <Multisite>  (237) 
[False]

>  <Same_Number>  (237) 
True

>  <Same_Binding_Site>  (237) 
True

>  <Same_Orientation>  (237) 
True

>  <Lig_Order_in_.pdb>  (237) 
Orthosteric

$$$$

     RDKit          2D

 32 35  0  0  0  0  0  0  0  0999 V2000
   -3.0000   -5.1962    0.0000 C   0  0  0  0  0  0  0  0  0  0  0  0
   -1.5000   -5.1962    0.0000 O   0  0  0  0  0  0  0  0  0  0  0  0
   -0.7500   -3.8971    0.0000 C   0  0  0  0  0  0  0  0  0  0  0  0
   -1.5000   -2.5981    0.0000 C   0  0  0  0  0  0  0  0  0  0  0  0
   -0.7500   -1.2990    0.0000 C   0  0  0  0  0  0  0  0  0  0  0  0
    0.7500   -1.2990    0.0000 C   0  0  0  0  0  0  0  0  0  0  0  0
    1.5000    0.0000    0.0000 C   0  0  0  0  0  0  0  0  0  0  0  0
    0.7500    1.2990    0.0000 C   0  0  0  0  0  0  0  0  0  0  0  0
   -0.7500    1.2990    0.0000 N   0  0  0  0  0  0  0  0  0  0  0  0
   -1.5000    0.0000    0.0000 C   0  0  0  0  0  0  0  0  0  0  0  0
   -3.0000    0.0000    0.0000 Cl  0  0  0  0  0  0  0  0  0  0  0  0
    1.5000   -2.5981    0.0000 C   0  0  0  0  0  0  0  0  0  0  0  0
    0.7500   -3.8971    0.0000 C   0  0  0  0  0  0  0  0  0  0  0  0
    1.5000   -5.1962    0.0000 C   0  0  0  0  0  0  0  0  0  0  0  0
    3.0000   -5.1962    0.0000 O   0  0  0  0  0  0  0  0  0  0  0  0
    0.7500   -6.4952    0.0000 N   0  0  0  0  0  0  0  0  0  0  0  0
    1.5000   -7.7942    0.0000 C   0  0  0  0  0  0  0  0  0  0  0  0
    0.7500   -9.0933    0.0000 C   0  0  0  0  0  0  0  0  0  0  0  0
   -0.7500   -9.0933    0.0000 C   0  0  0  0  0  0  0  0  0  0  0  0
   -1.5000  -10.3923    0.0000 C   0  0  0  0  0  0  0  0  0  0  0  0
   -0.7500  -11.6913    0.0000 C   0  0  0  0  0  0  0  0  0  0  0  0
    0.7500  -11.6913    0.0000 C   0  0  0  0  0  0  0  0  0  0  0  0
    1.5000  -10.3923    0.0000 C   0  0  0  0  0  0  0  0  0  0  0  0
    1.5000  -12.9904    0.0000 Cl  0  0  0  0  0  0  0  0  0  0  0  0
   -1.5000  -12.9904    0.0000 C   0  0  0  0  0  0  0  0  0  0  0  0
   -2.2500  -14.2894    0.0000 N   0  0  0  0  0  0  0  0  0  0  0  0
    3.0000   -7.7942    0.0000 C   0  0  0  0  0  0  0  0  0  0  0  0
    3.8817   -6.5807    0.0000 C   0  0  0  0  0  0  0  0  0  0  0  0
    5.3083   -7.0442    0.0000 C   0  0  0  0  0  0  0  0  0  0  0  0
    5.3083   -8.5442    0.0000 C   0  0  0  0  0  0  0  0  0  0  0  0
    3.8817   -9.0078    0.0000 N   0  0  0  0  0  0  0  0  0  0  0  0
    6.5218   -6.1626    0.0000 O   0  0  0  0  0  0  0  0  0  0  0  0
  1  2  1  0
  2  3  1  0
  3  4  2  0
  4  5  1  0
  5  6  2  0
  6  7  1  0
  7  8  2  0
  8  9  1  0
  9 10  2  0
 10 11  1  0
  6 12  1  0
 12 13  2  0
 13 14  1  0
 14 15  2  0
 14 16  1  0
 17 16  1  6
 17 18  1  0
 18 19  2  0
 19 20  1  0
 20 21  2  0
 21 22  1  0
 22 23  2  0
 22 24  1  0
 21 25  1  0
 25 26  3  0
 17 27  1  0
 27 28  1  1
 28 29  1  0
 29 30  1  0
 30 31  1  0
 29 32  1  6
 13  3  1  0
 10  5  1  0
 23 18  1  0
 31 27  1  0
M  END
>  <Structure>  (238) 
7Y1G

>  <Dataset>  (238) 
PDB

>  <Chain>  (238) 
['A', 'B']

>  <Spatial_Label>  (238) 
DFGin

>  <Dihedral_Label>  (238) 
['BLAminus', 'ABAminus']

>  <C_Helix_Label>  (238) 
Chelix-in

>  <Lig_ID>  (238) 
I5G

>  <Lig_Entity_ID>  (238) 
7Y1G_2

>  <Lig_Name>  (238) 
1-chloranyl-~{N}-[(~{S})-(3-chloranyl-4-cyano-phenyl)-[(2~{R},4~{S})-4-oxidanylpyrrolidin-2-yl]methyl]-7-methoxy-isoquinoline-6-carboxamide

>  <Lig_Formula>  (238) 
C23H20Cl2N4O3

>  <Lig_SMILES>  (238) 
COc1cc2c(ccnc2Cl)cc1C(=O)N[C@@H](c3ccc(c(c3)Cl)C#N)[C@H]4C[C@@H](CN4)O

>  <Lig_MW>  (238) 
471.336

>  <Lig_ChEMBL_ID>  (238) 
nan

>  <Lig_DrugBank_ID>  (238) 
nan

>  <Occurence>  (238) 
1.0

>  <Lig_SMILES_Uncharged>  (238) 
COc1cc2c(Cl)nccc2cc1C(=O)N[C@@H](c1ccc(C#N)c(Cl)c1)[C@H]1C[C@H](O)CN1

>  <Lig_Conformer>  (238) 
['NaN', 'NaN']

>  <Lig_Of_Interest>  (238) 
['Y', 'Y']

>  <Lig_Completeness>  (238) 
[1.0, 1.0]

>  <Lig_Occupancy>  (238) 
[1.0, 1.0]

>  <Lig_RSCC>  (238) 
[0.965, 0.965]

>  <Lig_RSR>  (238) 
[0.122, 0.102]

>  <Lig_RMSZ_Bonds>  (238) 
[1.22, 1.41]

>  <Lig_RMSZ_Angles>  (238) 
[1.62, 1.6]

>  <Lig_Alt_Conf>  (238) 
0.0

>  <Title>  (238) 
Crystal structure of human PRKACA complexed with DS01080522

>  <Nonpolymer_Entity_Count>  (238) 
3.0

>  <Protein_Entity_Count>  (238) 
2.0

>  <Exp_Method>  (238) 
X-Ray Diffraction

>  <Cryst_Method>  (238) 
Vapor Diffusion, Sitting Drop; 25 Mm Tris, pH 8.4/ 20% Peg3350/ 0.05 M Zn Acetate/ 25 Mm Glycine

>  <Deposit_Date>  (238) 
2022-06-08

>  <Resolution>  (238) 
2.3

>  <DOI>  (238) 
https://doi.org/10.1016/j.bbrc.2022.07.008

>  <Source_Organism>  (238) 
Homo sapiens

>  <R_Free>  (238) 
0.2369

>  <Keywords>  (238) 
Transferase

>  <REMARK_280>  (238) 
 Crystal Solvent Content, Vs (%): 54.28 Matthews Coefficient, Vm (Angstroms**3/Da): 2.69 Crystallization Conditions: 25 Mm Tris, pH 8.4/ 20% Peg3350/ 0.05 M Zn Acetate/ 25 Mm Glycine, Vapor Diffusion, Sitting Drop, Temperature 293K 

>  <REMARK_610>  (238) 
nan

>  <pH>  (238) 
8.4

>  <Cryst_Technique>  (238) 
co-crystallized

>  <Sequence>  (238) 
MGNAAAAKKGSEQESVKEFLAKAKEDFLKKWESPAQNTAHLDQFERIKTLGTGSFGRVMLVKHKETGNHYAMKILDKQKVVKLKQIEHTLNEKRILQAVNFPFLVKLEFSFKDNSNLYMVMEYVPGGEMFSHLRRIGRFSEPHARFYAAQIVLTFEYLHSLDLIYRDLKPENLLIDQQGYIQVTDFGFAKRVKGRTWTLCGTPEYLAPEIILSKGYNKAVDWWALGVLIYEMAAGYPPFFADQPIQIYEKIVSGKVRFPSHFSSDLKDLLRNLLQVDLTKRFGNLKNGVNDIKNHKWFATTDWIAIYQRKVEAPFIPKFKGPGDTSNFDDYEEEEIRVSINEKCGKEFSEF

>  <Sequence_Length>  (238) 
351.0

>  <Mutation_Count>  (238) 
0.0

>  <Gene_Name>  (238) 
PKACA

>  <MW>  (238) 
40.809

>  <Name>  (238) 
cAMP-Dependent Protein Kinase Catalytic Subunit Alpha

>  <Mutations>  (238) 
nan

>  <EC_Number>  (238) 
2.7.11.11

>  <Peptidic_Inhibitor>  (238) 
False

>  <Lig_Missing_Atoms>  (238) 
['No', 'No']

>  <PDBbind_Resolution>  (238) 
nan

>  <PDBbind_Release_Year>  (238) 
nan

>  <PDBbind_Comment>  (238) 
nan

>  <PDBbind_Uniprot_Id>  (238) 
nan

>  <PDBbind_Protein_Name>  (238) 
nan

>  <PDBbind_-Logkd/Ki>  (238) 
nan

>  <PDBbind_Kd/Ki>  (238) 
nan

>  <PDBbind_Kd_Or_Ki_Or_Ic50>  (238) 
nan

>  <PDBbind_Relation>  (238) 
nan

>  <PDBbind_Value>  (238) 
nan

>  <PDBbind_Unit>  (238) 
nan

>  <PDBbind_Standard_Value>  (238) 
nan

>  <PDBbind_Standard_Unit>  (238) 
nan

>  <PDB_Chain>  (238) 
['A', 'B']

>  <Num_Ligs>  (238) 
[1.0, 1.0]

>  <Orthosteric>  (238) 
[1.0, 1.0]

>  <Allosteric>  (238) 
[0.0, 0.0]

>  <Pockets_Assigned>  (238) 
['A', 'A']

>  <Multisite>  (238) 
[False, False]

>  <Same_Number>  (238) 
True

>  <Same_Binding_Site>  (238) 
True

>  <Same_Orientation>  (238) 
True

>  <Lig_Order_in_.pdb>  (238) 
Orthosteric; Orthosteric

$$$$

     RDKit          2D

 24 26  0  0  0  0  0  0  0  0999 V2000
   12.6098    2.4508    0.0000 C   0  0  0  0  0  0  0  0  0  0  0  0
   11.4951    3.4545    0.0000 C   0  0  0  0  0  0  0  0  0  0  0  0
   11.8070    4.9217    0.0000 C   0  0  0  0  0  0  0  0  0  0  0  0
   10.0685    2.9910    0.0000 C   0  0  0  0  0  0  0  0  0  0  0  0
    8.9538    3.9947    0.0000 C   0  0  0  0  0  0  0  0  0  0  0  0
    7.5272    3.5312    0.0000 C   0  0  0  0  0  0  0  0  0  0  0  0
    7.2154    2.0639    0.0000 O   0  0  0  0  0  0  0  0  0  0  0  0
    6.4125    4.5348    0.0000 N   0  0  0  0  0  0  0  0  0  0  0  0
    4.9859    4.0713    0.0000 C   0  0  0  0  0  0  0  0  0  0  0  0
    4.6741    2.6041    0.0000 C   0  0  0  0  0  0  0  0  0  0  0  0
    3.2475    2.1406    0.0000 C   0  0  0  0  0  0  0  0  0  0  0  0
    2.1328    3.1443    0.0000 C   0  0  0  0  0  0  0  0  0  0  0  0
    2.4446    4.6115    0.0000 C   0  0  0  0  0  0  0  0  0  0  0  0
    3.8712    5.0750    0.0000 C   0  0  0  0  0  0  0  0  0  0  0  0
    0.7062    2.6807    0.0000 C   0  0  0  0  0  0  0  0  0  0  0  0
   -0.4086    3.6844    0.0000 C   0  0  0  0  0  0  0  0  0  0  0  0
   -1.8351    3.2209    0.0000 C   0  0  0  0  0  0  0  0  0  0  0  0
   -2.1470    1.7537    0.0000 N   0  0  0  0  0  0  0  0  0  0  0  0
   -1.0323    0.7500    0.0000 C   0  0  0  0  0  0  0  0  0  0  0  0
    0.3943    1.2135    0.0000 C   0  0  0  0  0  0  0  0  0  0  0  0
    1.2760    0.0000    0.0000 C   0  0  0  0  0  0  0  0  0  0  0  0
    0.3943   -1.2135    0.0000 C   0  0  0  0  0  0  0  0  0  0  0  0
   -1.0323   -0.7500    0.0000 N   0  0  0  0  0  0  0  0  0  0  0  0
    9.2657    5.4619    0.0000 N   0  0  0  0  0  0  0  0  0  0  0  0
  1  2  1  0
  2  3  1  0
  2  4  1  0
  4  5  1  0
  5  6  1  0
  6  7  2  0
  6  8  1  0
  8  9  1  0
  9 10  2  0
 10 11  1  0
 11 12  2  0
 12 13  1  0
 13 14  2  0
 12 15  1  0
 15 16  2  0
 16 17  1  0
 17 18  2  0
 18 19  1  0
 19 20  2  0
 20 21  1  0
 21 22  2  0
 22 23  1  0
  5 24  1  6
 14  9  1  0
 20 15  1  0
 23 19  1  0
M  END
>  <Structure>  (239) 
8SF8

>  <Dataset>  (239) 
PDB

>  <Chain>  (239) 
A

>  <Spatial_Label>  (239) 
DFGin

>  <Dihedral_Label>  (239) 
BLAminus

>  <C_Helix_Label>  (239) 
Chelix-in

>  <Lig_ID>  (239) 
ZWG

>  <Lig_Entity_ID>  (239) 
8SF8_3

>  <Lig_Name>  (239) 
N-[4-(1H-pyrrolo[2,3-b]pyridin-4-yl)phenyl]-D-leucinamide

>  <Lig_Formula>  (239) 
C19H22N4O

>  <Lig_SMILES>  (239) 
CC(C)C[C@H](C(=O)Nc1ccc(cc1)c2ccnc3c2cc[nH]3)N

>  <Lig_MW>  (239) 
322.404

>  <Lig_ChEMBL_ID>  (239) 
nan

>  <Lig_DrugBank_ID>  (239) 
nan

>  <Occurence>  (239) 
1.0

>  <Lig_SMILES_Uncharged>  (239) 
CC(C)C[C@@H](N)C(=O)Nc1ccc(-c2ccnc3[nH]ccc23)cc1

>  <Lig_Conformer>  (239) 
['NaN']

>  <Lig_Of_Interest>  (239) 
['Y']

>  <Lig_Completeness>  (239) 
[1.0]

>  <Lig_Occupancy>  (239) 
[0.858]

>  <Lig_RSCC>  (239) 
[0.82]

>  <Lig_RSR>  (239) 
[0.22]

>  <Lig_RMSZ_Bonds>  (239) 
[1.64]

>  <Lig_RMSZ_Angles>  (239) 
[1.2]

>  <Lig_Alt_Conf>  (239) 
0.0

>  <Title>  (239) 
Structure of bovine PKA bound to (R)-N-(4-(1H-pyrrolo[2,3-b]pyridin-4-yl)phenyl)-2-amino-4-methylpentanamide

>  <Nonpolymer_Entity_Count>  (239) 
1.0

>  <Protein_Entity_Count>  (239) 
2.0

>  <Exp_Method>  (239) 
X-Ray Diffraction

>  <Deposit_Date>  (239) 
2023-04-10

>  <Resolution>  (239) 
1.7

>  <DOI>  (239) 
https://doi.org/10.1021/acs.jmedchem.3c01807

>  <Source_Organism>  (239) 
Bos taurus

>  <R_Free>  (239) 
0.2198

>  <Keywords>  (239) 
Cytosolic Protein

>  <REMARK_280>  (239) 
 Crystal Solvent Content, Vs (%): 51.89 Matthews Coefficient, Vm (Angstroms**3/Da): 2.56 Crystallization Conditions: 13 Mg/Ml Pka 1.25 Ul + 1.25 Ul 0.85 Mm Pki(5-24) 25 Mm Bis-Tris pH = 7.0 150 Mm Kcl 1.5 Mm N-Octanoyl N- Methylglucamide (Onmg), pH 7, Vapor Diffusion, Hanging Drop 

>  <REMARK_610>  (239) 
nan

>  <pH>  (239) 
7.0

>  <Cryst_Technique>  (239) 
co-crystallized

>  <Sequence>  (239) 
GHMGNAAAAKKGSEQESVKEFLAKAKEDFLKKWENPAQNTAHLDQFERIKTLGTGSFGRVMLVKHMETGNHYAMKILDKQKVVKLKQIEHTLNEKRILQAVNFPFLVKLEFSFKDNSNLYMVMEYVPGGEMFSHLRRIGRFSEPHARFYAAQIVLTFEYLHSLDLIYRDLKPENLLIDQQGYIQVTDFGFAKRVKGRTWTLCGTPEYLAPEIILSKGYNKAVDWWALGVLIYEMAAGYPPFFADQPIQIYEKIVSGKVRFPSHFSSDLKDLLRNLLQVDLTKRFGNLKNGVNDIKNHKWFATTDWIAIYQRKVEAPFIPKFKGPGDTSNFDDYEEEEIRVSINEKCGKEFSEF

>  <Sequence_Length>  (239) 
353.0

>  <Mutation_Count>  (239) 
0.0

>  <Gene_Name>  (239) 
PKACA

>  <MW>  (239) 
41.113

>  <Name>  (239) 
cAMP-Dependent Protein Kinase Catalytic Subunit Alpha

>  <Mutations>  (239) 
nan

>  <EC_Number>  (239) 
2.7.11.11

>  <Peptidic_Inhibitor>  (239) 
True

>  <Lig_Missing_Atoms>  (239) 
['No']

>  <PDBbind_Resolution>  (239) 
nan

>  <PDBbind_Release_Year>  (239) 
nan

>  <PDBbind_Comment>  (239) 
nan

>  <PDBbind_Uniprot_Id>  (239) 
nan

>  <PDBbind_Protein_Name>  (239) 
nan

>  <PDBbind_-Logkd/Ki>  (239) 
nan

>  <PDBbind_Kd/Ki>  (239) 
nan

>  <PDBbind_Kd_Or_Ki_Or_Ic50>  (239) 
nan

>  <PDBbind_Relation>  (239) 
nan

>  <PDBbind_Value>  (239) 
nan

>  <PDBbind_Unit>  (239) 
nan

>  <PDBbind_Standard_Value>  (239) 
nan

>  <PDBbind_Standard_Unit>  (239) 
nan

>  <PDB_Chain>  (239) 
['A']

>  <Num_Ligs>  (239) 
[1.0]

>  <Orthosteric>  (239) 
[1.0]

>  <Allosteric>  (239) 
[0.0]

>  <Pockets_Assigned>  (239) 
['A']

>  <Multisite>  (239) 
[False]

>  <Same_Number>  (239) 
True

>  <Same_Binding_Site>  (239) 
True

>  <Same_Orientation>  (239) 
True

>  <Lig_Order_in_.pdb>  (239) 
Orthosteric

$$$$
