001_B_1
prProtoss 03122516553D 1   1.00000     0.00000     0
Protoss beta proteinsplus
 17 18  0  0  0  0            999 V2000
   -9.1410    3.6780  -28.5870 F   0  0  0  0  0  0  0  0  0  0  0  0
  -16.5260    2.8450  -30.6950 O   0  0  0  0  0  0  0  0  0  0  0  0
  -15.2870    3.6380  -30.2460 N   0  0  0  0  0  0  0  0  0  0  0  0
  -14.7050    1.4260  -30.5140 N   0  0  0  0  0  0  0  0  0  0  0  0
  -16.0330    1.5110  -30.8190 C   0  0  0  0  0  0  0  0  0  0  0  0
  -10.8290    2.2240  -29.1490 C   0  0  0  0  0  0  0  0  0  0  0  0
  -11.2420    4.5420  -29.3010 C   0  0  0  0  0  0  0  0  0  0  0  0
  -12.0940    1.9910  -29.5450 C   0  0  0  0  0  0  0  0  0  0  0  0
  -12.5200    4.3050  -29.6740 C   0  0  0  0  0  0  0  0  0  0  0  0
  -10.4050    3.4950  -29.0340 C   0  0  0  0  0  0  0  0  0  0  0  0
  -14.2900    2.6990  -30.2090 C   0  0  0  0  0  0  0  0  0  0  0  0
  -12.9440    3.0170  -29.8100 C   0  0  0  0  0  0  0  0  0  0  0  0
  -16.5940    0.7311  -31.0964 H   0  0  0  0  0  0  0  0  0  0  0  0
  -10.2135    1.4632  -28.9433 H   0  0  0  0  0  0  0  0  0  0  0  0
  -10.9098    5.4818  -29.2206 H   0  0  0  0  0  0  0  0  0  0  0  0
  -12.4130    1.0486  -29.6457 H   0  0  0  0  0  0  0  0  0  0  0  0
  -13.1460    5.0652  -29.8478 H   0  0  0  0  0  0  0  0  0  0  0  0
  1 10  1  0  0  0  0
  2  3  1  0  0  0  0
  2  5  1  0  0  0  0
  3 11  2  0  0  0  0
  4  5  2  0  0  0  0
  4 11  1  0  0  0  0
  6  8  1  0  0  0  0
  6 10  2  0  0  0  0
  7  9  2  0  0  0  0
  7 10  1  0  0  0  0
  8 12  2  0  0  0  0
  9 12  1  0  0  0  0
 11 12  1  0  0  0  0
  5 13  1  0  0  0  0
  6 14  1  0  0  0  0
  7 15  1  0  0  0  0
  8 16  1  0  0  0  0
  9 17  1  0  0  0  0
M  END
$$$$
001_B_2
prProtoss 03122516553D 1   1.00000     0.00000     0
Protoss beta proteinsplus
 31 33  0  0  0  0            999 V2000
  -26.3890   -7.7090  -11.4950 F   0  0  0  0  0  0  0  0  0  0  0  0
  -37.1590  -10.1910  -15.0370 O   0  0  0  0  0  0  0  0  0  0  0  0
  -32.4590   -7.6760  -16.1690 O   0  0  0  0  0  0  0  0  0  0  0  0
  -31.0830   -7.2570  -15.6340 N   0  0  0  0  0  0  0  0  0  0  0  0
  -34.7670   -9.2580  -16.7900 N   0  3  0  0  0  0  0  0  0  0  0  0
  -32.0770   -8.7350  -14.1470 N   0  0  0  0  0  0  0  0  0  0  0  0
  -35.6440  -10.4430  -16.9320 C   0  0  0  0  0  0  0  0  0  0  0  0
  -28.7020   -7.9270  -11.5770 C   0  0  0  0  0  0  0  0  0  0  0  0
  -27.4500   -7.5860  -13.5320 C   0  0  0  0  0  0  0  0  0  0  0  0
  -29.8450   -7.9850  -12.3010 C   0  0  0  0  0  0  0  0  0  0  0  0
  -28.5830   -7.6290  -14.2590 C   0  0  0  0  0  0  0  0  0  0  0  0
  -34.7100  -10.5250  -14.7150 C   0  0  0  0  0  0  0  0  0  0  0  0
  -27.5210   -7.7440  -12.2070 C   0  0  0  0  0  0  0  0  0  0  0  0
  -35.9840  -10.8930  -15.5010 C   0  0  1  0  0  0  0  0  0  0  0  0
  -32.9700   -8.5700  -15.1790 C   0  0  0  0  0  0  0  0  0  0  0  0
  -30.9930   -7.9190  -14.4400 C   0  0  0  0  0  0  0  0  0  0  0  0
  -34.3600   -9.1630  -15.3550 C   0  0  1  0  0  0  0  0  0  0  0  0
  -29.7960   -7.8340  -13.6410 C   0  0  0  0  0  0  0  0  0  0  0  0
  -37.3776  -10.4855  -14.1067 H   0  0  0  0  0  0  0  0  0  0  0  0
  -35.2637   -8.4326  -17.0585 H   0  0  0  0  0  0  0  0  0  0  0  0
  -35.1659  -11.1724  -17.4212 H   0  0  0  0  0  0  0  0  0  0  0  0
  -36.4782  -10.2005  -17.4274 H   0  0  0  0  0  0  0  0  0  0  0  0
  -28.7320   -8.0191  -10.5817 H   0  0  0  0  0  0  0  0  0  0  0  0
  -26.5673   -7.4378  -13.9779 H   0  0  0  0  0  0  0  0  0  0  0  0
  -30.7214   -8.1390  -11.8446 H   0  0  0  0  0  0  0  0  0  0  0  0
  -28.5430   -7.5116  -15.2513 H   0  0  0  0  0  0  0  0  0  0  0  0
  -33.9827  -11.1964  -14.8573 H   0  0  0  0  0  0  0  0  0  0  0  0
  -34.8942  -10.4354  -13.7362 H   0  0  0  0  0  0  0  0  0  0  0  0
  -36.1360  -11.8810  -15.4741 H   0  0  0  0  0  0  0  0  0  0  0  0
  -34.9874   -8.5032  -14.9414 H   0  0  0  0  0  0  0  0  0  0  0  0
  -33.9573   -9.3624  -17.3674 H   0  0  0  0  0  0  0  0  0  0  0  0
  1 13  1  0  0  0  0
  2 14  1  0  0  0  0
  3  4  1  0  0  0  0
  3 15  1  0  0  0  0
  4 16  2  0  0  0  0
  5  7  1  0  0  0  0
  5 17  1  0  0  0  0
  6 15  2  0  0  0  0
  6 16  1  0  0  0  0
  7 14  1  0  0  0  0
  8 10  1  0  0  0  0
  8 13  2  0  0  0  0
  9 11  2  0  0  0  0
  9 13  1  0  0  0  0
 10 18  2  0  0  0  0
 11 18  1  0  0  0  0
 12 14  1  0  0  0  0
 12 17  1  0  0  0  0
 15 17  1  0  0  0  0
 16 18  1  0  0  0  0
  2 19  1  0  0  0  0
  5 20  1  0  0  0  0
  7 21  1  0  0  0  0
  7 22  1  0  0  0  0
  8 23  1  0  0  0  0
  9 24  1  0  0  0  0
 10 25  1  0  0  0  0
 11 26  1  0  0  0  0
 12 27  1  0  0  0  0
 12 28  1  0  0  0  0
 14 29  1  0  0  0  0
 17 30  1  0  0  0  0
  5 31  1  0  0  0  0
M  CHG  1   5   1
M  END
$$$$
001_B_3
prProtoss 03122516553D 1   1.00000     0.00000     0
Protoss beta proteinsplus
 15 15  0  0  0  0            999 V2000
   -9.6670   18.4350  -12.2180 F   0  0  0  0  0  0  0  0  0  0  0  0
   -6.1760   17.3490   -8.0830 C   0  0  0  0  0  0  0  0  0  0  0  0
   -7.5840   17.6750  -11.4280 C   0  0  0  0  0  0  0  0  0  0  0  0
   -9.1820   18.4350   -9.9180 C   0  0  0  0  0  0  0  0  0  0  0  0
   -6.7320   17.4080  -10.4280 C   0  0  0  0  0  0  0  0  0  0  0  0
   -8.3290   18.1550   -8.9050 C   0  0  0  0  0  0  0  0  0  0  0  0
   -8.8090   18.1920  -11.1850 C   0  0  0  0  0  0  0  0  0  0  0  0
   -7.0970   17.6390   -9.1570 C   0  0  0  0  0  0  0  0  0  0  0  0
   -6.6023   17.5771   -7.2076 H   0  0  0  0  0  0  0  0  0  0  0  0
   -5.9431   16.3766   -8.0970 H   0  0  0  0  0  0  0  0  0  0  0  0
   -5.3449   17.8925   -8.2007 H   0  0  0  0  0  0  0  0  0  0  0  0
   -7.3082   17.4883  -12.3709 H   0  0  0  0  0  0  0  0  0  0  0  0
  -10.0842   18.8204   -9.7242 H   0  0  0  0  0  0  0  0  0  0  0  0
   -5.8253   17.0371  -10.6287 H   0  0  0  0  0  0  0  0  0  0  0  0
   -8.6083   18.3297   -7.9608 H   0  0  0  0  0  0  0  0  0  0  0  0
  1  7  1  0  0  0  0
  2  8  1  0  0  0  0
  3  5  1  0  0  0  0
  3  7  2  0  0  0  0
  4  6  2  0  0  0  0
  4  7  1  0  0  0  0
  5  8  2  0  0  0  0
  6  8  1  0  0  0  0
  2  9  1  0  0  0  0
  2 10  1  0  0  0  0
  2 11  1  0  0  0  0
  3 12  1  0  0  0  0
  4 13  1  0  0  0  0
  5 14  1  0  0  0  0
  6 15  1  0  0  0  0
M  END
$$$$
DMS_D_2
prProtoss 03122516553D 1   1.00000     0.00000     0
Protoss beta proteinsplus
 10  9  0  0  0  0            999 V2000
  -30.5930   -4.0170  -18.5330 S   0  0  0  0  0  0  0  0  0  0  0  0
  -31.7480   -4.6020  -17.7440 O   0  0  0  0  0  0  0  0  0  0  0  0
  -29.1030   -4.8780  -17.9830 C   0  0  0  0  0  0  0  0  0  0  0  0
  -30.7190   -4.8140  -20.1480 C   0  0  0  0  0  0  0  0  0  0  0  0
  -28.3106   -4.5231  -18.4792 H   0  0  0  0  0  0  0  0  0  0  0  0
  -28.9756   -4.7304  -17.0022 H   0  0  0  0  0  0  0  0  0  0  0  0
  -29.1981   -5.8570  -18.1632 H   0  0  0  0  0  0  0  0  0  0  0  0
  -29.9856   -4.4824  -20.7415 H   0  0  0  0  0  0  0  0  0  0  0  0
  -30.6368   -5.8045  -20.0382 H   0  0  0  0  0  0  0  0  0  0  0  0
  -31.6044   -4.5965  -20.5589 H   0  0  0  0  0  0  0  0  0  0  0  0
  1  2  2  0  0  0  0
  1  3  1  0  0  0  0
  1  4  1  0  0  0  0
  3  5  1  0  0  0  0
  3  6  1  0  0  0  0
  3  7  1  0  0  0  0
  4  8  1  0  0  0  0
  4  9  1  0  0  0  0
  4 10  1  0  0  0  0
M  END
$$$$
DMS_D_3
prProtoss 03122516553D 1   1.00000     0.00000     0
Protoss beta proteinsplus
 10  9  0  0  0  0            999 V2000
  -11.5810  -11.4310  -23.4020 S   0  0  0  0  0  0  0  0  0  0  0  0
  -12.2280  -11.8670  -24.7000 O   0  0  0  0  0  0  0  0  0  0  0  0
  -11.6450  -12.8590  -22.2980 C   0  0  0  0  0  0  0  0  0  0  0  0
   -9.7940  -11.3580  -23.6660 C   0  0  0  0  0  0  0  0  0  0  0  0
  -11.2273  -12.6213  -21.4210 H   0  0  0  0  0  0  0  0  0  0  0  0
  -12.5978  -13.1251  -22.1521 H   0  0  0  0  0  0  0  0  0  0  0  0
  -11.1453  -13.6212  -22.7096 H   0  0  0  0  0  0  0  0  0  0  0  0
   -9.3436  -11.0715  -22.8204 H   0  0  0  0  0  0  0  0  0  0  0  0
   -9.4592  -12.2619  -23.9323 H   0  0  0  0  0  0  0  0  0  0  0  0
   -9.5908  -10.7002  -24.3913 H   0  0  0  0  0  0  0  0  0  0  0  0
  1  2  2  0  0  0  0
  1  3  1  0  0  0  0
  1  4  1  0  0  0  0
  3  5  1  0  0  0  0
  3  6  1  0  0  0  0
  3  7  1  0  0  0  0
  4  8  1  0  0  0  0
  4  9  1  0  0  0  0
  4 10  1  0  0  0  0
M  END
$$$$
DMS_D_4
prProtoss 03122516553D 1   1.00000     0.00000     0
Protoss beta proteinsplus
 10  9  0  0  0  0            999 V2000
  -26.6380    2.7820  -22.5850 S   0  0  0  0  0  0  0  0  0  0  0  0
  -28.0720    3.0510  -22.1470 O   0  0  0  0  0  0  0  0  0  0  0  0
  -26.1500    1.1690  -21.9600 C   0  0  0  0  0  0  0  0  0  0  0  0
  -26.6760    2.4880  -24.3680 C   0  0  0  0  0  0  0  0  0  0  0  0
  -25.2094    0.9744  -22.2381 H   0  0  0  0  0  0  0  0  0  0  0  0
  -26.2098    1.1662  -20.9618 H   0  0  0  0  0  0  0  0  0  0  0  0
  -26.7593    0.4689  -22.3324 H   0  0  0  0  0  0  0  0  0  0  0  0
  -25.7488    2.3066  -24.6958 H   0  0  0  0  0  0  0  0  0  0  0  0
  -27.2589    1.6993  -24.5634 H   0  0  0  0  0  0  0  0  0  0  0  0
  -27.0413    3.2954  -24.8313 H   0  0  0  0  0  0  0  0  0  0  0  0
  1  2  2  0  0  0  0
  1  3  1  0  0  0  0
  1  4  1  0  0  0  0
  3  5  1  0  0  0  0
  3  6  1  0  0  0  0
  3  7  1  0  0  0  0
  4  8  1  0  0  0  0
  4  9  1  0  0  0  0
  4 10  1  0  0  0  0
M  END
$$$$
DMS_D_11
prProtoss 03122516553D 1   1.00000     0.00000     0
Protoss beta proteinsplus
 10  9  0  0  0  0            999 V2000
    0.7950   15.5530  -43.4890 S   0  0  0  0  0  0  0  0  0  0  0  0
    0.9930   16.6500  -44.5110 O   0  0  0  0  0  0  0  0  0  0  0  0
    2.1110   15.7130  -42.2570 C   0  0  0  0  0  0  0  0  0  0  0  0
    1.3940   14.0220  -44.2350 C   0  0  0  0  0  0  0  0  0  0  0  0
    2.0078   14.9991  -41.5644 H   0  0  0  0  0  0  0  0  0  0  0  0
    3.0001   15.6171  -42.7046 H   0  0  0  0  0  0  0  0  0  0  0  0
    2.0523   16.6112  -41.8213 H   0  0  0  0  0  0  0  0  0  0  0  0
    1.2798   13.2687  -43.5873 H   0  0  0  0  0  0  0  0  0  0  0  0
    0.8717   13.8294  -45.0657 H   0  0  0  0  0  0  0  0  0  0  0  0
    2.3622   14.1199  -44.4652 H   0  0  0  0  0  0  0  0  0  0  0  0
  1  2  2  0  0  0  0
  1  3  1  0  0  0  0
  1  4  1  0  0  0  0
  3  5  1  0  0  0  0
  3  6  1  0  0  0  0
  3  7  1  0  0  0  0
  4  8  1  0  0  0  0
  4  9  1  0  0  0  0
  4 10  1  0  0  0  0
M  END
$$$$
PG4_A_401
prProtoss 03122516283D 1   1.00000     0.00000     0
Protoss beta proteinsplus
 13 12  0  0  0  0            999 V2000
  -33.9820   25.2280  -17.6410 O   0  0  0  0  0  0  0  0  0  0  0  0
  -31.1030   26.7910  -16.1170 O   0  0  0  0  0  0  0  0  0  0  0  0
  -30.9870   28.0980  -16.7840 C   0  0  0  0  0  0  0  0  0  0  0  0
  -32.6130   25.5130  -17.4600 C   0  0  0  0  0  0  0  0  0  0  0  0
  -32.3880   26.2750  -16.2200 C   0  0  0  0  0  0  0  0  0  0  0  0
  -34.1057   24.7113  -18.4882 H   0  0  0  0  0  0  0  0  0  0  0  0
  -30.0514   28.4383  -16.6900 H   0  0  0  0  0  0  0  0  0  0  0  0
  -31.2096   27.9982  -17.7538 H   0  0  0  0  0  0  0  0  0  0  0  0
  -31.6212   28.7454  -16.3613 H   0  0  0  0  0  0  0  0  0  0  0  0
  -32.2860   26.0506  -18.2373 H   0  0  0  0  0  0  0  0  0  0  0  0
  -32.1043   24.6534  -17.4117 H   0  0  0  0  0  0  0  0  0  0  0  0
  -33.0380   27.0344  -16.1919 H   0  0  0  0  0  0  0  0  0  0  0  0
  -32.5498   25.6688  -15.4413 H   0  0  0  0  0  0  0  0  0  0  0  0
  1  4  1  0  0  0  0
  2  3  1  0  0  0  0
  2  5  1  0  0  0  0
  4  5  1  0  0  0  0
  1  6  1  0  0  0  0
  3  7  1  0  0  0  0
  3  8  1  0  0  0  0
  3  9  1  0  0  0  0
  4 10  1  0  0  0  0
  4 11  1  0  0  0  0
  5 12  1  0  0  0  0
  5 13  1  0  0  0  0
M  END
$$$$
DMS_B_2
prProtoss 03122516283D 1   1.00000     0.00000     0
Protoss beta proteinsplus
 10  9  0  0  0  0            999 V2000
  -11.5600  -12.4230  -23.5430 S   0  0  0  0  0  0  0  0  0  0  0  0
  -12.3940  -11.7520  -22.4680 O   0  0  0  0  0  0  0  0  0  0  0  0
  -12.3750  -12.0310  -25.1020 C   0  0  0  0  0  0  0  0  0  0  0  0
  -10.1310  -11.3350  -23.7520 C   0  0  0  0  0  0  0  0  0  0  0  0
  -11.8690  -12.4484  -25.8568 H   0  0  0  0  0  0  0  0  0  0  0  0
  -13.3090  -12.3881  -25.0889 H   0  0  0  0  0  0  0  0  0  0  0  0
  -12.3992  -11.0389  -25.2253 H   0  0  0  0  0  0  0  0  0  0  0  0
   -9.5248  -11.7118  -24.4524 H   0  0  0  0  0  0  0  0  0  0  0  0
  -10.4416  -10.4271  -24.0333 H   0  0  0  0  0  0  0  0  0  0  0  0
   -9.6363  -11.2645  -22.8858 H   0  0  0  0  0  0  0  0  0  0  0  0
  1  2  2  0  0  0  0
  1  3  1  0  0  0  0
  1  4  1  0  0  0  0
  3  5  1  0  0  0  0
  3  6  1  0  0  0  0
  3  7  1  0  0  0  0
  4  8  1  0  0  0  0
  4  9  1  0  0  0  0
  4 10  1  0  0  0  0
M  END
$$$$
DMS_B_3
prProtoss 03122516283D 1   1.00000     0.00000     0
Protoss beta proteinsplus
 10  9  0  0  0  0            999 V2000
   -6.9000   18.7430  -10.0080 S   0  0  0  0  0  0  0  0  0  0  0  0
   -6.9020   17.5870  -10.9880 O   0  0  0  0  0  0  0  0  0  0  0  0
   -8.1850   18.3930   -8.7940 C   0  0  0  0  0  0  0  0  0  0  0  0
   -5.4570   18.5710   -8.9330 C   0  0  0  0  0  0  0  0  0  0  0  0
   -8.2203   19.1337   -8.1230 H   0  0  0  0  0  0  0  0  0  0  0  0
   -9.0688   18.3193   -9.2560 H   0  0  0  0  0  0  0  0  0  0  0  0
   -7.9789   17.5318   -8.3293 H   0  0  0  0  0  0  0  0  0  0  0  0
   -5.4377   19.3261   -8.2776 H   0  0  0  0  0  0  0  0  0  0  0  0
   -5.5104   17.7028   -8.4397 H   0  0  0  0  0  0  0  0  0  0  0  0
   -4.6246   18.5890   -9.4869 H   0  0  0  0  0  0  0  0  0  0  0  0
  1  2  2  0  0  0  0
  1  3  1  0  0  0  0
  1  4  1  0  0  0  0
  3  5  1  0  0  0  0
  3  6  1  0  0  0  0
  3  7  1  0  0  0  0
  4  8  1  0  0  0  0
  4  9  1  0  0  0  0
  4 10  1  0  0  0  0
M  END
$$$$
DMS_B_4
prProtoss 03122516283D 1   1.00000     0.00000     0
Protoss beta proteinsplus
 10  9  0  0  0  0            999 V2000
   -1.5630   21.2160  -16.3170 S   0  0  0  0  0  0  0  0  0  0  0  0
   -2.7020   20.3840  -16.8560 O   0  0  0  0  0  0  0  0  0  0  0  0
   -0.4390   20.2130  -15.3170 C   0  0  0  0  0  0  0  0  0  0  0  0
   -2.2460   22.2570  -15.0160 C   0  0  0  0  0  0  0  0  0  0  0  0
    0.3041   20.7873  -14.9735 H   0  0  0  0  0  0  0  0  0  0  0  0
   -0.9398   19.8194  -14.5461 H   0  0  0  0  0  0  0  0  0  0  0  0
   -0.0596   19.4775  -15.8784 H   0  0  0  0  0  0  0  0  0  0  0  0
   -1.5208   22.8272  -14.6301 H   0  0  0  0  0  0  0  0  0  0  0  0
   -2.9619   22.8414  -15.3981 H   0  0  0  0  0  0  0  0  0  0  0  0
   -2.6347   21.6804  -14.2973 H   0  0  0  0  0  0  0  0  0  0  0  0
  1  2  2  0  0  0  0
  1  3  1  0  0  0  0
  1  4  1  0  0  0  0
  3  5  1  0  0  0  0
  3  6  1  0  0  0  0
  3  7  1  0  0  0  0
  4  8  1  0  0  0  0
  4  9  1  0  0  0  0
  4 10  1  0  0  0  0
M  END
$$$$
DMS_B_5
prProtoss 03122516283D 1   1.00000     0.00000     0
Protoss beta proteinsplus
 10  9  0  0  0  0            999 V2000
   -8.3340    4.9950   -3.3720 S   0  0  0  0  0  0  0  0  0  0  0  0
   -8.8430    6.3650   -3.7120 O   0  0  0  0  0  0  0  0  0  0  0  0
   -9.5040    4.1080   -2.3270 C   0  0  0  0  0  0  0  0  0  0  0  0
   -7.0770    5.1920   -2.0870 C   0  0  0  0  0  0  0  0  0  0  0  0
   -9.1409    3.2004   -2.1160 H   0  0  0  0  0  0  0  0  0  0  0  0
   -9.6443    4.6166   -1.4775 H   0  0  0  0  0  0  0  0  0  0  0  0
  -10.3760    4.0147   -2.8076 H   0  0  0  0  0  0  0  0  0  0  0  0
   -6.7144    4.2948   -1.8350 H   0  0  0  0  0  0  0  0  0  0  0  0
   -6.3348    5.7665   -2.4320 H   0  0  0  0  0  0  0  0  0  0  0  0
   -7.4867    5.6237   -1.2833 H   0  0  0  0  0  0  0  0  0  0  0  0
  1  2  2  0  0  0  0
  1  3  1  0  0  0  0
  1  4  1  0  0  0  0
  3  5  1  0  0  0  0
  3  6  1  0  0  0  0
  3  7  1  0  0  0  0
  4  8  1  0  0  0  0
  4  9  1  0  0  0  0
  4 10  1  0  0  0  0
M  END
$$$$
DMS_B_6
prProtoss 03122516283D 1   1.00000     0.00000     0
Protoss beta proteinsplus
 10  9  0  0  0  0            999 V2000
  -20.7800    4.9360  -42.6200 S   0  0  0  0  0  0  0  0  0  0  0  0
  -20.4500    4.7760  -44.0900 O   0  0  0  0  0  0  0  0  0  0  0  0
  -22.4810    4.3690  -42.4170 C   0  0  0  0  0  0  0  0  0  0  0  0
  -19.9680    3.5800  -41.7570 C   0  0  0  0  0  0  0  0  0  0  0  0
  -22.7487    4.4549  -41.4573 H   0  0  0  0  0  0  0  0  0  0  0  0
  -23.0880    4.9263  -42.9835 H   0  0  0  0  0  0  0  0  0  0  0  0
  -22.5490    3.4116  -42.6976 H   0  0  0  0  0  0  0  0  0  0  0  0
  -20.1596    3.6458  -40.7777 H   0  0  0  0  0  0  0  0  0  0  0  0
  -20.3127    2.7087  -42.1062 H   0  0  0  0  0  0  0  0  0  0  0  0
  -18.9808    3.6325  -41.9078 H   0  0  0  0  0  0  0  0  0  0  0  0
  1  2  2  0  0  0  0
  1  3  1  0  0  0  0
  1  4  1  0  0  0  0
  3  5  1  0  0  0  0
  3  6  1  0  0  0  0
  3  7  1  0  0  0  0
  4  8  1  0  0  0  0
  4  9  1  0  0  0  0
  4 10  1  0  0  0  0
M  END
$$$$
DMS_B_7
prProtoss 03122516283D 1   1.00000     0.00000     0
Protoss beta proteinsplus
 10  9  0  0  0  0            999 V2000
  -26.5930    2.7080  -22.5870 S   0  0  0  0  0  0  0  0  0  0  0  0
  -28.0640    2.8460  -22.2240 O   0  0  0  0  0  0  0  0  0  0  0  0
  -26.0470    1.0380  -22.1710 C   0  0  0  0  0  0  0  0  0  0  0  0
  -26.4790    2.5610  -24.3920 C   0  0  0  0  0  0  0  0  0  0  0  0
  -25.0803    0.9353  -22.4054 H   0  0  0  0  0  0  0  0  0  0  0  0
  -26.1708    0.8812  -21.1912 H   0  0  0  0  0  0  0  0  0  0  0  0
  -26.5874    0.3726  -22.6860 H   0  0  0  0  0  0  0  0  0  0  0  0
  -25.5197    2.4687  -24.6590 H   0  0  0  0  0  0  0  0  0  0  0  0
  -26.9880    1.7548  -24.6936 H   0  0  0  0  0  0  0  0  0  0  0  0
  -26.8664    3.3785  -24.8181 H   0  0  0  0  0  0  0  0  0  0  0  0
  1  2  2  0  0  0  0
  1  3  1  0  0  0  0
  1  4  1  0  0  0  0
  3  5  1  0  0  0  0
  3  6  1  0  0  0  0
  3  7  1  0  0  0  0
  4  8  1  0  0  0  0
  4  9  1  0  0  0  0
  4 10  1  0  0  0  0
M  END
$$$$
DMS_B_8
prProtoss 03122516283D 1   1.00000     0.00000     0
Protoss beta proteinsplus
 10  9  0  0  0  0            999 V2000
    0.7250   15.4460  -43.6080 S   0  0  0  0  0  0  0  0  0  0  0  0
    1.4580   16.3340  -44.5940 O   0  0  0  0  0  0  0  0  0  0  0  0
    0.9120   13.7490  -44.1970 C   0  0  0  0  0  0  0  0  0  0  0  0
    1.8420   15.2920  -42.1920 C   0  0  0  0  0  0  0  0  0  0  0  0
    0.4410   13.1257  -43.5728 H   0  0  0  0  0  0  0  0  0  0  0  0
    0.5152   13.6679  -45.1113 H   0  0  0  0  0  0  0  0  0  0  0  0
    1.8833   13.5138  -44.2331 H   0  0  0  0  0  0  0  0  0  0  0  0
    1.4187   14.7133  -41.4949 H   0  0  0  0  0  0  0  0  0  0  0  0
    2.7029   14.8795  -42.4899 H   0  0  0  0  0  0  0  0  0  0  0  0
    2.0215   16.1981  -41.8089 H   0  0  0  0  0  0  0  0  0  0  0  0
  1  2  2  0  0  0  0
  1  3  1  0  0  0  0
  1  4  1  0  0  0  0
  3  5  1  0  0  0  0
  3  6  1  0  0  0  0
  3  7  1  0  0  0  0
  4  8  1  0  0  0  0
  4  9  1  0  0  0  0
  4 10  1  0  0  0  0
M  END
$$$$
DMS_B_9
prProtoss 03122516283D 1   1.00000     0.00000     0
Protoss beta proteinsplus
 10  9  0  0  0  0            999 V2000
   -5.8850   18.5070  -47.9600 S   0  0  0  0  0  0  0  0  0  0  0  0
   -7.1190   17.6710  -47.7020 O   0  0  0  0  0  0  0  0  0  0  0  0
   -4.5070   17.3540  -48.1540 C   0  0  0  0  0  0  0  0  0  0  0  0
   -5.9650   19.0170  -49.6920 C   0  0  0  0  0  0  0  0  0  0  0  0
   -3.6657   17.8661  -48.3273 H   0  0  0  0  0  0  0  0  0  0  0  0
   -4.4030   16.8152  -47.3180 H   0  0  0  0  0  0  0  0  0  0  0  0
   -4.6897   16.7427  -48.9240 H   0  0  0  0  0  0  0  0  0  0  0  0
   -5.1655   19.5758  -49.9122 H   0  0  0  0  0  0  0  0  0  0  0  0
   -5.9770   18.2067  -50.2779 H   0  0  0  0  0  0  0  0  0  0  0  0
   -6.7968   19.5507  -49.8442 H   0  0  0  0  0  0  0  0  0  0  0  0
  1  2  2  0  0  0  0
  1  3  1  0  0  0  0
  1  4  1  0  0  0  0
  3  5  1  0  0  0  0
  3  6  1  0  0  0  0
  3  7  1  0  0  0  0
  4  8  1  0  0  0  0
  4  9  1  0  0  0  0
  4 10  1  0  0  0  0
M  END
$$$$
005_D_3
prProtoss 03122516283D 1   1.00000     0.00000     0
Protoss beta proteinsplus
 29 31  0  0  0  0            999 V2000
  -18.9200    2.1950  -32.3800 O   0  0  0  0  0  0  0  0  0  0  0  0
  -14.3710    0.5770  -30.4860 O   0  0  0  0  0  0  0  0  0  0  0  0
  -12.9840    0.8750  -30.0780 N   0  0  0  0  0  0  0  0  0  0  0  0
   -9.5140    2.9140  -28.6810 N   0  0  0  0  0  0  0  0  0  0  0  0
  -11.8370    4.2590  -29.5900 N   0  0  0  0  0  0  0  0  0  0  0  0
  -17.3780    1.2850  -29.9860 N   0  3  0  0  0  0  0  0  0  0  0  0
  -14.1730    2.7830  -30.2550 N   0  0  0  0  0  0  0  0  0  0  0  0
   -9.5560    4.3190  -28.7200 C   0  0  0  0  0  0  0  0  0  0  0  0
  -10.7100    4.9070  -29.1840 C   0  0  0  0  0  0  0  0  0  0  0  0
  -10.6220    2.2760  -29.0710 C   0  0  0  0  0  0  0  0  0  0  0  0
  -18.5560    2.1990  -29.9590 C   0  0  0  0  0  0  0  0  0  0  0  0
  -16.9570    3.1900  -31.3860 C   0  0  0  0  0  0  0  0  0  0  0  0
  -18.4560    2.9920  -31.2530 C   0  0  1  0  0  0  0  0  0  0  0  0
  -15.0350    1.7940  -30.5780 C   0  0  0  0  0  0  0  0  0  0  0  0
  -12.9680    2.2260  -29.9540 C   0  0  0  0  0  0  0  0  0  0  0  0
  -11.7580    2.8510  -29.5350 C   0  0  0  0  0  0  0  0  0  0  0  0
  -16.4460    1.7790  -31.0500 C   0  0  1  0  0  0  0  0  0  0  0  0
  -18.8470    2.7319  -33.2205 H   0  0  0  0  0  0  0  0  0  0  0  0
  -17.6739    0.3535  -30.1974 H   0  0  0  0  0  0  0  0  0  0  0  0
   -8.7766    4.8699  -28.4218 H   0  0  0  0  0  0  0  0  0  0  0  0
  -10.7225    5.9060  -29.2273 H   0  0  0  0  0  0  0  0  0  0  0  0
  -10.6116    1.2776  -29.0149 H   0  0  0  0  0  0  0  0  0  0  0  0
  -18.5120    2.8083  -29.1673 H   0  0  0  0  0  0  0  0  0  0  0  0
  -19.4079    1.6761  -29.9303 H   0  0  0  0  0  0  0  0  0  0  0  0
  -16.6167    3.8688  -30.7353 H   0  0  0  0  0  0  0  0  0  0  0  0
  -16.7030    3.4615  -32.3143 H   0  0  0  0  0  0  0  0  0  0  0  0
  -18.9410    3.8644  -31.1914 H   0  0  0  0  0  0  0  0  0  0  0  0
  -16.5218    1.1949  -31.8581 H   0  0  0  0  0  0  0  0  0  0  0  0
  -16.9180    1.2952  -29.0981 H   0  0  0  0  0  0  0  0  0  0  0  0
  1 13  1  0  0  0  0
  2  3  1  0  0  0  0
  2 14  1  0  0  0  0
  3 15  2  0  0  0  0
  4  8  1  0  0  0  0
  4 10  2  0  0  0  0
  5  9  1  0  0  0  0
  5 16  2  0  0  0  0
  6 11  1  0  0  0  0
  6 17  1  0  0  0  0
  7 14  2  0  0  0  0
  7 15  1  0  0  0  0
  8  9  2  0  0  0  0
 10 16  1  0  0  0  0
 11 13  1  0  0  0  0
 12 13  1  0  0  0  0
 12 17  1  0  0  0  0
 14 17  1  0  0  0  0
 15 16  1  0  0  0  0
  1 18  1  0  0  0  0
  6 19  1  0  0  0  0
  8 20  1  0  0  0  0
  9 21  1  0  0  0  0
 10 22  1  0  0  0  0
 11 23  1  0  0  0  0
 11 24  1  0  0  0  0
 12 25  1  0  0  0  0
 12 26  1  0  0  0  0
 13 27  1  0  0  0  0
 17 28  1  0  0  0  0
  6 29  1  0  0  0  0
M  CHG  1   6   1
M  END
$$$$
005_D_4
prProtoss 03122516283D 1   1.00000     0.00000     0
Protoss beta proteinsplus
 21 22  0  0  0  0            999 V2000
  -15.2860   25.4820  -34.3420 O   0  0  0  0  0  0  0  0  0  0  0  0
  -19.7910   25.3130  -36.1500 O   0  0  0  0  0  0  0  0  0  0  0  0
  -21.1950   25.9020  -36.4280 N   0  0  0  0  0  0  0  0  0  0  0  0
  -20.1810   27.2200  -34.8640 N   0  0  0  0  0  0  0  0  0  0  0  0
  -17.7440   26.4770  -33.1450 N   0  3  0  0  0  0  0  0  0  0  0  0
  -21.2950   27.0090  -35.6180 C   0  0  0  0  0  0  0  0  0  0  0  0
  -16.8320   25.4760  -32.5280 C   0  0  0  0  0  0  0  0  0  0  0  0
  -17.4890   24.6090  -34.6330 C   0  0  0  0  0  0  0  0  0  0  0  0
  -16.3000   24.6870  -33.7020 C   0  0  1  0  0  0  0  0  0  0  0  0
  -19.2980   26.2280  -35.1700 C   0  0  0  0  0  0  0  0  0  0  0  0
  -17.9310   26.0760  -34.5740 C   0  0  1  0  0  0  0  0  0  0  0  0
  -14.9155   24.9823  -35.1250 H   0  0  0  0  0  0  0  0  0  0  0  0
  -17.3372   27.3891  -33.0947 H   0  0  0  0  0  0  0  0  0  0  0  0
  -22.1024   27.5981  -35.5861 H   0  0  0  0  0  0  0  0  0  0  0  0
  -17.3318   24.8814  -31.8982 H   0  0  0  0  0  0  0  0  0  0  0  0
  -16.0871   25.9291  -32.0383 H   0  0  0  0  0  0  0  0  0  0  0  0
  -18.1951   23.9899  -34.2894 H   0  0  0  0  0  0  0  0  0  0  0  0
  -17.2249   24.3332  -35.5572 H   0  0  0  0  0  0  0  0  0  0  0  0
  -15.9647   23.7837  -33.4345 H   0  0  0  0  0  0  0  0  0  0  0  0
  -17.2935   26.6109  -35.1285 H   0  0  0  0  0  0  0  0  0  0  0  0
  -18.6243   26.4779  -32.6706 H   0  0  0  0  0  0  0  0  0  0  0  0
  1  9  1  0  0  0  0
  2  3  1  0  0  0  0
  2 10  1  0  0  0  0
  3  6  2  0  0  0  0
  4  6  1  0  0  0  0
  4 10  2  0  0  0  0
  5  7  1  0  0  0  0
  5 11  1  0  0  0  0
  7  9  1  0  0  0  0
  8  9  1  0  0  0  0
  8 11  1  0  0  0  0
 10 11  1  0  0  0  0
  1 12  1  0  0  0  0
  5 13  1  0  0  0  0
  6 14  1  0  0  0  0
  7 15  1  0  0  0  0
  7 16  1  0  0  0  0
  8 17  1  0  0  0  0
  8 18  1  0  0  0  0
  9 19  1  0  0  0  0
 11 20  1  0  0  0  0
  5 21  1  0  0  0  0
M  CHG  1   5   1
M  END
$$$$
DMS_D_1
prProtoss 03122516283D 1   1.00000     0.00000     0
Protoss beta proteinsplus
 10  9  0  0  0  0            999 V2000
   -1.8150   21.0310  -16.5550 S   0  0  0  0  0  0  0  0  0  0  0  0
   -3.1610   20.5810  -17.0460 O   0  0  0  0  0  0  0  0  0  0  0  0
   -2.1890   22.0500  -15.1020 C   0  0  0  0  0  0  0  0  0  0  0  0
   -0.8050   19.6810  -15.8940 C   0  0  0  0  0  0  0  0  0  0  0  0
   -1.3368   22.3946  -14.7082 H   0  0  0  0  0  0  0  0  0  0  0  0
   -2.7657   22.8202  -15.3745 H   0  0  0  0  0  0  0  0  0  0  0  0
   -2.6707   21.4971  -14.4221 H   0  0  0  0  0  0  0  0  0  0  0  0
    0.0744   20.0431  -15.5850 H   0  0  0  0  0  0  0  0  0  0  0  0
   -1.2798   19.2560  -15.1234 H   0  0  0  0  0  0  0  0  0  0  0  0
   -0.6519   18.9985  -16.6086 H   0  0  0  0  0  0  0  0  0  0  0  0
  1  2  2  0  0  0  0
  1  3  1  0  0  0  0
  1  4  1  0  0  0  0
  3  5  1  0  0  0  0
  3  6  1  0  0  0  0
  3  7  1  0  0  0  0
  4  8  1  0  0  0  0
  4  9  1  0  0  0  0
  4 10  1  0  0  0  0
M  END
$$$$
DMS_D_2
prProtoss 03122516283D 1   1.00000     0.00000     0
Protoss beta proteinsplus
 10  9  0  0  0  0            999 V2000
  -11.2390  -12.1780  -23.5850 S   0  0  0  0  0  0  0  0  0  0  0  0
  -10.1430  -11.1360  -23.7070 O   0  0  0  0  0  0  0  0  0  0  0  0
  -12.2860  -11.7010  -22.1900 C   0  0  0  0  0  0  0  0  0  0  0  0
  -12.4340  -11.8090  -24.8800 C   0  0  0  0  0  0  0  0  0  0  0  0
  -13.0216  -12.3696  -22.0814 H   0  0  0  0  0  0  0  0  0  0  0  0
  -11.7362  -11.6718  -21.3552 H   0  0  0  0  0  0  0  0  0  0  0  0
  -12.6792  -10.7978  -22.3619 H   0  0  0  0  0  0  0  0  0  0  0  0
  -13.1817  -12.4719  -24.8423 H   0  0  0  0  0  0  0  0  0  0  0  0
  -12.7983  -10.8876  -24.7447 H   0  0  0  0  0  0  0  0  0  0  0  0
  -11.9857  -11.8625  -25.7723 H   0  0  0  0  0  0  0  0  0  0  0  0
  1  2  2  0  0  0  0
  1  3  1  0  0  0  0
  1  4  1  0  0  0  0
  3  5  1  0  0  0  0
  3  6  1  0  0  0  0
  3  7  1  0  0  0  0
  4  8  1  0  0  0  0
  4  9  1  0  0  0  0
  4 10  1  0  0  0  0
M  END
$$$$
DMS_D_3
prProtoss 03122516283D 1   1.00000     0.00000     0
Protoss beta proteinsplus
 10  9  0  0  0  0            999 V2000
  -16.4670   25.0090  -33.5780 S   0  0  0  0  0  0  0  0  0  0  0  0
  -15.3550   25.6090  -34.4150 O   0  0  0  0  0  0  0  0  0  0  0  0
  -17.5310   26.4030  -33.0760 C   0  0  0  0  0  0  0  0  0  0  0  0
  -17.6940   24.3660  -34.7250 C   0  0  0  0  0  0  0  0  0  0  0  0
  -18.2866   26.0612  -32.5172 H   0  0  0  0  0  0  0  0  0  0  0  0
  -16.9936   27.0582  -32.5450 H   0  0  0  0  0  0  0  0  0  0  0  0
  -17.8961   26.8538  -33.8905 H   0  0  0  0  0  0  0  0  0  0  0  0
  -18.4494   23.9589  -34.2114 H   0  0  0  0  0  0  0  0  0  0  0  0
  -18.0413   25.1114  -35.2940 H   0  0  0  0  0  0  0  0  0  0  0  0
  -17.2736   23.6701  -35.3073 H   0  0  0  0  0  0  0  0  0  0  0  0
  1  2  2  0  0  0  0
  1  3  1  0  0  0  0
  1  4  1  0  0  0  0
  3  5  1  0  0  0  0
  3  6  1  0  0  0  0
  3  7  1  0  0  0  0
  4  8  1  0  0  0  0
  4  9  1  0  0  0  0
  4 10  1  0  0  0  0
M  END
$$$$
DMS_D_4
prProtoss 03122516283D 1   1.00000     0.00000     0
Protoss beta proteinsplus
 10  9  0  0  0  0            999 V2000
  -10.3030   -6.2230  -42.7290 S   0  0  0  0  0  0  0  0  0  0  0  0
  -10.3410   -5.1920  -41.6330 O   0  0  0  0  0  0  0  0  0  0  0  0
   -8.6750   -6.2070  -43.5100 C   0  0  0  0  0  0  0  0  0  0  0  0
  -10.3420   -7.9170  -42.0590 C   0  0  0  0  0  0  0  0  0  0  0  0
   -8.6480   -6.8915  -44.2385 H   0  0  0  0  0  0  0  0  0  0  0  0
   -8.4997   -5.3016  -43.8967 H   0  0  0  0  0  0  0  0  0  0  0  0
   -7.9757   -6.4190  -42.8273 H   0  0  0  0  0  0  0  0  0  0  0  0
  -10.3155   -8.5741  -42.8123 H   0  0  0  0  0  0  0  0  0  0  0  0
   -9.5501   -8.0588  -41.4650 H   0  0  0  0  0  0  0  0  0  0  0  0
  -11.1817   -8.0478  -41.5320 H   0  0  0  0  0  0  0  0  0  0  0  0
  1  2  2  0  0  0  0
  1  3  1  0  0  0  0
  1  4  1  0  0  0  0
  3  5  1  0  0  0  0
  3  6  1  0  0  0  0
  3  7  1  0  0  0  0
  4  8  1  0  0  0  0
  4  9  1  0  0  0  0
  4 10  1  0  0  0  0
M  END
$$$$
DMS_D_5
prProtoss 03122516283D 1   1.00000     0.00000     0
Protoss beta proteinsplus
 10  9  0  0  0  0            999 V2000
    0.6460   15.8150  -43.6850 S   0  0  0  0  0  0  0  0  0  0  0  0
    1.7100   15.5000  -42.6360 O   0  0  0  0  0  0  0  0  0  0  0  0
    1.3690   16.9720  -44.8790 C   0  0  0  0  0  0  0  0  0  0  0  0
    0.5420   14.3320  -44.6930 C   0  0  0  0  0  0  0  0  0  0  0  0
    0.6909   17.1955  -45.5792 H   0  0  0  0  0  0  0  0  0  0  0  0
    1.6479   17.8079  -44.4063 H   0  0  0  0  0  0  0  0  0  0  0  0
    2.1669   16.5508  -45.3101 H   0  0  0  0  0  0  0  0  0  0  0  0
   -0.1424   14.4637  -45.4101 H   0  0  0  0  0  0  0  0  0  0  0  0
    1.4320   14.1500  -45.1110 H   0  0  0  0  0  0  0  0  0  0  0  0
    0.2784   13.5567  -44.1191 H   0  0  0  0  0  0  0  0  0  0  0  0
  1  2  2  0  0  0  0
  1  3  1  0  0  0  0
  1  4  1  0  0  0  0
  3  5  1  0  0  0  0
  3  6  1  0  0  0  0
  3  7  1  0  0  0  0
  4  8  1  0  0  0  0
  4  9  1  0  0  0  0
  4 10  1  0  0  0  0
M  END
$$$$
009_B_1
prProtoss 03122516283D 1   1.00000     0.00000     0
Protoss beta proteinsplus
 16 16  0  0  0  0            999 V2000
   -8.5490   17.4200  -11.7590 O   0  0  0  0  0  0  0  0  0  0  0  0
   -9.8130   18.0800  -12.0050 C   0  0  0  0  0  0  0  0  0  0  0  0
   -5.4430   18.9140   -9.3730 C   0  0  0  0  0  0  0  0  0  0  0  0
   -6.6760   19.5010   -9.4470 C   0  0  0  0  0  0  0  0  0  0  0  0
   -5.2460   17.7840  -10.0960 C   0  0  0  0  0  0  0  0  0  0  0  0
   -7.6840   19.0180  -10.2120 C   0  0  0  0  0  0  0  0  0  0  0  0
   -6.2590   17.3170  -10.8750 C   0  0  0  0  0  0  0  0  0  0  0  0
   -7.4950   17.9050  -10.9580 C   0  0  0  0  0  0  0  0  0  0  0  0
  -10.3732   17.5129  -12.6088 H   0  0  0  0  0  0  0  0  0  0  0  0
  -10.2917   18.2173  -11.1378 H   0  0  0  0  0  0  0  0  0  0  0  0
   -9.6477   18.9659  -12.4384 H   0  0  0  0  0  0  0  0  0  0  0  0
   -4.7154   19.3029   -8.8079 H   0  0  0  0  0  0  0  0  0  0  0  0
   -6.8416   20.3279   -8.9096 H   0  0  0  0  0  0  0  0  0  0  0  0
   -4.3707   17.3019  -10.0573 H   0  0  0  0  0  0  0  0  0  0  0  0
   -8.5685   19.4843  -10.2255 H   0  0  0  0  0  0  0  0  0  0  0  0
   -6.0921   16.4953  -11.4200 H   0  0  0  0  0  0  0  0  0  0  0  0
  1  2  1  0  0  0  0
  1  8  1  0  0  0  0
  3  4  2  0  0  0  0
  3  5  1  0  0  0  0
  4  6  1  0  0  0  0
  5  7  2  0  0  0  0
  6  8  2  0  0  0  0
  7  8  1  0  0  0  0
  2  9  1  0  0  0  0
  2 10  1  0  0  0  0
  2 11  1  0  0  0  0
  3 12  1  0  0  0  0
  4 13  1  0  0  0  0
  5 14  1  0  0  0  0
  6 15  1  0  0  0  0
  7 16  1  0  0  0  0
M  END
$$$$
009_B_2
prProtoss 03122516283D 1   1.00000     0.00000     0
Protoss beta proteinsplus
 24 25  0  0  0  0            999 V2000
  -17.6620    1.6160  -30.6150 O   0  0  0  0  0  0  0  0  0  0  0  0
  -10.4000    4.1340  -29.4400 O   0  0  0  0  0  0  0  0  0  0  0  0
  -16.5480    2.7030  -30.5830 N   0  0  0  0  0  0  0  0  0  0  0  0
  -15.6170    0.6490  -30.1430 N   0  0  0  0  0  0  0  0  0  0  0  0
   -9.3610    3.5170  -28.6270 C   0  0  0  0  0  0  0  0  0  0  0  0
  -17.5690   -0.9110  -30.1990 C   0  0  0  0  0  0  0  0  0  0  0  0
  -12.6790    4.3250  -29.7800 C   0  0  0  0  0  0  0  0  0  0  0  0
  -11.8040    2.1530  -29.8010 C   0  0  0  0  0  0  0  0  0  0  0  0
  -13.9090    3.8640  -30.0090 C   0  0  0  0  0  0  0  0  0  0  0  0
  -13.0490    1.6700  -30.0260 C   0  0  0  0  0  0  0  0  0  0  0  0
  -16.9440    0.4410  -30.3140 C   0  0  0  0  0  0  0  0  0  0  0  0
  -11.6170    3.5050  -29.6710 C   0  0  0  0  0  0  0  0  0  0  0  0
  -15.4100    1.9780  -30.3310 C   0  0  0  0  0  0  0  0  0  0  0  0
  -14.1040    2.5240  -30.1450 C   0  0  0  0  0  0  0  0  0  0  0  0
   -8.5681    4.1247  -28.5821 H   0  0  0  0  0  0  0  0  0  0  0  0
   -9.7110    3.3569  -27.7040 H   0  0  0  0  0  0  0  0  0  0  0  0
   -9.0905    2.6458  -29.0367 H   0  0  0  0  0  0  0  0  0  0  0  0
  -16.8648   -1.5862  -29.9795 H   0  0  0  0  0  0  0  0  0  0  0  0
  -18.2573   -0.8994  -29.4737 H   0  0  0  0  0  0  0  0  0  0  0  0
  -18.0033   -1.1524  -31.0668 H   0  0  0  0  0  0  0  0  0  0  0  0
  -12.5411    5.3110  -29.6863 H   0  0  0  0  0  0  0  0  0  0  0  0
  -11.0266    1.5280  -29.7302 H   0  0  0  0  0  0  0  0  0  0  0  0
  -14.6803    4.4964  -30.0801 H   0  0  0  0  0  0  0  0  0  0  0  0
  -13.1945    0.6838  -30.1050 H   0  0  0  0  0  0  0  0  0  0  0  0
  1  3  1  0  0  0  0
  1 11  1  0  0  0  0
  2  5  1  0  0  0  0
  2 12  1  0  0  0  0
  3 13  2  0  0  0  0
  4 11  2  0  0  0  0
  4 13  1  0  0  0  0
  6 11  1  0  0  0  0
  7  9  1  0  0  0  0
  7 12  2  0  0  0  0
  8 10  2  0  0  0  0
  8 12  1  0  0  0  0
  9 14  2  0  0  0  0
 10 14  1  0  0  0  0
 13 14  1  0  0  0  0
  5 15  1  0  0  0  0
  5 16  1  0  0  0  0
  5 17  1  0  0  0  0
  6 18  1  0  0  0  0
  6 19  1  0  0  0  0
  6 20  1  0  0  0  0
  7 21  1  0  0  0  0
  8 22  1  0  0  0  0
  9 23  1  0  0  0  0
 10 24  1  0  0  0  0
M  END
$$$$
PEG_E_1
prProtoss 03122516283D 1   1.00000     0.00000     0
Protoss beta proteinsplus
 16 15  0  0  0  0            999 V2000
  -18.1190  -10.6640  -31.8240 O   0  0  0  0  0  0  0  0  0  0  0  0
  -21.1630   -9.2140  -33.2750 O   0  0  0  0  0  0  0  0  0  0  0  0
  -21.4040   -6.9370  -32.8660 C   0  0  0  0  0  0  0  0  0  0  0  0
  -19.5130  -10.5130  -31.9940 C   0  0  0  0  0  0  0  0  0  0  0  0
  -21.6270   -8.2880  -32.2980 C   0  0  0  0  0  0  0  0  0  0  0  0
  -19.8160   -9.5590  -33.0930 C   0  0  0  0  0  0  0  0  0  0  0  0
  -17.8643  -10.3876  -30.8973 H   0  0  0  0  0  0  0  0  0  0  0  0
  -21.7155   -6.2457  -32.2140 H   0  0  0  0  0  0  0  0  0  0  0  0
  -20.4291   -6.8086  -33.0477 H   0  0  0  0  0  0  0  0  0  0  0  0
  -21.9170   -6.8454  -33.7195 H   0  0  0  0  0  0  0  0  0  0  0  0
  -19.9107  -10.1689  -31.1435 H   0  0  0  0  0  0  0  0  0  0  0  0
  -19.9138  -11.4025  -32.2134 H   0  0  0  0  0  0  0  0  0  0  0  0
  -21.1123   -8.3952  -31.4474 H   0  0  0  0  0  0  0  0  0  0  0  0
  -22.6003   -8.4320  -32.1191 H   0  0  0  0  0  0  0  0  0  0  0  0
  -19.3095   -8.7163  -32.9108 H   0  0  0  0  0  0  0  0  0  0  0  0
  -19.4897   -9.9662  -33.9461 H   0  0  0  0  0  0  0  0  0  0  0  0
  1  4  1  0  0  0  0
  2  5  1  0  0  0  0
  2  6  1  0  0  0  0
  3  5  1  0  0  0  0
  4  6  1  0  0  0  0
  1  7  1  0  0  0  0
  3  8  1  0  0  0  0
  3  9  1  0  0  0  0
  3 10  1  0  0  0  0
  4 11  1  0  0  0  0
  4 12  1  0  0  0  0
  5 13  1  0  0  0  0
  5 14  1  0  0  0  0
  6 15  1  0  0  0  0
  6 16  1  0  0  0  0
M  END
$$$$
DMS_D_1
prProtoss 03122516293D 1   1.00000     0.00000     0
Protoss beta proteinsplus
 10  9  0  0  0  0            999 V2000
  -18.9860   18.3590  -39.9460 S   0  0  0  0  0  0  0  0  0  0  0  0
  -17.8870   19.3760  -39.7450 O   0  0  0  0  0  0  0  0  0  0  0  0
  -19.4660   17.8270  -38.2920 C   0  0  0  0  0  0  0  0  0  0  0  0
  -20.4840   19.2860  -40.3380 C   0  0  0  0  0  0  0  0  0  0  0  0
  -20.1966   17.1475  -38.3593 H   0  0  0  0  0  0  0  0  0  0  0  0
  -18.6767   17.4230  -37.8296 H   0  0  0  0  0  0  0  0  0  0  0  0
  -19.7910   18.6153  -37.7695 H   0  0  0  0  0  0  0  0  0  0  0  0
  -21.2422   18.6496  -40.4800 H   0  0  0  0  0  0  0  0  0  0  0  0
  -20.7028   19.9016  -39.5809 H   0  0  0  0  0  0  0  0  0  0  0  0
  -20.3370   19.8205  -41.1703 H   0  0  0  0  0  0  0  0  0  0  0  0
  1  2  2  0  0  0  0
  1  3  1  0  0  0  0
  1  4  1  0  0  0  0
  3  5  1  0  0  0  0
  3  6  1  0  0  0  0
  3  7  1  0  0  0  0
  4  8  1  0  0  0  0
  4  9  1  0  0  0  0
  4 10  1  0  0  0  0
M  END
$$$$
DMS_D_3
prProtoss 03122516293D 1   1.00000     0.00000     0
Protoss beta proteinsplus
 10  9  0  0  0  0            999 V2000
  -27.1900   15.8060   -5.6010 S   0  0  0  0  0  0  0  0  0  0  0  0
  -28.1120   14.6280   -5.3980 O   0  0  0  0  0  0  0  0  0  0  0  0
  -28.1880   17.3010   -5.4260 C   0  0  0  0  0  0  0  0  0  0  0  0
  -26.2500   15.9760   -4.0690 C   0  0  0  0  0  0  0  0  0  0  0  0
  -27.6084   18.1057   -5.5547 H   0  0  0  0  0  0  0  0  0  0  0  0
  -28.9139   17.2996   -6.1138 H   0  0  0  0  0  0  0  0  0  0  0  0
  -28.5944   17.3255   -4.5126 H   0  0  0  0  0  0  0  0  0  0  0  0
  -25.6188   16.7475   -4.1491 H   0  0  0  0  0  0  0  0  0  0  0  0
  -26.8787   16.1373   -3.3083 H   0  0  0  0  0  0  0  0  0  0  0  0
  -25.7318   15.1374   -3.9011 H   0  0  0  0  0  0  0  0  0  0  0  0
  1  2  2  0  0  0  0
  1  3  1  0  0  0  0
  1  4  1  0  0  0  0
  3  5  1  0  0  0  0
  3  6  1  0  0  0  0
  3  7  1  0  0  0  0
  4  8  1  0  0  0  0
  4  9  1  0  0  0  0
  4 10  1  0  0  0  0
M  END
$$$$
DMS_D_4
prProtoss 03122516293D 1   1.00000     0.00000     0
Protoss beta proteinsplus
 10  9  0  0  0  0            999 V2000
  -17.9500    5.0300  -45.9830 S   0  0  0  0  0  0  0  0  0  0  0  0
  -17.4040    6.4070  -45.6840 O   0  0  0  0  0  0  0  0  0  0  0  0
  -19.1490    5.2440  -47.3180 C   0  0  0  0  0  0  0  0  0  0  0  0
  -16.7100    4.1540  -46.9600 C   0  0  0  0  0  0  0  0  0  0  0  0
  -19.5438    4.3568  -47.5569 H   0  0  0  0  0  0  0  0  0  0  0  0
  -19.8755    5.8621  -47.0177 H   0  0  0  0  0  0  0  0  0  0  0  0
  -18.6913    5.6315  -48.1182 H   0  0  0  0  0  0  0  0  0  0  0  0
  -17.0427    3.2358  -47.1749 H   0  0  0  0  0  0  0  0  0  0  0  0
  -16.5402    4.6543  -47.8091 H   0  0  0  0  0  0  0  0  0  0  0  0
  -15.8602    4.0867  -46.4371 H   0  0  0  0  0  0  0  0  0  0  0  0
  1  2  2  0  0  0  0
  1  3  1  0  0  0  0
  1  4  1  0  0  0  0
  3  5  1  0  0  0  0
  3  6  1  0  0  0  0
  3  7  1  0  0  0  0
  4  8  1  0  0  0  0
  4  9  1  0  0  0  0
  4 10  1  0  0  0  0
M  END
$$$$
DMS_D_7
prProtoss 03122516293D 1   1.00000     0.00000     0
Protoss beta proteinsplus
 10  9  0  0  0  0            999 V2000
    3.0230   22.6680  -15.7330 S   0  0  0  0  0  0  0  0  0  0  0  0
    1.8540   21.9130  -15.1360 O   0  0  0  0  0  0  0  0  0  0  0  0
    2.4170   24.3220  -16.1370 C   0  0  0  0  0  0  0  0  0  0  0  0
    4.1080   23.1390  -14.3670 C   0  0  0  0  0  0  0  0  0  0  0  0
    3.1589   24.8604  -16.5366 H   0  0  0  0  0  0  0  0  0  0  0  0
    1.6659   24.2507  -16.7934 H   0  0  0  0  0  0  0  0  0  0  0  0
    2.0908   24.7700  -15.3046 H   0  0  0  0  0  0  0  0  0  0  0  0
    4.8949   23.6419  -14.7245 H   0  0  0  0  0  0  0  0  0  0  0  0
    3.6048   23.7190  -13.7264 H   0  0  0  0  0  0  0  0  0  0  0  0
    4.4247   22.3168  -13.8941 H   0  0  0  0  0  0  0  0  0  0  0  0
  1  2  2  0  0  0  0
  1  3  1  0  0  0  0
  1  4  1  0  0  0  0
  3  5  1  0  0  0  0
  3  6  1  0  0  0  0
  3  7  1  0  0  0  0
  4  8  1  0  0  0  0
  4  9  1  0  0  0  0
  4 10  1  0  0  0  0
M  END
$$$$
DMS_D_8
prProtoss 03122516293D 1   1.00000     0.00000     0
Protoss beta proteinsplus
 10  9  0  0  0  0            999 V2000
   -9.4780   25.5510  -15.6480 S   0  0  0  0  0  0  0  0  0  0  0  0
  -10.7630   25.7890  -14.8880 O   0  0  0  0  0  0  0  0  0  0  0  0
   -9.1050   27.0930  -16.5160 C   0  0  0  0  0  0  0  0  0  0  0  0
   -8.1350   25.6520  -14.4430 C   0  0  0  0  0  0  0  0  0  0  0  0
   -8.2581   26.9859  -17.0369 H   0  0  0  0  0  0  0  0  0  0  0  0
   -9.8545   27.3139  -17.1401 H   0  0  0  0  0  0  0  0  0  0  0  0
   -8.9962   27.8319  -15.8510 H   0  0  0  0  0  0  0  0  0  0  0  0
   -7.2610   25.4998  -14.9044 H   0  0  0  0  0  0  0  0  0  0  0  0
   -8.1349   26.5577  -14.0191 H   0  0  0  0  0  0  0  0  0  0  0  0
   -8.2660   24.9543  -13.7386 H   0  0  0  0  0  0  0  0  0  0  0  0
  1  2  2  0  0  0  0
  1  3  1  0  0  0  0
  1  4  1  0  0  0  0
  3  5  1  0  0  0  0
  3  6  1  0  0  0  0
  3  7  1  0  0  0  0
  4  8  1  0  0  0  0
  4  9  1  0  0  0  0
  4 10  1  0  0  0  0
M  END
$$$$
012_B_1
prProtoss 03122516293D 1   1.00000     0.00000     0
Protoss beta proteinsplus
 34 36  0  0  0  0            999 V2000
  -11.6320    6.3360  -19.1060 O   0  0  0  0  0  0  0  0  0  0  0  0
   -5.5810    3.7500  -19.9930 N   0  0  0  0  0  0  0  0  0  0  0  0
   -7.1490    2.0310  -20.0070 N   0  0  0  0  0  0  0  0  0  0  0  0
  -13.1430    6.0520  -19.1100 N   0  0  0  0  0  0  0  0  0  0  0  0
  -16.9180    2.8730  -20.6600 N   0  0  0  0  0  0  0  0  0  0  0  0
   -8.7350    5.8380  -19.2360 N   0  3  0  0  0  0  0  0  0  0  0  0
  -12.0660    4.2680  -20.0440 N   0  0  0  0  0  0  0  0  0  0  0  0
  -16.8540    4.2400  -20.5580 C   0  0  0  0  0  0  0  0  0  0  0  0
  -15.7970    2.1060  -20.4110 C   0  0  0  0  0  0  0  0  0  0  0  0
   -7.3230    5.6850  -19.6400 C   0  0  0  0  0  0  0  0  0  0  0  0
  -15.7290    4.8930  -20.2300 C   0  0  0  0  0  0  0  0  0  0  0  0
  -14.6010    2.6570  -20.0790 C   0  0  0  0  0  0  0  0  0  0  0  0
   -9.2480    3.4180  -19.6750 C   0  0  0  0  0  0  0  0  0  0  0  0
  -11.0950    5.1580  -19.7020 C   0  0  0  0  0  0  0  0  0  0  0  0
   -6.9110    4.2710  -19.8140 C   0  0  0  0  0  0  0  0  0  0  0  0
   -7.7800    3.2450  -19.8300 C   0  0  0  0  0  0  0  0  0  0  0  0
  -13.2580    4.8020  -19.6650 C   0  0  0  0  0  0  0  0  0  0  0  0
   -9.6320    4.8940  -19.9610 C   0  0  1  0  0  0  0  0  0  0  0  0
  -14.5050    4.1230  -19.9460 C   0  0  0  0  0  0  0  0  0  0  0  0
   -5.4397    2.7658  -20.0999 H   0  0  0  0  0  0  0  0  0  0  0  0
   -4.7984    4.3723  -20.0104 H   0  0  0  0  0  0  0  0  0  0  0  0
   -6.1544    1.9939  -20.1043 H   0  0  0  0  0  0  0  0  0  0  0  0
   -7.6862    1.1881  -20.0380 H   0  0  0  0  0  0  0  0  0  0  0  0
   -9.0266    6.7743  -19.4318 H   0  0  0  0  0  0  0  0  0  0  0  0
  -17.6817    4.7723  -20.7358 H   0  0  0  0  0  0  0  0  0  0  0  0
  -15.8684    1.1108  -20.4774 H   0  0  0  0  0  0  0  0  0  0  0  0
   -6.7453    6.0994  -18.9368 H   0  0  0  0  0  0  0  0  0  0  0  0
   -7.1877    6.1638  -20.5074 H   0  0  0  0  0  0  0  0  0  0  0  0
  -15.7210    5.8917  -20.1788 H   0  0  0  0  0  0  0  0  0  0  0  0
  -13.7992    2.0789  -19.9273 H   0  0  0  0  0  0  0  0  0  0  0  0
   -9.5143    3.1800  -18.7409 H   0  0  0  0  0  0  0  0  0  0  0  0
   -9.7234    2.8196  -20.3199 H   0  0  0  0  0  0  0  0  0  0  0  0
   -9.4808    5.0464  -20.9377 H   0  0  0  0  0  0  0  0  0  0  0  0
   -8.8100    5.6640  -18.2541 H   0  0  0  0  0  0  0  0  0  0  0  0
  1  4  1  0  0  0  0
  1 14  1  0  0  0  0
  2 15  1  0  0  0  0
  3 16  1  0  0  0  0
  4 17  2  0  0  0  0
  5  8  2  0  0  0  0
  5  9  1  0  0  0  0
  6 10  1  0  0  0  0
  6 18  1  0  0  0  0
  7 14  2  0  0  0  0
  7 17  1  0  0  0  0
  8 11  1  0  0  0  0
  9 12  2  0  0  0  0
 10 15  1  0  0  0  0
 11 19  2  0  0  0  0
 12 19  1  0  0  0  0
 13 16  1  0  0  0  0
 13 18  1  0  0  0  0
 14 18  1  0  0  0  0
 15 16  2  0  0  0  0
 17 19  1  0  0  0  0
  2 20  1  0  0  0  0
  2 21  1  0  0  0  0
  3 22  1  0  0  0  0
  3 23  1  0  0  0  0
  6 24  1  0  0  0  0
  8 25  1  0  0  0  0
  9 26  1  0  0  0  0
 10 27  1  0  0  0  0
 10 28  1  0  0  0  0
 11 29  1  0  0  0  0
 12 30  1  0  0  0  0
 13 31  1  0  0  0  0
 13 32  1  0  0  0  0
 18 33  1  0  0  0  0
  6 34  1  0  0  0  0
M  CHG  1   6   1
M  END
$$$$
DMS_D_1
prProtoss 03122516293D 1   1.00000     0.00000     0
Protoss beta proteinsplus
 10  9  0  0  0  0            999 V2000
   -9.7240   24.9050  -15.9040 S   0  0  0  0  0  0  0  0  0  0  0  0
  -10.8550   25.6700  -15.1960 O   0  0  0  0  0  0  0  0  0  0  0  0
   -8.9150   26.1870  -16.9010 C   0  0  0  0  0  0  0  0  0  0  0  0
   -8.3590   24.6810  -14.7280 C   0  0  0  0  0  0  0  0  0  0  0  0
   -8.1532   25.7838  -17.4080 H   0  0  0  0  0  0  0  0  0  0  0  0
   -9.5751   26.5751  -17.5442 H   0  0  0  0  0  0  0  0  0  0  0  0
   -8.5709   26.9087  -16.3004 H   0  0  0  0  0  0  0  0  0  0  0  0
   -7.6138   24.1844  -15.1730 H   0  0  0  0  0  0  0  0  0  0  0  0
   -8.0296   25.5754  -14.4254 H   0  0  0  0  0  0  0  0  0  0  0  0
   -8.6818   24.1599  -13.9379 H   0  0  0  0  0  0  0  0  0  0  0  0
  1  2  2  0  0  0  0
  1  3  1  0  0  0  0
  1  4  1  0  0  0  0
  3  5  1  0  0  0  0
  3  6  1  0  0  0  0
  3  7  1  0  0  0  0
  4  8  1  0  0  0  0
  4  9  1  0  0  0  0
  4 10  1  0  0  0  0
M  END
$$$$
DMS_D_2
prProtoss 03122516293D 1   1.00000     0.00000     0
Protoss beta proteinsplus
 10  9  0  0  0  0            999 V2000
  -19.1740   17.8900  -40.2180 S   0  0  0  0  0  0  0  0  0  0  0  0
  -17.9410   18.7630  -40.1320 O   0  0  0  0  0  0  0  0  0  0  0  0
  -19.5990   17.5030  -38.5130 C   0  0  0  0  0  0  0  0  0  0  0  0
  -20.5720   18.9840  -40.5360 C   0  0  0  0  0  0  0  0  0  0  0  0
  -20.4133   16.9228  -38.4959 H   0  0  0  0  0  0  0  0  0  0  0  0
  -18.8370   17.0208  -38.0807 H   0  0  0  0  0  0  0  0  0  0  0  0
  -19.7829   18.3503  -38.0148 H   0  0  0  0  0  0  0  0  0  0  0  0
  -21.4107   18.4431  -40.6001 H   0  0  0  0  0  0  0  0  0  0  0  0
  -20.6565   19.6428  -39.7884 H   0  0  0  0  0  0  0  0  0  0  0  0
  -20.4240   19.4727  -41.3958 H   0  0  0  0  0  0  0  0  0  0  0  0
  1  2  2  0  0  0  0
  1  3  1  0  0  0  0
  1  4  1  0  0  0  0
  3  5  1  0  0  0  0
  3  6  1  0  0  0  0
  3  7  1  0  0  0  0
  4  8  1  0  0  0  0
  4  9  1  0  0  0  0
  4 10  1  0  0  0  0
M  END
$$$$
DMS_D_4
prProtoss 03122516293D 1   1.00000     0.00000     0
Protoss beta proteinsplus
 10  9  0  0  0  0            999 V2000
  -17.9500    4.9600  -46.5100 S   0  0  0  0  0  0  0  0  0  0  0  0
  -17.4640    6.3770  -46.2220 O   0  0  0  0  0  0  0  0  0  0  0  0
  -19.0620    5.1910  -47.9220 C   0  0  0  0  0  0  0  0  0  0  0  0
  -16.6450    4.0470  -47.3590 C   0  0  0  0  0  0  0  0  0  0  0  0
  -19.4417    4.3072  -48.1954 H   0  0  0  0  0  0  0  0  0  0  0  0
  -19.8056    5.8076  -47.6633 H   0  0  0  0  0  0  0  0  0  0  0  0
  -18.5524    5.5857  -48.6865 H   0  0  0  0  0  0  0  0  0  0  0  0
  -16.9590    3.1170  -47.5501 H   0  0  0  0  0  0  0  0  0  0  0  0
  -16.4217    4.5066  -48.2186 H   0  0  0  0  0  0  0  0  0  0  0  0
  -15.8313    4.0115  -46.7788 H   0  0  0  0  0  0  0  0  0  0  0  0
  1  2  2  0  0  0  0
  1  3  1  0  0  0  0
  1  4  1  0  0  0  0
  3  5  1  0  0  0  0
  3  6  1  0  0  0  0
  3  7  1  0  0  0  0
  4  8  1  0  0  0  0
  4  9  1  0  0  0  0
  4 10  1  0  0  0  0
M  END
$$$$
DMS_D_5
prProtoss 03122516293D 1   1.00000     0.00000     0
Protoss beta proteinsplus
 10  9  0  0  0  0            999 V2000
  -24.7730   21.2410  -33.2520 S   0  0  0  0  0  0  0  0  0  0  0  0
  -23.7120   20.3620  -32.6160 O   0  0  0  0  0  0  0  0  0  0  0  0
  -23.8600   22.2340  -34.4520 C   0  0  0  0  0  0  0  0  0  0  0  0
  -25.8150   20.2930  -34.3990 C   0  0  0  0  0  0  0  0  0  0  0  0
  -24.4908   22.8502  -34.9236 H   0  0  0  0  0  0  0  0  0  0  0  0
  -23.1617   22.7706  -33.9782 H   0  0  0  0  0  0  0  0  0  0  0  0
  -23.4218   21.6313  -35.1189 H   0  0  0  0  0  0  0  0  0  0  0  0
  -26.5028   20.8971  -34.8014 H   0  0  0  0  0  0  0  0  0  0  0  0
  -25.2457   19.9062  -35.1244 H   0  0  0  0  0  0  0  0  0  0  0  0
  -26.2701   19.5538  -33.9025 H   0  0  0  0  0  0  0  0  0  0  0  0
  1  2  2  0  0  0  0
  1  3  1  0  0  0  0
  1  4  1  0  0  0  0
  3  5  1  0  0  0  0
  3  6  1  0  0  0  0
  3  7  1  0  0  0  0
  4  8  1  0  0  0  0
  4  9  1  0  0  0  0
  4 10  1  0  0  0  0
M  END
$$$$
DMS_D_6
prProtoss 03122516293D 1   1.00000     0.00000     0
Protoss beta proteinsplus
 10  9  0  0  0  0            999 V2000
  -22.3390   32.9100  -22.9330 S   0  0  0  0  0  0  0  0  0  0  0  0
  -22.4670   32.4680  -21.4820 O   0  0  0  0  0  0  0  0  0  0  0  0
  -20.8310   32.2130  -23.6580 C   0  0  0  0  0  0  0  0  0  0  0  0
  -23.5560   32.0300  -23.9480 C   0  0  0  0  0  0  0  0  0  0  0  0
  -20.7526   32.5068  -24.6107 H   0  0  0  0  0  0  0  0  0  0  0  0
  -20.0352   32.5331  -23.1439 H   0  0  0  0  0  0  0  0  0  0  0  0
  -20.8732   31.2146  -23.6194 H   0  0  0  0  0  0  0  0  0  0  0  0
  -23.4695   32.3223  -24.9004 H   0  0  0  0  0  0  0  0  0  0  0  0
  -23.3927   31.0454  -23.8854 H   0  0  0  0  0  0  0  0  0  0  0  0
  -24.4771   32.2368  -23.6181 H   0  0  0  0  0  0  0  0  0  0  0  0
  1  2  2  0  0  0  0
  1  3  1  0  0  0  0
  1  4  1  0  0  0  0
  3  5  1  0  0  0  0
  3  6  1  0  0  0  0
  3  7  1  0  0  0  0
  4  8  1  0  0  0  0
  4  9  1  0  0  0  0
  4 10  1  0  0  0  0
M  END
$$$$
DMS_D_7
prProtoss 03122516293D 1   1.00000     0.00000     0
Protoss beta proteinsplus
 10  9  0  0  0  0            999 V2000
    4.2170   27.5390  -33.1820 S   0  0  0  0  0  0  0  0  0  0  0  0
    5.4870   26.7780  -33.5470 O   0  0  0  0  0  0  0  0  0  0  0  0
    3.6150   26.8320  -31.6360 C   0  0  0  0  0  0  0  0  0  0  0  0
    4.7410   29.1330  -32.5450 C   0  0  0  0  0  0  0  0  0  0  0  0
    2.7784   27.3036  -31.3573 H   0  0  0  0  0  0  0  0  0  0  0  0
    3.4217   25.8597  -31.7671 H   0  0  0  0  0  0  0  0  0  0  0  0
    4.3111   26.9407  -30.9264 H   0  0  0  0  0  0  0  0  0  0  0  0
    3.9373   29.6709  -32.2908 H   0  0  0  0  0  0  0  0  0  0  0  0
    5.3191   28.9968  -31.7405 H   0  0  0  0  0  0  0  0  0  0  0  0
    5.2586   29.6194  -33.2489 H   0  0  0  0  0  0  0  0  0  0  0  0
  1  2  2  0  0  0  0
  1  3  1  0  0  0  0
  1  4  1  0  0  0  0
  3  5  1  0  0  0  0
  3  6  1  0  0  0  0
  3  7  1  0  0  0  0
  4  8  1  0  0  0  0
  4  9  1  0  0  0  0
  4 10  1  0  0  0  0
M  END
$$$$
024_B_1
prProtoss 03122516293D 1   1.00000     0.00000     0
Protoss beta proteinsplus
 27 28  0  0  0  0            999 V2000
  -10.6130    0.7950  -20.8580 O   0  0  0  0  0  0  0  0  0  0  0  0
  -16.6470    4.2050  -20.6020 N   0  0  0  0  0  0  0  0  0  0  0  0
  -16.6980    2.8850  -20.9510 N   0  0  0  0  0  0  0  0  0  0  0  0
  -15.0200    5.7480  -19.4700 C   0  0  0  0  0  0  0  0  0  0  0  0
  -15.2300    0.8910  -20.9740 C   0  0  0  0  0  0  0  0  0  0  0  0
  -11.9060    1.1210  -18.8510 C   0  0  0  0  0  0  0  0  0  0  0  0
  -13.0530    1.8190  -18.6150 C   0  0  0  0  0  0  0  0  0  0  0  0
  -12.1170    2.7110  -20.5960 C   0  0  0  0  0  0  0  0  0  0  0  0
  -11.0890    1.7920  -19.9250 C   0  0  2  0  0  0  0  0  0  0  0  0
  -15.3770    4.3800  -20.0200 C   0  0  0  0  0  0  0  0  0  0  0  0
  -15.4470    2.3300  -20.6160 C   0  0  0  0  0  0  0  0  0  0  0  0
  -13.1770    3.0460  -19.4930 C   0  0  1  0  0  0  0  0  0  0  0  0
  -14.6010    3.2500  -20.0210 C   0  0  0  0  0  0  0  0  0  0  0  0
  -11.3934    0.3283  -21.2741 H   0  0  0  0  0  0  0  0  0  0  0  0
  -17.3575    4.8967  -20.7318 H   0  0  0  0  0  0  0  0  0  0  0  0
  -14.0951    5.7237  -19.0906 H   0  0  0  0  0  0  0  0  0  0  0  0
  -15.0609    6.4241  -20.2057 H   0  0  0  0  0  0  0  0  0  0  0  0
  -15.6687    5.9979  -18.7512 H   0  0  0  0  0  0  0  0  0  0  0  0
  -14.3132    0.6112  -20.6891 H   0  0  0  0  0  0  0  0  0  0  0  0
  -15.9108    0.3254  -20.5086 H   0  0  0  0  0  0  0  0  0  0  0  0
  -15.3213    0.7762  -21.9632 H   0  0  0  0  0  0  0  0  0  0  0  0
  -11.6432    0.2805  -18.3772 H   0  0  0  0  0  0  0  0  0  0  0  0
  -13.7369    1.5502  -17.9368 H   0  0  0  0  0  0  0  0  0  0  0  0
  -12.5517    2.2434  -21.3657 H   0  0  0  0  0  0  0  0  0  0  0  0
  -11.6761    3.5479  -20.9204 H   0  0  0  0  0  0  0  0  0  0  0  0
  -10.3324    2.3158  -19.5337 H   0  0  0  0  0  0  0  0  0  0  0  0
  -12.8877    3.8559  -18.9828 H   0  0  0  0  0  0  0  0  0  0  0  0
  1  9  1  0  0  0  0
  2  3  1  0  0  0  0
  2 10  1  0  0  0  0
  3 11  2  0  0  0  0
  4 10  1  0  0  0  0
  5 11  1  0  0  0  0
  6  7  2  0  0  0  0
  6  9  1  0  0  0  0
  7 12  1  0  0  0  0
  8  9  1  0  0  0  0
  8 12  1  0  0  0  0
 10 13  2  0  0  0  0
 11 13  1  0  0  0  0
 12 13  1  0  0  0  0
  1 14  1  0  0  0  0
  2 15  1  0  0  0  0
  4 16  1  0  0  0  0
  4 17  1  0  0  0  0
  4 18  1  0  0  0  0
  5 19  1  0  0  0  0
  5 20  1  0  0  0  0
  5 21  1  0  0  0  0
  6 22  1  0  0  0  0
  7 23  1  0  0  0  0
  8 24  1  0  0  0  0
  8 25  1  0  0  0  0
  9 26  1  0  0  0  0
 12 27  1  0  0  0  0
M  END
$$$$
PEG_A_401
prProtoss 03122516293D 1   1.00000     0.00000     0
Protoss beta proteinsplus
 17 16  0  0  0  0            999 V2000
  -16.5990    2.5460  -20.5070 O   0  0  0  0  0  0  0  0  0  0  0  0
  -13.9690    2.2600  -19.5780 O   0  0  0  0  0  0  0  0  0  0  0  0
  -14.8480    4.9810  -20.3670 O   0  0  0  0  0  0  0  0  0  0  0  0
  -16.9890    3.8610  -20.8670 C   0  0  0  0  0  0  0  0  0  0  0  0
  -13.2390    3.4660  -19.3750 C   0  0  0  0  0  0  0  0  0  0  0  0
  -16.2540    5.0370  -20.2430 C   0  0  0  0  0  0  0  0  0  0  0  0
  -14.1760    4.6340  -19.1820 C   0  0  0  0  0  0  0  0  0  0  0  0
  -16.7135    2.4224  -19.5213 H   0  0  0  0  0  0  0  0  0  0  0  0
  -14.8399    2.4684  -20.0230 H   0  0  0  0  0  0  0  0  0  0  0  0
  -17.9552    3.9574  -20.6279 H   0  0  0  0  0  0  0  0  0  0  0  0
  -16.8815    3.9390  -21.8581 H   0  0  0  0  0  0  0  0  0  0  0  0
  -12.6611    3.6377  -20.1729 H   0  0  0  0  0  0  0  0  0  0  0  0
  -12.6647    3.3687  -18.5622 H   0  0  0  0  0  0  0  0  0  0  0  0
  -16.5735    5.8752  -20.6850 H   0  0  0  0  0  0  0  0  0  0  0  0
  -16.4809    5.0662  -19.2695 H   0  0  0  0  0  0  0  0  0  0  0  0
  -14.8534    4.3914  -18.4875 H   0  0  0  0  0  0  0  0  0  0  0  0
  -13.6465    5.4228  -18.8699 H   0  0  0  0  0  0  0  0  0  0  0  0
  1  4  1  0  0  0  0
  2  5  1  0  0  0  0
  3  6  1  0  0  0  0
  3  7  1  0  0  0  0
  4  6  1  0  0  0  0
  5  7  1  0  0  0  0
  1  8  1  0  0  0  0
  2  9  1  0  0  0  0
  4 10  1  0  0  0  0
  4 11  1  0  0  0  0
  5 12  1  0  0  0  0
  5 13  1  0  0  0  0
  6 14  1  0  0  0  0
  6 15  1  0  0  0  0
  7 16  1  0  0  0  0
  7 17  1  0  0  0  0
M  END
$$$$
030_B_2
prProtoss 03122516293D 1   1.00000     0.00000     0
Protoss beta proteinsplus
 36 38  0  0  0  0            999 V2000
    5.4500   -0.1040  -28.5110 O   0  0  0  0  0  0  0  0  0  0  0  0
    1.7520    0.4280  -25.3180 O   0  0  0  0  0  0  0  0  0  0  0  0
    2.3430    0.7360  -28.5770 O   0  0  0  0  0  0  0  0  0  0  0  0
    3.9710   -0.6630  -26.8860 O   0  0  0  0  0  0  0  0  0  0  0  0
   -0.6330    1.0290  -28.0360 N   0  3  0  0  0  0  0  0  0  0  0  0
    4.3730   -2.1430  -28.4720 N   0  0  0  0  0  0  0  0  0  0  0  0
    3.1440    0.7270  -25.1160 C   0  0  0  0  0  0  0  0  0  0  0  0
    1.4310   -0.3430  -28.3200 C   0  0  0  0  0  0  0  0  0  0  0  0
    6.1710   -4.4960  -31.4540 C   0  0  0  0  0  0  0  0  0  0  0  0
    6.7370   -3.2760  -31.1350 C   0  0  0  0  0  0  0  0  0  0  0  0
    5.0300   -4.9110  -30.8020 C   0  0  0  0  0  0  0  0  0  0  0  0
    6.1650   -2.4670  -30.1650 C   0  0  0  0  0  0  0  0  0  0  0  0
    4.4470   -4.1120  -29.8310 C   0  0  0  0  0  0  0  0  0  0  0  0
    4.6830   -0.8990  -28.0110 C   0  0  0  0  0  0  0  0  0  0  0  0
    3.7180    0.7300  -26.5220 C   0  0  2  0  0  0  0  0  0  0  0  0
    2.5870    1.3830  -27.3260 C   0  0  2  0  0  0  0  0  0  0  0  0
    1.3280    1.1460  -26.4800 C   0  0  1  0  0  0  0  0  0  0  0  0
    0.4240    0.2680  -27.3510 C   0  0  1  0  0  0  0  0  0  0  0  0
    5.0140   -2.8850  -29.5020 C   0  0  0  0  0  0  0  0  0  0  0  0
   -1.2640    1.4069  -27.3585 H   0  0  0  0  0  0  0  0  0  0  0  0
   -0.2209    1.7744  -28.5600 H   0  0  0  0  0  0  0  0  0  0  0  0
    3.5960   -2.5912  -28.0299 H   0  0  0  0  0  0  0  0  0  0  0  0
    3.5816    0.0255  -24.5535 H   0  0  0  0  0  0  0  0  0  0  0  0
    3.2576    1.6209  -24.6823 H   0  0  0  0  0  0  0  0  0  0  0  0
    1.9036   -1.1192  -27.9026 H   0  0  0  0  0  0  0  0  0  0  0  0
    0.9818   -0.6402  -29.1626 H   0  0  0  0  0  0  0  0  0  0  0  0
    6.5876   -5.0750  -32.1548 H   0  0  0  0  0  0  0  0  0  0  0  0
    7.5653   -2.9745  -31.6073 H   0  0  0  0  0  0  0  0  0  0  0  0
    4.6202   -5.7940  -31.0308 H   0  0  0  0  0  0  0  0  0  0  0  0
    6.5786   -1.5843  -29.9418 H   0  0  0  0  0  0  0  0  0  0  0  0
    3.6166   -4.4184  -29.3657 H   0  0  0  0  0  0  0  0  0  0  0  0
    4.5558    1.2739  -26.5693 H   0  0  0  0  0  0  0  0  0  0  0  0
    2.7551    2.3604  -27.4539 H   0  0  0  0  0  0  0  0  0  0  0  0
    0.8808    2.0069  -26.2373 H   0  0  0  0  0  0  0  0  0  0  0  0
    0.0132   -0.4524  -26.7922 H   0  0  0  0  0  0  0  0  0  0  0  0
   -1.1324    0.4228  -28.6550 H   0  0  0  0  0  0  0  0  0  0  0  0
  1 14  2  0  0  0  0
  2  7  1  0  0  0  0
  2 17  1  0  0  0  0
  3  8  1  0  0  0  0
  3 16  1  0  0  0  0
  4 14  1  0  0  0  0
  4 15  1  0  0  0  0
  5 18  1  0  0  0  0
  6 14  1  0  0  0  0
  6 19  1  0  0  0  0
  7 15  1  0  0  0  0
  8 18  1  0  0  0  0
  9 10  2  0  0  0  0
  9 11  1  0  0  0  0
 10 12  1  0  0  0  0
 11 13  2  0  0  0  0
 12 19  2  0  0  0  0
 13 19  1  0  0  0  0
 15 16  1  0  0  0  0
 16 17  1  0  0  0  0
 17 18  1  0  0  0  0
  5 20  1  0  0  0  0
  5 21  1  0  0  0  0
  6 22  1  0  0  0  0
  7 23  1  0  0  0  0
  7 24  1  0  0  0  0
  8 25  1  0  0  0  0
  8 26  1  0  0  0  0
  9 27  1  0  0  0  0
 10 28  1  0  0  0  0
 11 29  1  0  0  0  0
 12 30  1  0  0  0  0
 13 31  1  0  0  0  0
 15 32  1  0  0  0  0
 16 33  1  0  0  0  0
 17 34  1  0  0  0  0
 18 35  1  0  0  0  0
  5 36  1  0  0  0  0
M  CHG  1   5   1
M  END
$$$$
030_B_3
prProtoss 03122516293D 1   1.00000     0.00000     0
Protoss beta proteinsplus
 36 38  0  0  0  0            999 V2000
  -25.5140   12.7390  -30.2180 O   0  0  0  0  0  0  0  0  0  0  0  0
  -24.4660   11.8670  -25.5880 O   0  0  0  0  0  0  0  0  0  0  0  0
  -23.5170   11.1590  -28.6070 O   0  0  0  0  0  0  0  0  0  0  0  0
  -25.1600   13.2490  -28.0340 O   0  0  0  0  0  0  0  0  0  0  0  0
  -21.7540    9.5830  -26.6560 N   0  3  0  0  0  0  0  0  0  0  0  0
  -24.3780   14.6290  -29.5560 N   0  0  0  0  0  0  0  0  0  0  0  0
  -25.7940   12.0750  -26.0760 C   0  0  0  0  0  0  0  0  0  0  0  0
  -22.4000   11.6530  -27.8470 C   0  0  0  0  0  0  0  0  0  0  0  0
  -23.7760   16.7890  -33.1000 C   0  0  0  0  0  0  0  0  0  0  0  0
  -23.1620   17.1660  -31.9260 C   0  0  0  0  0  0  0  0  0  0  0  0
  -24.6410   15.7140  -33.1080 C   0  0  0  0  0  0  0  0  0  0  0  0
  -23.3990   16.4660  -30.7530 C   0  0  0  0  0  0  0  0  0  0  0  0
  -24.8850   15.0020  -31.9450 C   0  0  0  0  0  0  0  0  0  0  0  0
  -25.0650   13.4730  -29.3620 C   0  0  0  0  0  0  0  0  0  0  0  0
  -25.6370   11.9460  -27.5820 C   0  0  2  0  0  0  0  0  0  0  0  0
  -24.5830   10.8350  -27.7060 C   0  0  2  0  0  0  0  0  0  0  0  0
  -23.9560   10.7440  -26.3120 C   0  0  1  0  0  0  0  0  0  0  0  0
  -22.4450   10.8750  -26.5350 C   0  0  1  0  0  0  0  0  0  0  0  0
  -24.2500   15.3660  -30.7610 C   0  0  0  0  0  0  0  0  0  0  0  0
  -21.8000    9.0973  -25.7831 H   0  0  0  0  0  0  0  0  0  0  0  0
  -22.1950    9.0344  -27.3663 H   0  0  0  0  0  0  0  0  0  0  0  0
  -23.9082   15.0036  -28.7566 H   0  0  0  0  0  0  0  0  0  0  0  0
  -26.1288   12.9838  -25.8273 H   0  0  0  0  0  0  0  0  0  0  0  0
  -26.4193   11.3805  -25.7202 H   0  0  0  0  0  0  0  0  0  0  0  0
  -22.4954   12.6340  -27.6781 H   0  0  0  0  0  0  0  0  0  0  0  0
  -21.5415   11.4798  -28.3297 H   0  0  0  0  0  0  0  0  0  0  0  0
  -23.5953   17.2932  -33.9445 H   0  0  0  0  0  0  0  0  0  0  0  0
  -22.5411   17.9499  -31.9197 H   0  0  0  0  0  0  0  0  0  0  0  0
  -25.0945   15.4473  -33.9584 H   0  0  0  0  0  0  0  0  0  0  0  0
  -22.9585   16.7518  -29.9020 H   0  0  0  0  0  0  0  0  0  0  0  0
  -25.5169   14.2270  -31.9561 H   0  0  0  0  0  0  0  0  0  0  0  0
  -26.4973   11.6921  -28.0242 H   0  0  0  0  0  0  0  0  0  0  0  0
  -25.0105    9.9674  -27.9599 H   0  0  0  0  0  0  0  0  0  0  0  0
  -24.1869    9.8816  -25.8615 H   0  0  0  0  0  0  0  0  0  0  0  0
  -22.0352   11.4161  -25.8007 H   0  0  0  0  0  0  0  0  0  0  0  0
  -20.7970    9.7385  -26.9009 H   0  0  0  0  0  0  0  0  0  0  0  0
  1 14  2  0  0  0  0
  2  7  1  0  0  0  0
  2 17  1  0  0  0  0
  3  8  1  0  0  0  0
  3 16  1  0  0  0  0
  4 14  1  0  0  0  0
  4 15  1  0  0  0  0
  5 18  1  0  0  0  0
  6 14  1  0  0  0  0
  6 19  1  0  0  0  0
  7 15  1  0  0  0  0
  8 18  1  0  0  0  0
  9 10  2  0  0  0  0
  9 11  1  0  0  0  0
 10 12  1  0  0  0  0
 11 13  2  0  0  0  0
 12 19  2  0  0  0  0
 13 19  1  0  0  0  0
 15 16  1  0  0  0  0
 16 17  1  0  0  0  0
 17 18  1  0  0  0  0
  5 20  1  0  0  0  0
  5 21  1  0  0  0  0
  6 22  1  0  0  0  0
  7 23  1  0  0  0  0
  7 24  1  0  0  0  0
  8 25  1  0  0  0  0
  8 26  1  0  0  0  0
  9 27  1  0  0  0  0
 10 28  1  0  0  0  0
 11 29  1  0  0  0  0
 12 30  1  0  0  0  0
 13 31  1  0  0  0  0
 15 32  1  0  0  0  0
 16 33  1  0  0  0  0
 17 34  1  0  0  0  0
 18 35  1  0  0  0  0
  5 36  1  0  0  0  0
M  CHG  1   5   1
M  END
$$$$
DMS_D_1
prProtoss 03122516293D 1   1.00000     0.00000     0
Protoss beta proteinsplus
 10  9  0  0  0  0            999 V2000
  -19.5720   18.4120   -1.5260 S   0  0  0  0  0  0  0  0  0  0  0  0
  -18.4000   17.9400   -0.6980 O   0  0  0  0  0  0  0  0  0  0  0  0
  -21.0370   18.3060   -0.4740 C   0  0  0  0  0  0  0  0  0  0  0  0
  -19.4500   20.2140   -1.6150 C   0  0  0  0  0  0  0  0  0  0  0  0
  -21.8389   18.6113   -0.9875 H   0  0  0  0  0  0  0  0  0  0  0  0
  -21.1693   17.3590   -0.1812 H   0  0  0  0  0  0  0  0  0  0  0  0
  -20.9136   18.8890    0.3290 H   0  0  0  0  0  0  0  0  0  0  0  0
  -20.2099   20.5732   -2.1569 H   0  0  0  0  0  0  0  0  0  0  0  0
  -19.4887   20.5967   -0.6919 H   0  0  0  0  0  0  0  0  0  0  0  0
  -18.5840   20.4686   -2.0454 H   0  0  0  0  0  0  0  0  0  0  0  0
  1  2  2  0  0  0  0
  1  3  1  0  0  0  0
  1  4  1  0  0  0  0
  3  5  1  0  0  0  0
  3  6  1  0  0  0  0
  3  7  1  0  0  0  0
  4  8  1  0  0  0  0
  4  9  1  0  0  0  0
  4 10  1  0  0  0  0
M  END
$$$$
DMS_D_2
prProtoss 03122516293D 1   1.00000     0.00000     0
Protoss beta proteinsplus
 10  9  0  0  0  0            999 V2000
  -17.6800    5.0820  -45.8390 S   0  0  0  0  0  0  0  0  0  0  0  0
  -17.3030    6.5250  -45.6350 O   0  0  0  0  0  0  0  0  0  0  0  0
  -19.0450    5.0150  -47.0200 C   0  0  0  0  0  0  0  0  0  0  0  0
  -16.3990    4.2510  -46.8000 C   0  0  0  0  0  0  0  0  0  0  0  0
  -19.3104    4.0624  -47.1690 H   0  0  0  0  0  0  0  0  0  0  0  0
  -19.8248    5.5255  -46.6575 H   0  0  0  0  0  0  0  0  0  0  0  0
  -18.7556    5.4200  -47.8873 H   0  0  0  0  0  0  0  0  0  0  0  0
  -16.6517    3.2928  -46.9341 H   0  0  0  0  0  0  0  0  0  0  0  0
  -16.3061    4.6988  -47.6893 H   0  0  0  0  0  0  0  0  0  0  0  0
  -15.5291    4.3007  -46.3093 H   0  0  0  0  0  0  0  0  0  0  0  0
  1  2  2  0  0  0  0
  1  3  1  0  0  0  0
  1  4  1  0  0  0  0
  3  5  1  0  0  0  0
  3  6  1  0  0  0  0
  3  7  1  0  0  0  0
  4  8  1  0  0  0  0
  4  9  1  0  0  0  0
  4 10  1  0  0  0  0
M  END
$$$$
DMS_D_3
prProtoss 03122516293D 1   1.00000     0.00000     0
Protoss beta proteinsplus
 10  9  0  0  0  0            999 V2000
  -26.7620   15.8460   -5.4300 S   0  0  0  0  0  0  0  0  0  0  0  0
  -27.7710   14.7260   -5.3010 O   0  0  0  0  0  0  0  0  0  0  0  0
  -27.6740   17.4070   -5.4130 C   0  0  0  0  0  0  0  0  0  0  0  0
  -25.9670   15.9740   -3.8090 C   0  0  0  0  0  0  0  0  0  0  0  0
  -27.0320   18.1691   -5.4970 H   0  0  0  0  0  0  0  0  0  0  0  0
  -28.3162   17.4262   -6.1793 H   0  0  0  0  0  0  0  0  0  0  0  0
  -28.1782   17.4891   -4.5533 H   0  0  0  0  0  0  0  0  0  0  0  0
  -25.2834   16.7036   -3.8297 H   0  0  0  0  0  0  0  0  0  0  0  0
  -26.6563   16.1826   -3.1152 H   0  0  0  0  0  0  0  0  0  0  0  0
  -25.5221   15.1065   -3.5865 H   0  0  0  0  0  0  0  0  0  0  0  0
  1  2  2  0  0  0  0
  1  3  1  0  0  0  0
  1  4  1  0  0  0  0
  3  5  1  0  0  0  0
  3  6  1  0  0  0  0
  3  7  1  0  0  0  0
  4  8  1  0  0  0  0
  4  9  1  0  0  0  0
  4 10  1  0  0  0  0
M  END
$$$$
DMS_D_4
prProtoss 03122516293D 1   1.00000     0.00000     0
Protoss beta proteinsplus
 10  9  0  0  0  0            999 V2000
  -19.0250   18.4260  -39.6630 S   0  0  0  0  0  0  0  0  0  0  0  0
  -18.1140   19.6020  -39.4180 O   0  0  0  0  0  0  0  0  0  0  0  0
  -19.2960   17.6820  -38.0400 C   0  0  0  0  0  0  0  0  0  0  0  0
  -20.6730   19.1170  -39.9200 C   0  0  0  0  0  0  0  0  0  0  0  0
  -19.8980   16.8889  -38.1332 H   0  0  0  0  0  0  0  0  0  0  0  0
  -18.4195   17.3919  -37.6558 H   0  0  0  0  0  0  0  0  0  0  0  0
  -19.7206   18.3532  -37.4323 H   0  0  0  0  0  0  0  0  0  0  0  0
  -21.3227   18.3757  -40.0883 H   0  0  0  0  0  0  0  0  0  0  0  0
  -20.9517   19.6261  -39.1056 H   0  0  0  0  0  0  0  0  0  0  0  0
  -20.6574   19.7320  -40.7084 H   0  0  0  0  0  0  0  0  0  0  0  0
  1  2  2  0  0  0  0
  1  3  1  0  0  0  0
  1  4  1  0  0  0  0
  3  5  1  0  0  0  0
  3  6  1  0  0  0  0
  3  7  1  0  0  0  0
  4  8  1  0  0  0  0
  4  9  1  0  0  0  0
  4 10  1  0  0  0  0
M  END
$$$$
DMS_D_5
prProtoss 03122516293D 1   1.00000     0.00000     0
Protoss beta proteinsplus
 10  9  0  0  0  0            999 V2000
   -9.3860   25.5430  -15.4700 S   0  0  0  0  0  0  0  0  0  0  0  0
  -10.6340   25.9390  -14.7190 O   0  0  0  0  0  0  0  0  0  0  0  0
   -9.9930   24.5740  -16.8650 C   0  0  0  0  0  0  0  0  0  0  0  0
   -8.8510   26.9880  -16.4200 C   0  0  0  0  0  0  0  0  0  0  0  0
   -9.2196   24.2690  -17.4207 H   0  0  0  0  0  0  0  0  0  0  0  0
  -10.4937   23.7779  -16.5251 H   0  0  0  0  0  0  0  0  0  0  0  0
  -10.6022   25.1379  -17.4226 H   0  0  0  0  0  0  0  0  0  0  0  0
   -8.0227   26.7619  -16.9327 H   0  0  0  0  0  0  0  0  0  0  0  0
   -9.5746   27.2550  -17.0565 H   0  0  0  0  0  0  0  0  0  0  0  0
   -8.6601   27.7454  -15.7956 H   0  0  0  0  0  0  0  0  0  0  0  0
  1  2  2  0  0  0  0
  1  3  1  0  0  0  0
  1  4  1  0  0  0  0
  3  5  1  0  0  0  0
  3  6  1  0  0  0  0
  3  7  1  0  0  0  0
  4  8  1  0  0  0  0
  4  9  1  0  0  0  0
  4 10  1  0  0  0  0
M  END
$$$$
DMS_D_6
prProtoss 03122516293D 1   1.00000     0.00000     0
Protoss beta proteinsplus
 10  9  0  0  0  0            999 V2000
  -14.9820  -11.1570  -25.5450 S   0  0  0  0  0  0  0  0  0  0  0  0
  -14.0530  -11.7000  -24.4740 O   0  0  0  0  0  0  0  0  0  0  0  0
  -16.5340  -12.0590  -25.3520 C   0  0  0  0  0  0  0  0  0  0  0  0
  -14.3840  -11.7960  -27.1200 C   0  0  0  0  0  0  0  0  0  0  0  0
  -17.1910  -11.7420  -26.0360 H   0  0  0  0  0  0  0  0  0  0  0  0
  -16.3687  -13.0373  -25.4768 H   0  0  0  0  0  0  0  0  0  0  0  0
  -16.9019  -11.8973  -24.4363 H   0  0  0  0  0  0  0  0  0  0  0  0
  -14.9692  -11.4622  -27.8590 H   0  0  0  0  0  0  0  0  0  0  0  0
  -13.4458  -11.4848  -27.2714 H   0  0  0  0  0  0  0  0  0  0  0  0
  -14.4051  -12.7956  -27.1038 H   0  0  0  0  0  0  0  0  0  0  0  0
  1  2  2  0  0  0  0
  1  3  1  0  0  0  0
  1  4  1  0  0  0  0
  3  5  1  0  0  0  0
  3  6  1  0  0  0  0
  3  7  1  0  0  0  0
  4  8  1  0  0  0  0
  4  9  1  0  0  0  0
  4 10  1  0  0  0  0
M  END
$$$$
DMS_D_7
prProtoss 03122516293D 1   1.00000     0.00000     0
Protoss beta proteinsplus
 10  9  0  0  0  0            999 V2000
   -4.3410   25.5000  -30.1290 S   0  0  0  0  0  0  0  0  0  0  0  0
   -3.3940   25.0700  -31.2410 O   0  0  0  0  0  0  0  0  0  0  0  0
   -5.8260   24.4420  -30.2350 C   0  0  0  0  0  0  0  0  0  0  0  0
   -5.1490   27.0210  -30.7010 C   0  0  0  0  0  0  0  0  0  0  0  0
   -6.4709   24.6996  -29.5154 H   0  0  0  0  0  0  0  0  0  0  0  0
   -6.2582   24.5627  -31.1287 H   0  0  0  0  0  0  0  0  0  0  0  0
   -5.5621   23.4845  -30.1189 H   0  0  0  0  0  0  0  0  0  0  0  0
   -5.7848   27.3445  -30.0002 H   0  0  0  0  0  0  0  0  0  0  0  0
   -4.4568   27.7221  -30.8722 H   0  0  0  0  0  0  0  0  0  0  0  0
   -5.6506   26.8346  -31.5457 H   0  0  0  0  0  0  0  0  0  0  0  0
  1  2  2  0  0  0  0
  1  3  1  0  0  0  0
  1  4  1  0  0  0  0
  3  5  1  0  0  0  0
  3  6  1  0  0  0  0
  3  7  1  0  0  0  0
  4  8  1  0  0  0  0
  4  9  1  0  0  0  0
  4 10  1  0  0  0  0
M  END
$$$$
DMS_D_1
prProtoss 03122516293D 1   1.00000     0.00000     0
Protoss beta proteinsplus
 10  9  0  0  0  0            999 V2000
  -17.7860    5.0440  -46.0650 S   0  0  0  0  0  0  0  0  0  0  0  0
  -17.2450    6.4140  -45.6750 O   0  0  0  0  0  0  0  0  0  0  0  0
  -18.8050    5.4810  -47.4970 C   0  0  0  0  0  0  0  0  0  0  0  0
  -16.5190    4.1930  -47.0370 C   0  0  0  0  0  0  0  0  0  0  0  0
  -19.2332    4.6559  -47.8656 H   0  0  0  0  0  0  0  0  0  0  0  0
  -19.5142    6.1278  -47.2165 H   0  0  0  0  0  0  0  0  0  0  0  0
  -18.2302    5.9006  -48.1995 H   0  0  0  0  0  0  0  0  0  0  0  0
  -16.8545    3.2895  -47.3039 H   0  0  0  0  0  0  0  0  0  0  0  0
  -16.3127    4.7275  -47.8566 H   0  0  0  0  0  0  0  0  0  0  0  0
  -15.6896    4.0917  -46.4877 H   0  0  0  0  0  0  0  0  0  0  0  0
  1  2  2  0  0  0  0
  1  3  1  0  0  0  0
  1  4  1  0  0  0  0
  3  5  1  0  0  0  0
  3  6  1  0  0  0  0
  3  7  1  0  0  0  0
  4  8  1  0  0  0  0
  4  9  1  0  0  0  0
  4 10  1  0  0  0  0
M  END
$$$$
DMS_D_2
prProtoss 03122516293D 1   1.00000     0.00000     0
Protoss beta proteinsplus
 10  9  0  0  0  0            999 V2000
   14.9380   24.2070  -23.5250 S   0  0  0  0  0  0  0  0  0  0  0  0
   14.0360   24.7900  -22.4540 O   0  0  0  0  0  0  0  0  0  0  0  0
   14.0580   24.3170  -25.0880 C   0  0  0  0  0  0  0  0  0  0  0  0
   16.2980   25.3420  -23.8330 C   0  0  0  0  0  0  0  0  0  0  0  0
   14.6273   23.9395  -25.8183 H   0  0  0  0  0  0  0  0  0  0  0  0
   13.2054   23.7978  -25.0278 H   0  0  0  0  0  0  0  0  0  0  0  0
   13.8516   25.2749  -25.2876 H   0  0  0  0  0  0  0  0  0  0  0  0
   16.8959   24.9620  -24.5388 H   0  0  0  0  0  0  0  0  0  0  0  0
   15.9350   26.2212  -24.1416 H   0  0  0  0  0  0  0  0  0  0  0  0
   16.8194   25.4740  -22.9900 H   0  0  0  0  0  0  0  0  0  0  0  0
  1  2  2  0  0  0  0
  1  3  1  0  0  0  0
  1  4  1  0  0  0  0
  3  5  1  0  0  0  0
  3  6  1  0  0  0  0
  3  7  1  0  0  0  0
  4  8  1  0  0  0  0
  4  9  1  0  0  0  0
  4 10  1  0  0  0  0
M  END
$$$$
DMS_D_3
prProtoss 03122516293D 1   1.00000     0.00000     0
Protoss beta proteinsplus
 10  9  0  0  0  0            999 V2000
    4.4610   27.8680  -32.2850 S   0  0  0  0  0  0  0  0  0  0  0  0
    3.0230   27.4170  -32.3430 O   0  0  0  0  0  0  0  0  0  0  0  0
    5.4480   26.7210  -33.2540 C   0  0  0  0  0  0  0  0  0  0  0  0
    4.6170   29.2510  -33.4160 C   0  0  0  0  0  0  0  0  0  0  0  0
    6.4072   27.0027  -33.2286 H   0  0  0  0  0  0  0  0  0  0  0  0
    5.3606   25.8009  -32.8721 H   0  0  0  0  0  0  0  0  0  0  0  0
    5.1256   26.7210  -34.2006 H   0  0  0  0  0  0  0  0  0  0  0  0
    5.5603   29.5829  -33.4086 H   0  0  0  0  0  0  0  0  0  0  0  0
    4.3750   28.9549  -34.3400 H   0  0  0  0  0  0  0  0  0  0  0  0
    4.0027   29.9864  -33.1300 H   0  0  0  0  0  0  0  0  0  0  0  0
  1  2  2  0  0  0  0
  1  3  1  0  0  0  0
  1  4  1  0  0  0  0
  3  5  1  0  0  0  0
  3  6  1  0  0  0  0
  3  7  1  0  0  0  0
  4  8  1  0  0  0  0
  4  9  1  0  0  0  0
  4 10  1  0  0  0  0
M  END
$$$$
DMS_D_4
prProtoss 03122516293D 1   1.00000     0.00000     0
Protoss beta proteinsplus
 10  9  0  0  0  0            999 V2000
  -27.0800   15.6920   -5.7770 S   0  0  0  0  0  0  0  0  0  0  0  0
  -25.9950   15.8460   -4.7250 O   0  0  0  0  0  0  0  0  0  0  0  0
  -28.2750   14.5350   -5.0840 C   0  0  0  0  0  0  0  0  0  0  0  0
  -28.0740   17.1830   -5.5080 C   0  0  0  0  0  0  0  0  0  0  0  0
  -29.0189   14.3930   -5.7370 H   0  0  0  0  0  0  0  0  0  0  0  0
  -27.8242   13.6621   -4.8973 H   0  0  0  0  0  0  0  0  0  0  0  0
  -28.6451   14.9078   -4.2331 H   0  0  0  0  0  0  0  0  0  0  0  0
  -28.8363   17.1966   -6.1551 H   0  0  0  0  0  0  0  0  0  0  0  0
  -28.4300   17.1822   -4.5735 H   0  0  0  0  0  0  0  0  0  0  0  0
  -27.5043   17.9930   -5.6470 H   0  0  0  0  0  0  0  0  0  0  0  0
  1  2  2  0  0  0  0
  1  3  1  0  0  0  0
  1  4  1  0  0  0  0
  3  5  1  0  0  0  0
  3  6  1  0  0  0  0
  3  7  1  0  0  0  0
  4  8  1  0  0  0  0
  4  9  1  0  0  0  0
  4 10  1  0  0  0  0
M  END
$$$$
DMS_D_5
prProtoss 03122516293D 1   1.00000     0.00000     0
Protoss beta proteinsplus
 10  9  0  0  0  0            999 V2000
   -9.6390   25.0880  -15.8370 S   0  0  0  0  0  0  0  0  0  0  0  0
  -10.7290   25.7170  -14.9870 O   0  0  0  0  0  0  0  0  0  0  0  0
   -8.9260   26.5130  -16.6960 C   0  0  0  0  0  0  0  0  0  0  0  0
   -8.2530   24.7870  -14.7060 C   0  0  0  0  0  0  0  0  0  0  0  0
   -8.1853   26.2057  -17.2934 H   0  0  0  0  0  0  0  0  0  0  0  0
   -9.6330   26.9596  -17.2443 H   0  0  0  0  0  0  0  0  0  0  0  0
   -8.5658   27.1609  -16.0248 H   0  0  0  0  0  0  0  0  0  0  0  0
   -7.4964   24.3699  -15.2096 H   0  0  0  0  0  0  0  0  0  0  0  0
   -7.9517   25.6543  -14.3098 H   0  0  0  0  0  0  0  0  0  0  0  0
   -8.5469   24.1709  -13.9752 H   0  0  0  0  0  0  0  0  0  0  0  0
  1  2  2  0  0  0  0
  1  3  1  0  0  0  0
  1  4  1  0  0  0  0
  3  5  1  0  0  0  0
  3  6  1  0  0  0  0
  3  7  1  0  0  0  0
  4  8  1  0  0  0  0
  4  9  1  0  0  0  0
  4 10  1  0  0  0  0
M  END
$$$$
DMS_D_6
prProtoss 03122516293D 1   1.00000     0.00000     0
Protoss beta proteinsplus
 10  9  0  0  0  0            999 V2000
  -19.8850   18.3880   -0.7700 S   0  0  0  0  0  0  0  0  0  0  0  0
  -19.4830   18.9150   -2.1240 O   0  0  0  0  0  0  0  0  0  0  0  0
  -21.3310   17.3320   -1.0060 C   0  0  0  0  0  0  0  0  0  0  0  0
  -18.6940   17.1010   -0.3320 C   0  0  0  0  0  0  0  0  0  0  0  0
  -21.6236   16.9652   -0.1229 H   0  0  0  0  0  0  0  0  0  0  0  0
  -22.0737   17.8685   -1.4068 H   0  0  0  0  0  0  0  0  0  0  0  0
  -21.0963   16.5776   -1.6190 H   0  0  0  0  0  0  0  0  0  0  0  0
  -18.9260   16.7233    0.5644 H   0  0  0  0  0  0  0  0  0  0  0  0
  -18.7220   16.3736   -1.0176 H   0  0  0  0  0  0  0  0  0  0  0  0
  -17.7750   17.4941   -0.3004 H   0  0  0  0  0  0  0  0  0  0  0  0
  1  2  2  0  0  0  0
  1  3  1  0  0  0  0
  1  4  1  0  0  0  0
  3  5  1  0  0  0  0
  3  6  1  0  0  0  0
  3  7  1  0  0  0  0
  4  8  1  0  0  0  0
  4  9  1  0  0  0  0
  4 10  1  0  0  0  0
M  END
$$$$
DMS_D_7
prProtoss 03122516293D 1   1.00000     0.00000     0
Protoss beta proteinsplus
 10  9  0  0  0  0            999 V2000
   -0.6500   20.6670  -50.1460 S   0  0  0  0  0  0  0  0  0  0  0  0
   -1.8940   19.8150  -49.9950 O   0  0  0  0  0  0  0  0  0  0  0  0
    0.5960   19.5250  -50.7910 C   0  0  0  0  0  0  0  0  0  0  0  0
   -0.8940   21.6260  -51.6560 C   0  0  0  0  0  0  0  0  0  0  0  0
    1.4593   20.0126  -50.9215 H   0  0  0  0  0  0  0  0  0  0  0  0
    0.7306   18.7768  -50.1413 H   0  0  0  0  0  0  0  0  0  0  0  0
    0.2869   19.1543  -51.6668 H   0  0  0  0  0  0  0  0  0  0  0  0
   -0.0991   22.2127  -51.8103 H   0  0  0  0  0  0  0  0  0  0  0  0
   -1.0050   21.0044  -52.4314 H   0  0  0  0  0  0  0  0  0  0  0  0
   -1.7130   22.1921  -51.5627 H   0  0  0  0  0  0  0  0  0  0  0  0
  1  2  2  0  0  0  0
  1  3  1  0  0  0  0
  1  4  1  0  0  0  0
  3  5  1  0  0  0  0
  3  6  1  0  0  0  0
  3  7  1  0  0  0  0
  4  8  1  0  0  0  0
  4  9  1  0  0  0  0
  4 10  1  0  0  0  0
M  END
$$$$
DMS_D_8
prProtoss 03122516293D 1   1.00000     0.00000     0
Protoss beta proteinsplus
 10  9  0  0  0  0            999 V2000
   11.7220   14.2670  -22.4260 S   0  0  0  0  0  0  0  0  0  0  0  0
   11.2100   15.6430  -22.0540 O   0  0  0  0  0  0  0  0  0  0  0  0
   13.1930   14.5560  -23.4340 C   0  0  0  0  0  0  0  0  0  0  0  0
   12.6320   13.6160  -21.0150 C   0  0  0  0  0  0  0  0  0  0  0  0
   13.5825   13.6787  -23.7145 H   0  0  0  0  0  0  0  0  0  0  0  0
   12.9426   15.0843  -24.2453 H   0  0  0  0  0  0  0  0  0  0  0  0
   13.8682   15.0650  -22.9001 H   0  0  0  0  0  0  0  0  0  0  0  0
   12.9817   12.7054  -21.2353 H   0  0  0  0  0  0  0  0  0  0  0  0
   13.3967   14.2243  -20.8021 H   0  0  0  0  0  0  0  0  0  0  0  0
   12.0229   13.5568  -20.2241 H   0  0  0  0  0  0  0  0  0  0  0  0
  1  2  2  0  0  0  0
  1  3  1  0  0  0  0
  1  4  1  0  0  0  0
  3  5  1  0  0  0  0
  3  6  1  0  0  0  0
  3  7  1  0  0  0  0
  4  8  1  0  0  0  0
  4  9  1  0  0  0  0
  4 10  1  0  0  0  0
M  END
$$$$
DMS_D_9
prProtoss 03122516293D 1   1.00000     0.00000     0
Protoss beta proteinsplus
 10  9  0  0  0  0            999 V2000
    6.1090   11.4870  -20.6850 S   0  0  0  0  0  0  0  0  0  0  0  0
    5.5800   12.4600  -19.6560 O   0  0  0  0  0  0  0  0  0  0  0  0
    7.7540   12.0810  -21.1330 C   0  0  0  0  0  0  0  0  0  0  0  0
    6.6260   10.0420  -19.7260 C   0  0  0  0  0  0  0  0  0  0  0  0
    8.1543   11.4703  -21.8162 H   0  0  0  0  0  0  0  0  0  0  0  0
    7.6835   13.0039  -21.5114 H   0  0  0  0  0  0  0  0  0  0  0  0
    8.3353   12.0978  -20.3195 H   0  0  0  0  0  0  0  0  0  0  0  0
    6.9918    9.3456  -20.3435 H   0  0  0  0  0  0  0  0  0  0  0  0
    7.3325   10.3116  -19.0717 H   0  0  0  0  0  0  0  0  0  0  0  0
    5.8394    9.6703  -19.2329 H   0  0  0  0  0  0  0  0  0  0  0  0
  1  2  2  0  0  0  0
  1  3  1  0  0  0  0
  1  4  1  0  0  0  0
  3  5  1  0  0  0  0
  3  6  1  0  0  0  0
  3  7  1  0  0  0  0
  4  8  1  0  0  0  0
  4  9  1  0  0  0  0
  4 10  1  0  0  0  0
M  END
$$$$
DMS_D_10
prProtoss 03122516293D 1   1.00000     0.00000     0
Protoss beta proteinsplus
 10  9  0  0  0  0            999 V2000
   -3.8120   25.5800  -30.4160 S   0  0  0  0  0  0  0  0  0  0  0  0
   -3.3790   25.0360  -31.7690 O   0  0  0  0  0  0  0  0  0  0  0  0
   -4.0370   27.3640  -30.6150 C   0  0  0  0  0  0  0  0  0  0  0  0
   -5.5550   25.1740  -30.1210 C   0  0  0  0  0  0  0  0  0  0  0  0
   -4.3233   27.7631  -29.7439 H   0  0  0  0  0  0  0  0  0  0  0  0
   -3.1741   27.7786  -30.9040 H   0  0  0  0  0  0  0  0  0  0  0  0
   -4.7379   27.5364  -31.3071 H   0  0  0  0  0  0  0  0  0  0  0  0
   -5.8349   25.5335  -29.2308 H   0  0  0  0  0  0  0  0  0  0  0  0
   -6.1187   25.5837  -30.8382 H   0  0  0  0  0  0  0  0  0  0  0  0
   -5.6723   24.1810  -30.1313 H   0  0  0  0  0  0  0  0  0  0  0  0
  1  2  2  0  0  0  0
  1  3  1  0  0  0  0
  1  4  1  0  0  0  0
  3  5  1  0  0  0  0
  3  6  1  0  0  0  0
  3  7  1  0  0  0  0
  4  8  1  0  0  0  0
  4  9  1  0  0  0  0
  4 10  1  0  0  0  0
M  END
$$$$
DMS_D_11
prProtoss 03122516293D 1   1.00000     0.00000     0
Protoss beta proteinsplus
 10  9  0  0  0  0            999 V2000
  -19.6800    2.3790   -3.5700 S   0  0  0  0  0  0  0  0  0  0  0  0
  -18.6650    1.2600   -3.5540 O   0  0  0  0  0  0  0  0  0  0  0  0
  -20.2610    2.6100   -5.2760 C   0  0  0  0  0  0  0  0  0  0  0  0
  -21.1900    1.7500   -2.7920 C   0  0  0  0  0  0  0  0  0  0  0  0
  -20.9344    3.3488   -5.3016 H   0  0  0  0  0  0  0  0  0  0  0  0
  -19.4862    2.8447   -5.8631 H   0  0  0  0  0  0  0  0  0  0  0  0
  -20.6821    1.7637   -5.6022 H   0  0  0  0  0  0  0  0  0  0  0  0
  -21.8858    2.4682   -2.7858 H   0  0  0  0  0  0  0  0  0  0  0  0
  -21.5279    0.9629   -3.3081 H   0  0  0  0  0  0  0  0  0  0  0  0
  -20.9899    1.4717   -1.8526 H   0  0  0  0  0  0  0  0  0  0  0  0
  1  2  2  0  0  0  0
  1  3  1  0  0  0  0
  1  4  1  0  0  0  0
  3  5  1  0  0  0  0
  3  6  1  0  0  0  0
  3  7  1  0  0  0  0
  4  8  1  0  0  0  0
  4  9  1  0  0  0  0
  4 10  1  0  0  0  0
M  END
$$$$
DMS_D_12
prProtoss 03122516293D 1   1.00000     0.00000     0
Protoss beta proteinsplus
 10  9  0  0  0  0            999 V2000
  -18.8580   19.0800  -39.6970 S   0  0  0  0  0  0  0  0  0  0  0  0
  -18.0120   18.4560  -40.7850 O   0  0  0  0  0  0  0  0  0  0  0  0
  -20.5410   19.2460  -40.3430 C   0  0  0  0  0  0  0  0  0  0  0  0
  -19.2130   17.7140  -38.5710 C   0  0  0  0  0  0  0  0  0  0  0  0
  -21.1270   19.6571  -39.6447 H   0  0  0  0  0  0  0  0  0  0  0  0
  -20.5303   19.8296  -41.1550 H   0  0  0  0  0  0  0  0  0  0  0  0
  -20.8953   18.3430  -40.5862 H   0  0  0  0  0  0  0  0  0  0  0  0
  -19.7754   18.0444  -37.8130 H   0  0  0  0  0  0  0  0  0  0  0  0
  -19.7052   16.9958  -39.0629 H   0  0  0  0  0  0  0  0  0  0  0  0
  -18.3550   17.3452  -38.2134 H   0  0  0  0  0  0  0  0  0  0  0  0
  1  2  2  0  0  0  0
  1  3  1  0  0  0  0
  1  4  1  0  0  0  0
  3  5  1  0  0  0  0
  3  6  1  0  0  0  0
  3  7  1  0  0  0  0
  4  8  1  0  0  0  0
  4  9  1  0  0  0  0
  4 10  1  0  0  0  0
M  END
$$$$
DMS_D_13
prProtoss 03122516293D 1   1.00000     0.00000     0
Protoss beta proteinsplus
 10  9  0  0  0  0            999 V2000
   -9.8400   -0.1540    5.5690 S   0  0  0  0  0  0  0  0  0  0  0  0
  -10.7870    0.3190    4.4770 O   0  0  0  0  0  0  0  0  0  0  0  0
   -9.7150   -1.9530    5.4200 C   0  0  0  0  0  0  0  0  0  0  0  0
   -8.1460    0.2500    5.0910 C   0  0  0  0  0  0  0  0  0  0  0  0
   -9.0979   -2.3037    6.1244 H   0  0  0  0  0  0  0  0  0  0  0  0
  -10.6205   -2.3609    5.5370 H   0  0  0  0  0  0  0  0  0  0  0  0
   -9.3575   -2.1886    4.5163 H   0  0  0  0  0  0  0  0  0  0  0  0
   -7.5160   -0.0578    5.8040 H   0  0  0  0  0  0  0  0  0  0  0  0
   -7.9244   -0.2079    4.2301 H   0  0  0  0  0  0  0  0  0  0  0  0
   -8.0596    1.2394    4.9742 H   0  0  0  0  0  0  0  0  0  0  0  0
  1  2  2  0  0  0  0
  1  3  1  0  0  0  0
  1  4  1  0  0  0  0
  3  5  1  0  0  0  0
  3  6  1  0  0  0  0
  3  7  1  0  0  0  0
  4  8  1  0  0  0  0
  4  9  1  0  0  0  0
  4 10  1  0  0  0  0
M  END
$$$$
DMS_D_14
prProtoss 03122516293D 1   1.00000     0.00000     0
Protoss beta proteinsplus
 10  9  0  0  0  0            999 V2000
   -2.5510  -13.8870  -33.9790 S   0  0  0  0  0  0  0  0  0  0  0  0
   -1.0380  -13.8370  -33.8630 O   0  0  0  0  0  0  0  0  0  0  0  0
   -2.8540  -14.6920  -35.5680 C   0  0  0  0  0  0  0  0  0  0  0  0
   -3.1240  -12.2150  -34.3980 C   0  0  0  0  0  0  0  0  0  0  0  0
   -3.8393  -14.7646  -35.7224 H   0  0  0  0  0  0  0  0  0  0  0  0
   -2.4409  -14.1504  -36.3002 H   0  0  0  0  0  0  0  0  0  0  0  0
   -2.4495  -15.6065  -35.5609 H   0  0  0  0  0  0  0  0  0  0  0  0
   -4.1205  -12.2153  -34.4816 H   0  0  0  0  0  0  0  0  0  0  0  0
   -2.8502  -11.5784  -33.6771 H   0  0  0  0  0  0  0  0  0  0  0  0
   -2.7167  -11.9308  -35.2660 H   0  0  0  0  0  0  0  0  0  0  0  0
  1  2  2  0  0  0  0
  1  3  1  0  0  0  0
  1  4  1  0  0  0  0
  3  5  1  0  0  0  0
  3  6  1  0  0  0  0
  3  7  1  0  0  0  0
  4  8  1  0  0  0  0
  4  9  1  0  0  0  0
  4 10  1  0  0  0  0
M  END
$$$$
032_B_1
prProtoss 03122516293D 1   1.00000     0.00000     0
Protoss beta proteinsplus
 36 38  0  0  0  0            999 V2000
  -16.6360    2.2150  -20.5010 F   0  0  0  0  0  0  0  0  0  0  0  0
  -12.3110    1.1610  -18.7390 O   0  0  0  0  0  0  0  0  0  0  0  0
   -7.4720    0.8190  -17.1030 O   0  0  0  0  0  0  0  0  0  0  0  0
   -8.3140    1.6010  -20.1040 O   0  0  0  0  0  0  0  0  0  0  0  0
  -10.3920    2.3820  -18.4960 O   0  0  0  0  0  0  0  0  0  0  0  0
   -5.8760   -0.4210  -20.2820 N   0  3  0  0  0  0  0  0  0  0  0  0
  -12.2680    3.4850  -18.9390 N   0  0  0  0  0  0  0  0  0  0  0  0
   -8.6420    1.6680  -16.9780 C   0  0  0  0  0  0  0  0  0  0  0  0
   -6.9270    1.8600  -19.7940 C   0  0  0  0  0  0  0  0  0  0  0  0
  -15.1220    5.4290  -20.0370 C   0  0  0  0  0  0  0  0  0  0  0  0
  -16.0350    4.4710  -20.3500 C   0  0  0  0  0  0  0  0  0  0  0  0
  -13.8910    5.0830  -19.5770 C   0  0  0  0  0  0  0  0  0  0  0  0
  -14.4940    2.8080  -19.6970 C   0  0  0  0  0  0  0  0  0  0  0  0
  -11.7230    2.2380  -18.7290 C   0  0  0  0  0  0  0  0  0  0  0  0
  -15.7110    3.1650  -20.1720 C   0  0  0  0  0  0  0  0  0  0  0  0
   -9.6620    1.2230  -18.0300 C   0  0  2  0  0  0  0  0  0  0  0  0
   -8.7480    0.6540  -19.1020 C   0  0  2  0  0  0  0  0  0  0  0  0
   -7.5160    0.1410  -18.3670 C   0  0  1  0  0  0  0  0  0  0  0  0
   -6.3460    0.5610  -19.2610 C   0  0  1  0  0  0  0  0  0  0  0  0
  -13.5580    3.7660  -19.3990 C   0  0  0  0  0  0  0  0  0  0  0  0
   -5.5156   -1.2328  -19.8226 H   0  0  0  0  0  0  0  0  0  0  0  0
   -6.6415   -0.6828  -20.8698 H   0  0  0  0  0  0  0  0  0  0  0  0
  -11.6808    4.2702  -18.7423 H   0  0  0  0  0  0  0  0  0  0  0  0
   -8.3874    2.6223  -17.1342 H   0  0  0  0  0  0  0  0  0  0  0  0
   -9.0343    1.5731  -16.0631 H   0  0  0  0  0  0  0  0  0  0  0  0
   -6.8573    2.5780  -19.1014 H   0  0  0  0  0  0  0  0  0  0  0  0
   -6.4372    2.1435  -20.6184 H   0  0  0  0  0  0  0  0  0  0  0  0
  -15.3581    6.3946  -20.1461 H   0  0  0  0  0  0  0  0  0  0  0  0
  -16.9338    4.7255  -20.7068 H   0  0  0  0  0  0  0  0  0  0  0  0
  -13.2222    5.7960  -19.3665 H   0  0  0  0  0  0  0  0  0  0  0  0
  -14.2764    1.8412  -19.5628 H   0  0  0  0  0  0  0  0  0  0  0  0
  -10.2789    0.5243  -17.6677 H   0  0  0  0  0  0  0  0  0  0  0  0
   -9.2060   -0.1131  -19.5512 H   0  0  0  0  0  0  0  0  0  0  0  0
   -7.5478   -0.8515  -18.2486 H   0  0  0  0  0  0  0  0  0  0  0  0
   -5.5715    0.7879  -18.6705 H   0  0  0  0  0  0  0  0  0  0  0  0
   -5.1560   -0.0053  -20.8377 H   0  0  0  0  0  0  0  0  0  0  0  0
  1 15  1  0  0  0  0
  2 14  2  0  0  0  0
  3  8  1  0  0  0  0
  3 18  1  0  0  0  0
  4  9  1  0  0  0  0
  4 17  1  0  0  0  0
  5 14  1  0  0  0  0
  5 16  1  0  0  0  0
  6 19  1  0  0  0  0
  7 14  1  0  0  0  0
  7 20  1  0  0  0  0
  8 16  1  0  0  0  0
  9 19  1  0  0  0  0
 10 11  2  0  0  0  0
 10 12  1  0  0  0  0
 11 15  1  0  0  0  0
 12 20  2  0  0  0  0
 13 15  2  0  0  0  0
 13 20  1  0  0  0  0
 16 17  1  0  0  0  0
 17 18  1  0  0  0  0
 18 19  1  0  0  0  0
  6 21  1  0  0  0  0
  6 22  1  0  0  0  0
  7 23  1  0  0  0  0
  8 24  1  0  0  0  0
  8 25  1  0  0  0  0
  9 26  1  0  0  0  0
  9 27  1  0  0  0  0
 10 28  1  0  0  0  0
 11 29  1  0  0  0  0
 12 30  1  0  0  0  0
 13 31  1  0  0  0  0
 16 32  1  0  0  0  0
 17 33  1  0  0  0  0
 18 34  1  0  0  0  0
 19 35  1  0  0  0  0
  6 36  1  0  0  0  0
M  CHG  1   6   1
M  END
$$$$
032_B_2
prProtoss 03122516293D 1   1.00000     0.00000     0
Protoss beta proteinsplus
 36 38  0  0  0  0            999 V2000
  -22.3720   17.9670  -32.5830 F   0  0  0  0  0  0  0  0  0  0  0  0
  -25.4700   12.6260  -30.4200 O   0  0  0  0  0  0  0  0  0  0  0  0
  -24.3880   11.8830  -25.7530 O   0  0  0  0  0  0  0  0  0  0  0  0
  -23.4520   11.1510  -28.8280 O   0  0  0  0  0  0  0  0  0  0  0  0
  -25.2260   13.2440  -28.2510 O   0  0  0  0  0  0  0  0  0  0  0  0
  -21.6780    9.6060  -26.9550 N   0  3  0  0  0  0  0  0  0  0  0  0
  -24.3360   14.5770  -29.8060 N   0  0  0  0  0  0  0  0  0  0  0  0
  -25.7340   12.0190  -26.2390 C   0  0  0  0  0  0  0  0  0  0  0  0
  -22.3960   11.7500  -28.0410 C   0  0  0  0  0  0  0  0  0  0  0  0
  -25.0510   15.6760  -33.1480 C   0  0  0  0  0  0  0  0  0  0  0  0
  -24.1430   16.6680  -33.3220 C   0  0  0  0  0  0  0  0  0  0  0  0
  -25.0820   15.0310  -31.9750 C   0  0  0  0  0  0  0  0  0  0  0  0
  -23.3130   16.3290  -31.1730 C   0  0  0  0  0  0  0  0  0  0  0  0
  -25.0510   13.4210  -29.5930 C   0  0  0  0  0  0  0  0  0  0  0  0
  -23.2630   16.9750  -32.3770 C   0  0  0  0  0  0  0  0  0  0  0  0
  -25.5990   11.9280  -27.7620 C   0  0  2  0  0  0  0  0  0  0  0  0
  -24.5020   10.8580  -27.8890 C   0  0  2  0  0  0  0  0  0  0  0  0
  -23.8690   10.7720  -26.5030 C   0  0  1  0  0  0  0  0  0  0  0  0
  -22.3640   10.8870  -26.7770 C   0  0  1  0  0  0  0  0  0  0  0  0
  -24.2100   15.3330  -30.9670 C   0  0  0  0  0  0  0  0  0  0  0  0
  -21.6946    9.0966  -26.0946 H   0  0  0  0  0  0  0  0  0  0  0  0
  -22.1410    9.0758  -27.6653 H   0  0  0  0  0  0  0  0  0  0  0  0
  -23.8352   14.9234  -29.0127 H   0  0  0  0  0  0  0  0  0  0  0  0
  -26.1201   12.9013  -25.9699 H   0  0  0  0  0  0  0  0  0  0  0  0
  -26.3125   11.2817  -25.8902 H   0  0  0  0  0  0  0  0  0  0  0  0
  -22.6102   12.7014  -27.8196 H   0  0  0  0  0  0  0  0  0  0  0  0
  -21.5217   11.7090  -28.5247 H   0  0  0  0  0  0  0  0  0  0  0  0
  -25.6851   15.4309  -33.8814 H   0  0  0  0  0  0  0  0  0  0  0  0
  -24.1363   17.1795  -34.1812 H   0  0  0  0  0  0  0  0  0  0  0  0
  -25.7603   14.3101  -31.8330 H   0  0  0  0  0  0  0  0  0  0  0  0
  -22.6850   16.5923  -30.4407 H   0  0  0  0  0  0  0  0  0  0  0  0
  -26.4529   11.6182  -28.1803 H   0  0  0  0  0  0  0  0  0  0  0  0
  -24.9193    9.9790  -28.1196 H   0  0  0  0  0  0  0  0  0  0  0  0
  -24.0893    9.9033  -26.0594 H   0  0  0  0  0  0  0  0  0  0  0  0
  -21.9286   11.3979  -26.0358 H   0  0  0  0  0  0  0  0  0  0  0  0
  -20.7298    9.7706  -27.2267 H   0  0  0  0  0  0  0  0  0  0  0  0
  1 15  1  0  0  0  0
  2 14  2  0  0  0  0
  3  8  1  0  0  0  0
  3 18  1  0  0  0  0
  4  9  1  0  0  0  0
  4 17  1  0  0  0  0
  5 14  1  0  0  0  0
  5 16  1  0  0  0  0
  6 19  1  0  0  0  0
  7 14  1  0  0  0  0
  7 20  1  0  0  0  0
  8 16  1  0  0  0  0
  9 19  1  0  0  0  0
 10 11  2  0  0  0  0
 10 12  1  0  0  0  0
 11 15  1  0  0  0  0
 12 20  2  0  0  0  0
 13 15  2  0  0  0  0
 13 20  1  0  0  0  0
 16 17  1  0  0  0  0
 17 18  1  0  0  0  0
 18 19  1  0  0  0  0
  6 21  1  0  0  0  0
  6 22  1  0  0  0  0
  7 23  1  0  0  0  0
  8 24  1  0  0  0  0
  8 25  1  0  0  0  0
  9 26  1  0  0  0  0
  9 27  1  0  0  0  0
 10 28  1  0  0  0  0
 11 29  1  0  0  0  0
 12 30  1  0  0  0  0
 13 31  1  0  0  0  0
 16 32  1  0  0  0  0
 17 33  1  0  0  0  0
 18 34  1  0  0  0  0
 19 35  1  0  0  0  0
  6 36  1  0  0  0  0
M  CHG  1   6   1
M  END
$$$$
PEG_A_401
prProtoss 03122516303D 1   1.00000     0.00000     0
Protoss beta proteinsplus
 17 16  0  0  0  0            999 V2000
    1.0000   24.2290  -16.2220 O   0  0  0  0  0  0  0  0  0  0  0  0
    0.0690   20.9450  -14.9700 O   0  0  0  0  0  0  0  0  0  0  0  0
    2.8440   22.1760  -15.1650 O   0  0  0  0  0  0  0  0  0  0  0  0
    2.4010   24.3220  -16.0870 C   0  0  0  0  0  0  0  0  0  0  0  0
    1.3330   20.3740  -14.7100 C   0  0  0  0  0  0  0  0  0  0  0  0
    2.8760   23.5550  -14.8790 C   0  0  0  0  0  0  0  0  0  0  0  0
    2.2530   21.4230  -14.1330 C   0  0  0  0  0  0  0  0  0  0  0  0
    0.7771   23.8065  -17.1005 H   0  0  0  0  0  0  0  0  0  0  0  0
   -0.6292   20.4651  -14.4388 H   0  0  0  0  0  0  0  0  0  0  0  0
    2.6573   25.2833  -15.9863 H   0  0  0  0  0  0  0  0  0  0  0  0
    2.8347   23.9454  -16.9056 H   0  0  0  0  0  0  0  0  0  0  0  0
    1.7213   20.0229  -15.5620 H   0  0  0  0  0  0  0  0  0  0  0  0
    1.2315   19.6242  -14.0561 H   0  0  0  0  0  0  0  0  0  0  0  0
    3.8114   23.8287  -14.6554 H   0  0  0  0  0  0  0  0  0  0  0  0
    2.2770   23.7496  -14.1023 H   0  0  0  0  0  0  0  0  0  0  0  0
    1.7272   22.0324  -13.5396 H   0  0  0  0  0  0  0  0  0  0  0  0
    2.9702   20.9751  -13.5992 H   0  0  0  0  0  0  0  0  0  0  0  0
  1  4  1  0  0  0  0
  2  5  1  0  0  0  0
  3  6  1  0  0  0  0
  3  7  1  0  0  0  0
  4  6  1  0  0  0  0
  5  7  1  0  0  0  0
  1  8  1  0  0  0  0
  2  9  1  0  0  0  0
  4 10  1  0  0  0  0
  4 11  1  0  0  0  0
  5 12  1  0  0  0  0
  5 13  1  0  0  0  0
  6 14  1  0  0  0  0
  6 15  1  0  0  0  0
  7 16  1  0  0  0  0
  7 17  1  0  0  0  0
M  END
$$$$
055_B_1
prProtoss 03122516303D 1   1.00000     0.00000     0
Protoss beta proteinsplus
 42 44  0  0  0  0            999 V2000
  -16.5840    2.4860  -20.6090 O   0  0  0  0  0  0  0  0  0  0  0  0
  -10.0860    3.8940  -21.0440 O   0  0  0  0  0  0  0  0  0  0  0  0
   -9.1450    2.5780  -16.7990 O   0  0  0  0  0  0  0  0  0  0  0  0
   -9.3340    1.0240  -18.4620 O   0  0  0  0  0  0  0  0  0  0  0  0
   -7.6190    2.3350  -21.1210 N   0  3  0  0  0  0  0  0  0  0  0  0
  -14.7530    3.4270  -19.6330 N   0  0  0  0  0  0  0  0  0  0  0  0
  -12.0220    3.2010  -18.8240 N   0  3  0  0  0  0  0  0  0  0  0  0
  -16.4680    4.9010  -20.6410 C   0  0  0  0  0  0  0  0  0  0  0  0
   -7.8490    2.4400  -17.3850 C   0  0  0  0  0  0  0  0  0  0  0  0
  -14.0060    4.6190  -19.2030 C   0  0  0  0  0  0  0  0  0  0  0  0
  -14.2080    2.1010  -19.2770 C   0  0  0  0  0  0  0  0  0  0  0  0
  -12.4790    4.4980  -19.3590 C   0  0  0  0  0  0  0  0  0  0  0  0
  -12.6790    2.0490  -19.4950 C   0  0  0  0  0  0  0  0  0  0  0  0
  -10.0730    1.9880  -17.7230 C   0  0  2  0  0  0  0  0  0  0  0  0
  -15.9630    3.5140  -20.2940 C   0  0  0  0  0  0  0  0  0  0  0  0
   -9.8350    2.8520  -20.0810 C   0  0  1  0  0  0  0  0  0  0  0  0
   -8.0830    1.7300  -18.7040 C   0  0  2  0  0  0  0  0  0  0  0  0
   -8.3050    2.7350  -19.8540 C   0  0  1  0  0  0  0  0  0  0  0  0
  -10.5440    3.0810  -18.7090 C   0  0  1  0  0  0  0  0  0  0  0  0
  -10.5596    3.5088  -21.8361 H   0  0  0  0  0  0  0  0  0  0  0  0
   -6.6348    2.2638  -20.9590 H   0  0  0  0  0  0  0  0  0  0  0  0
   -7.9715    1.4503  -21.4259 H   0  0  0  0  0  0  0  0  0  0  0  0
  -15.8242    5.5854  -20.2988 H   0  0  0  0  0  0  0  0  0  0  0  0
  -16.5497    4.9872  -21.6339 H   0  0  0  0  0  0  0  0  0  0  0  0
  -17.3631    5.0451  -20.2191 H   0  0  0  0  0  0  0  0  0  0  0  0
   -7.2533    1.8956  -16.7945 H   0  0  0  0  0  0  0  0  0  0  0  0
   -7.4361    3.3377  -17.5384 H   0  0  0  0  0  0  0  0  0  0  0  0
  -14.2103    4.7860  -18.2384 H   0  0  0  0  0  0  0  0  0  0  0  0
  -14.3162    5.3972  -19.7490 H   0  0  0  0  0  0  0  0  0  0  0  0
  -14.6429    1.4053  -19.8487 H   0  0  0  0  0  0  0  0  0  0  0  0
  -14.4070    1.9140  -18.3150 H   0  0  0  0  0  0  0  0  0  0  0  0
  -12.2384    4.5607  -20.3276 H   0  0  0  0  0  0  0  0  0  0  0  0
  -12.0344    5.2394  -18.8564 H   0  0  0  0  0  0  0  0  0  0  0  0
  -12.3203    1.1969  -19.1137 H   0  0  0  0  0  0  0  0  0  0  0  0
  -12.4843    2.0835  -20.4753 H   0  0  0  0  0  0  0  0  0  0  0  0
  -10.8458    1.5687  -17.2465 H   0  0  0  0  0  0  0  0  0  0  0  0
  -10.1622    1.9874  -20.4624 H   0  0  0  0  0  0  0  0  0  0  0  0
   -7.3398    1.0944  -18.9132 H   0  0  0  0  0  0  0  0  0  0  0  0
   -7.9553    3.6277  -19.5698 H   0  0  0  0  0  0  0  0  0  0  0  0
  -10.2101    3.9540  -18.3535 H   0  0  0  0  0  0  0  0  0  0  0  0
   -7.7919    3.0234  -21.8254 H   0  0  0  0  0  0  0  0  0  0  0  0
  -12.3574    3.1772  -17.8822 H   0  0  0  0  0  0  0  0  0  0  0  0
  1 15  2  0  0  0  0
  2 16  1  0  0  0  0
  3  9  1  0  0  0  0
  3 14  1  0  0  0  0
  4 14  1  0  0  0  0
  4 17  1  0  0  0  0
  5 18  1  0  0  0  0
  6 10  1  0  0  0  0
  6 11  1  0  0  0  0
  6 15  1  0  0  0  0
  7 12  1  0  0  0  0
  7 13  1  0  0  0  0
  7 19  1  0  0  0  0
  8 15  1  0  0  0  0
  9 17  1  0  0  0  0
 10 12  1  0  0  0  0
 11 13  1  0  0  0  0
 14 19  1  0  0  0  0
 16 18  1  0  0  0  0
 16 19  1  0  0  0  0
 17 18  1  0  0  0  0
  2 20  1  0  0  0  0
  5 21  1  0  0  0  0
  5 22  1  0  0  0  0
  8 23  1  0  0  0  0
  8 24  1  0  0  0  0
  8 25  1  0  0  0  0
  9 26  1  0  0  0  0
  9 27  1  0  0  0  0
 10 28  1  0  0  0  0
 10 29  1  0  0  0  0
 11 30  1  0  0  0  0
 11 31  1  0  0  0  0
 12 32  1  0  0  0  0
 12 33  1  0  0  0  0
 13 34  1  0  0  0  0
 13 35  1  0  0  0  0
 14 36  1  0  0  0  0
 16 37  1  0  0  0  0
 17 38  1  0  0  0  0
 18 39  1  0  0  0  0
 19 40  1  0  0  0  0
  5 41  1  0  0  0  0
  7 42  1  0  0  0  0
M  CHG  2   5   1   7   1
M  END
$$$$
055_B_2
prProtoss 03122516303D 1   1.00000     0.00000     0
Protoss beta proteinsplus
 42 44  0  0  0  0            999 V2000
   -0.2950   -9.6970   -3.7880 O   0  0  0  0  0  0  0  0  0  0  0  0
   -8.2310  -10.5060   -4.4160 O   0  0  0  0  0  0  0  0  0  0  0  0
   -8.5240  -11.4850   -1.7390 O   0  0  0  0  0  0  0  0  0  0  0  0
   -7.2620   -9.7740   -0.7920 O   0  0  0  0  0  0  0  0  0  0  0  0
   -6.8750   -7.6250   -2.5690 N   0  3  0  0  0  0  0  0  0  0  0  0
   -2.2230   -9.9480   -2.5480 N   0  0  0  0  0  0  0  0  0  0  0  0
   -5.0470  -10.3850   -2.6020 N   0  3  0  0  0  0  0  0  0  0  0  0
   -0.0580  -10.3420   -1.4920 C   0  0  0  0  0  0  0  0  0  0  0  0
   -9.3540  -10.3410   -1.5610 C   0  0  0  0  0  0  0  0  0  0  0  0
   -2.9090  -10.2270   -1.2690 C   0  0  0  0  0  0  0  0  0  0  0  0
   -3.0530   -9.5910   -3.6930 C   0  0  0  0  0  0  0  0  0  0  0  0
   -4.3230  -10.8480   -1.3960 C   0  0  0  0  0  0  0  0  0  0  0  0
   -4.2270  -10.5710   -3.8130 C   0  0  0  0  0  0  0  0  0  0  0  0
   -7.1910  -11.0610   -1.4200 C   0  0  2  0  0  0  0  0  0  0  0  0
   -0.8490   -9.9680   -2.7180 C   0  0  0  0  0  0  0  0  0  0  0  0
   -7.2140   -9.8530   -3.6340 C   0  0  1  0  0  0  0  0  0  0  0  0
   -8.3870   -9.1800   -1.4520 C   0  0  2  0  0  0  0  0  0  0  0  0
   -7.8740   -8.6920   -2.8200 C   0  0  1  0  0  0  0  0  0  0  0  0
   -6.4350  -10.8810   -2.7530 C   0  0  1  0  0  0  0  0  0  0  0  0
   -8.6329  -11.2515   -3.8844 H   0  0  0  0  0  0  0  0  0  0  0  0
   -7.3386   -6.7407   -2.5132 H   0  0  0  0  0  0  0  0  0  0  0  0
   -6.4012   -7.8079   -1.7076 H   0  0  0  0  0  0  0  0  0  0  0  0
   -0.6843  -10.5236   -0.7338 H   0  0  0  0  0  0  0  0  0  0  0  0
    0.4827  -11.1616   -1.6814 H   0  0  0  0  0  0  0  0  0  0  0  0
    0.5527   -9.5891   -1.2468 H   0  0  0  0  0  0  0  0  0  0  0  0
   -9.8985  -10.4264   -0.7266 H   0  0  0  0  0  0  0  0  0  0  0  0
   -9.9626  -10.2210   -2.3454 H   0  0  0  0  0  0  0  0  0  0  0  0
   -2.9943   -9.3646   -0.7699 H   0  0  0  0  0  0  0  0  0  0  0  0
   -2.3396  -10.8604   -0.7451 H   0  0  0  0  0  0  0  0  0  0  0  0
   -2.5022   -9.6299   -4.5267 H   0  0  0  0  0  0  0  0  0  0  0  0
   -3.4065   -8.6637   -3.5699 H   0  0  0  0  0  0  0  0  0  0  0  0
   -4.2322  -11.8429   -1.4402 H   0  0  0  0  0  0  0  0  0  0  0  0
   -4.8558  -10.5974   -0.5877 H   0  0  0  0  0  0  0  0  0  0  0  0
   -4.7657  -10.3675   -4.6305 H   0  0  0  0  0  0  0  0  0  0  0  0
   -3.8896  -11.5111   -3.8616 H   0  0  0  0  0  0  0  0  0  0  0  0
   -6.7316  -11.7257   -0.8309 H   0  0  0  0  0  0  0  0  0  0  0  0
   -6.5602   -9.4429   -4.2699 H   0  0  0  0  0  0  0  0  0  0  0  0
   -8.7732   -8.4295   -0.9157 H   0  0  0  0  0  0  0  0  0  0  0  0
   -8.6374   -8.3136   -3.3435 H   0  0  0  0  0  0  0  0  0  0  0  0
   -6.4117  -11.7597   -3.2299 H   0  0  0  0  0  0  0  0  0  0  0  0
   -6.2115   -7.6069   -3.3170 H   0  0  0  0  0  0  0  0  0  0  0  0
   -5.1327   -9.3947   -2.4926 H   0  0  0  0  0  0  0  0  0  0  0  0
  1 15  2  0  0  0  0
  2 16  1  0  0  0  0
  3  9  1  0  0  0  0
  3 14  1  0  0  0  0
  4 14  1  0  0  0  0
  4 17  1  0  0  0  0
  5 18  1  0  0  0  0
  6 10  1  0  0  0  0
  6 11  1  0  0  0  0
  6 15  1  0  0  0  0
  7 12  1  0  0  0  0
  7 13  1  0  0  0  0
  7 19  1  0  0  0  0
  8 15  1  0  0  0  0
  9 17  1  0  0  0  0
 10 12  1  0  0  0  0
 11 13  1  0  0  0  0
 14 19  1  0  0  0  0
 16 18  1  0  0  0  0
 16 19  1  0  0  0  0
 17 18  1  0  0  0  0
  2 20  1  0  0  0  0
  5 21  1  0  0  0  0
  5 22  1  0  0  0  0
  8 23  1  0  0  0  0
  8 24  1  0  0  0  0
  8 25  1  0  0  0  0
  9 26  1  0  0  0  0
  9 27  1  0  0  0  0
 10 28  1  0  0  0  0
 10 29  1  0  0  0  0
 11 30  1  0  0  0  0
 11 31  1  0  0  0  0
 12 32  1  0  0  0  0
 12 33  1  0  0  0  0
 13 34  1  0  0  0  0
 13 35  1  0  0  0  0
 14 36  1  0  0  0  0
 16 37  1  0  0  0  0
 17 38  1  0  0  0  0
 18 39  1  0  0  0  0
 19 40  1  0  0  0  0
  5 41  1  0  0  0  0
  7 42  1  0  0  0  0
M  CHG  2   5   1   7   1
M  END
$$$$
DMS_D_2
prProtoss 03122516303D 1   1.00000     0.00000     0
Protoss beta proteinsplus
 10  9  0  0  0  0            999 V2000
   -9.3740   25.1380  -15.7510 S   0  0  0  0  0  0  0  0  0  0  0  0
  -10.4740   25.6260  -14.8400 O   0  0  0  0  0  0  0  0  0  0  0  0
   -8.3800   26.5760  -16.2050 C   0  0  0  0  0  0  0  0  0  0  0  0
   -8.1660   24.3300  -14.6860 C   0  0  0  0  0  0  0  0  0  0  0  0
   -7.6378   26.2902  -16.8112 H   0  0  0  0  0  0  0  0  0  0  0  0
   -8.9561   27.2443  -16.6756 H   0  0  0  0  0  0  0  0  0  0  0  0
   -7.9958   26.9897  -15.3796 H   0  0  0  0  0  0  0  0  0  0  0  0
   -7.4096   23.9851  -15.2417 H   0  0  0  0  0  0  0  0  0  0  0  0
   -7.8166   24.9881  -14.0191 H   0  0  0  0  0  0  0  0  0  0  0  0
   -8.6014   23.5683  -14.2061 H   0  0  0  0  0  0  0  0  0  0  0  0
  1  2  2  0  0  0  0
  1  3  1  0  0  0  0
  1  4  1  0  0  0  0
  3  5  1  0  0  0  0
  3  6  1  0  0  0  0
  3  7  1  0  0  0  0
  4  8  1  0  0  0  0
  4  9  1  0  0  0  0
  4 10  1  0  0  0  0
M  END
$$$$
DMS_D_4
prProtoss 03122516303D 1   1.00000     0.00000     0
Protoss beta proteinsplus
 10  9  0  0  0  0            999 V2000
  -26.7040   15.4150   -5.6700 S   0  0  0  0  0  0  0  0  0  0  0  0
  -27.6560   16.4890   -5.1890 O   0  0  0  0  0  0  0  0  0  0  0  0
  -25.6210   15.0160   -4.2810 C   0  0  0  0  0  0  0  0  0  0  0  0
  -27.6400   13.8720   -5.6630 C   0  0  0  0  0  0  0  0  0  0  0  0
  -24.9726   14.3065   -4.5570 H   0  0  0  0  0  0  0  0  0  0  0  0
  -25.1199   15.8355   -4.0029 H   0  0  0  0  0  0  0  0  0  0  0  0
  -26.1708   14.6851   -3.5140 H   0  0  0  0  0  0  0  0  0  0  0  0
  -27.0532   13.1247   -5.9748 H   0  0  0  0  0  0  0  0  0  0  0  0
  -27.9594   13.6801   -4.7350 H   0  0  0  0  0  0  0  0  0  0  0  0
  -28.4261   13.9562   -6.2753 H   0  0  0  0  0  0  0  0  0  0  0  0
  1  2  2  0  0  0  0
  1  3  1  0  0  0  0
  1  4  1  0  0  0  0
  3  5  1  0  0  0  0
  3  6  1  0  0  0  0
  3  7  1  0  0  0  0
  4  8  1  0  0  0  0
  4  9  1  0  0  0  0
  4 10  1  0  0  0  0
M  END
$$$$
DMS_D_5
prProtoss 03122516303D 1   1.00000     0.00000     0
Protoss beta proteinsplus
 10  9  0  0  0  0            999 V2000
  -18.6500   17.9230  -39.3450 S   0  0  0  0  0  0  0  0  0  0  0  0
  -19.9680   17.7430  -40.0540 O   0  0  0  0  0  0  0  0  0  0  0  0
  -18.9800   17.5540  -37.6160 C   0  0  0  0  0  0  0  0  0  0  0  0
  -18.3830   19.6950  -39.1690 C   0  0  0  0  0  0  0  0  0  0  0  0
  -18.1377   17.6561  -37.0867 H   0  0  0  0  0  0  0  0  0  0  0  0
  -19.6719   18.1857  -37.2665 H   0  0  0  0  0  0  0  0  0  0  0  0
  -19.3138   16.6150  -37.5334 H   0  0  0  0  0  0  0  0  0  0  0  0
  -17.5142   19.8563  -38.7008 H   0  0  0  0  0  0  0  0  0  0  0  0
  -18.3579   20.1198  -40.0739 H   0  0  0  0  0  0  0  0  0  0  0  0
  -19.1286   20.0930  -38.6345 H   0  0  0  0  0  0  0  0  0  0  0  0
  1  2  2  0  0  0  0
  1  3  1  0  0  0  0
  1  4  1  0  0  0  0
  3  5  1  0  0  0  0
  3  6  1  0  0  0  0
  3  7  1  0  0  0  0
  4  8  1  0  0  0  0
  4  9  1  0  0  0  0
  4 10  1  0  0  0  0
M  END
$$$$
DMS_D_6
prProtoss 03122516303D 1   1.00000     0.00000     0
Protoss beta proteinsplus
 10  9  0  0  0  0            999 V2000
  -14.9040  -11.4480  -25.2550 S   0  0  0  0  0  0  0  0  0  0  0  0
  -13.9440  -11.7780  -24.1380 O   0  0  0  0  0  0  0  0  0  0  0  0
  -16.0450  -12.8400  -25.3760 C   0  0  0  0  0  0  0  0  0  0  0  0
  -14.0030  -11.7490  -26.7870 C   0  0  0  0  0  0  0  0  0  0  0  0
  -16.7050  -12.6674  -26.1072 H   0  0  0  0  0  0  0  0  0  0  0  0
  -15.5326  -13.6743  -25.5795 H   0  0  0  0  0  0  0  0  0  0  0  0
  -16.5299  -12.9499  -24.5084 H   0  0  0  0  0  0  0  0  0  0  0  0
  -14.5945  -11.5453  -27.5671 H   0  0  0  0  0  0  0  0  0  0  0  0
  -13.1946  -11.1612  -26.8193 H   0  0  0  0  0  0  0  0  0  0  0  0
  -13.7200  -12.7074  -26.8245 H   0  0  0  0  0  0  0  0  0  0  0  0
  1  2  2  0  0  0  0
  1  3  1  0  0  0  0
  1  4  1  0  0  0  0
  3  5  1  0  0  0  0
  3  6  1  0  0  0  0
  3  7  1  0  0  0  0
  4  8  1  0  0  0  0
  4  9  1  0  0  0  0
  4 10  1  0  0  0  0
M  END
$$$$
DMS_A_501
prProtoss 03122516303D 1   1.00000     0.00000     0
Protoss beta proteinsplus
 10  9  0  0  0  0            999 V2000
  -19.6560   18.4860  -39.6440 S   0  0  0  0  0  0  0  0  0  0  0  0
  -19.6500   17.8170  -38.2860 O   0  0  0  0  0  0  0  0  0  0  0  0
  -17.9820   19.0930  -39.8880 C   0  0  0  0  0  0  0  0  0  0  0  0
  -19.6360   17.1200  -40.8140 C   0  0  0  0  0  0  0  0  0  0  0  0
  -17.9190   19.5496  -40.7754 H   0  0  0  0  0  0  0  0  0  0  0  0
  -17.7537   19.7420  -39.1623 H   0  0  0  0  0  0  0  0  0  0  0  0
  -17.3419   18.3251  -39.8621 H   0  0  0  0  0  0  0  0  0  0  0  0
  -19.6388   17.4801  -41.7469 H   0  0  0  0  0  0  0  0  0  0  0  0
  -18.8126   16.5708  -40.6712 H   0  0  0  0  0  0  0  0  0  0  0  0
  -20.4455   16.5497  -40.6744 H   0  0  0  0  0  0  0  0  0  0  0  0
  1  2  2  0  0  0  0
  1  3  1  0  0  0  0
  1  4  1  0  0  0  0
  3  5  1  0  0  0  0
  3  6  1  0  0  0  0
  3  7  1  0  0  0  0
  4  8  1  0  0  0  0
  4  9  1  0  0  0  0
  4 10  1  0  0  0  0
M  END
$$$$
DMS_A_601
prProtoss 03122516303D 1   1.00000     0.00000     0
Protoss beta proteinsplus
 10  9  0  0  0  0            999 V2000
    6.2620   11.7600  -20.5370 S   0  0  0  0  0  0  0  0  0  0  0  0
    5.4790   10.7090  -21.2950 O   0  0  0  0  0  0  0  0  0  0  0  0
    5.0830   12.5310  -19.4070 C   0  0  0  0  0  0  0  0  0  0  0  0
    7.1930   10.8300  -19.2930 C   0  0  0  0  0  0  0  0  0  0  0  0
    5.5461   13.2397  -18.8747 H   0  0  0  0  0  0  0  0  0  0  0  0
    4.3379   12.9420  -19.9322 H   0  0  0  0  0  0  0  0  0  0  0  0
    4.7122   11.8382  -18.7884 H   0  0  0  0  0  0  0  0  0  0  0  0
    7.7415   11.4621  -18.7457 H   0  0  0  0  0  0  0  0  0  0  0  0
    6.5563   10.3398  -18.6978 H   0  0  0  0  0  0  0  0  0  0  0  0
    7.7953   10.1745  -19.7486 H   0  0  0  0  0  0  0  0  0  0  0  0
  1  2  2  0  0  0  0
  1  3  1  0  0  0  0
  1  4  1  0  0  0  0
  3  5  1  0  0  0  0
  3  6  1  0  0  0  0
  3  7  1  0  0  0  0
  4  8  1  0  0  0  0
  4  9  1  0  0  0  0
  4 10  1  0  0  0  0
M  END
$$$$
PEG_A_602
prProtoss 03122516303D 1   1.00000     0.00000     0
Protoss beta proteinsplus
 17 16  0  0  0  0            999 V2000
   -4.7630    5.6650  -20.6530 O   0  0  0  0  0  0  0  0  0  0  0  0
   -7.8600    5.8930  -15.2710 O   0  0  0  0  0  0  0  0  0  0  0  0
   -6.5520    4.9070  -17.7790 O   0  0  0  0  0  0  0  0  0  0  0  0
   -5.8490    4.9590  -20.0740 C   0  0  0  0  0  0  0  0  0  0  0  0
   -7.7150    4.5430  -15.6930 C   0  0  0  0  0  0  0  0  0  0  0  0
   -5.5100    4.5270  -18.6600 C   0  0  0  0  0  0  0  0  0  0  0  0
   -6.4430    4.3320  -16.4890 C   0  0  0  0  0  0  0  0  0  0  0  0
   -5.0034    5.9417  -21.5834 H   0  0  0  0  0  0  0  0  0  0  0  0
   -8.7085    5.9903  -14.7509 H   0  0  0  0  0  0  0  0  0  0  0  0
   -6.0470    4.1495  -20.6267 H   0  0  0  0  0  0  0  0  0  0  0  0
   -6.6533    5.5529  -20.0525 H   0  0  0  0  0  0  0  0  0  0  0  0
   -8.4981    4.2972  -16.2642 H   0  0  0  0  0  0  0  0  0  0  0  0
   -7.6928    3.9529  -14.8860 H   0  0  0  0  0  0  0  0  0  0  0  0
   -5.3992    3.5335  -18.6340 H   0  0  0  0  0  0  0  0  0  0  0  0
   -4.6576    4.9651  -18.3744 H   0  0  0  0  0  0  0  0  0  0  0  0
   -5.6791    4.7580  -16.0043 H   0  0  0  0  0  0  0  0  0  0  0  0
   -6.2736    3.3508  -16.5813 H   0  0  0  0  0  0  0  0  0  0  0  0
  1  4  1  0  0  0  0
  2  5  1  0  0  0  0
  3  6  1  0  0  0  0
  3  7  1  0  0  0  0
  4  6  1  0  0  0  0
  5  7  1  0  0  0  0
  1  8  1  0  0  0  0
  2  9  1  0  0  0  0
  4 10  1  0  0  0  0
  4 11  1  0  0  0  0
  5 12  1  0  0  0  0
  5 13  1  0  0  0  0
  6 14  1  0  0  0  0
  6 15  1  0  0  0  0
  7 16  1  0  0  0  0
  7 17  1  0  0  0  0
M  END
$$$$
058_A_603
prProtoss 03122516303D 1   1.00000     0.00000     0
Protoss beta proteinsplus
 36 38  0  0  0  0            999 V2000
    8.2570   25.4220  -45.0330 O   0  0  0  0  0  0  0  0  0  0  0  0
    2.2120   25.4600  -46.6750 O   0  0  0  0  0  0  0  0  0  0  0  0
    8.6210   24.5580  -47.7240 O   0  0  0  0  0  0  0  0  0  0  0  0
    7.2690   26.1410  -48.6850 O   0  0  0  0  0  0  0  0  0  0  0  0
    6.7270   28.2990  -47.0020 N   0  3  0  0  0  0  0  0  0  0  0  0
    5.1010   25.4760  -46.8180 N   0  3  0  0  0  0  0  0  0  0  0  0
    2.8270   24.9860  -47.8940 C   0  0  0  0  0  0  0  0  0  0  0  0
    3.0350   26.0020  -45.6350 C   0  0  0  0  0  0  0  0  0  0  0  0
    9.3750   25.7510  -47.8860 C   0  0  0  0  0  0  0  0  0  0  0  0
    4.3610   24.8720  -47.9470 C   0  0  0  0  0  0  0  0  0  0  0  0
    4.4160   25.3480  -45.5280 C   0  0  0  0  0  0  0  0  0  0  0  0
    7.2630   24.8640  -48.0490 C   0  0  2  0  0  0  0  0  0  0  0  0
    7.2280   26.0780  -45.8290 C   0  0  1  0  0  0  0  0  0  0  0  0
    8.3270   26.8320  -47.9920 C   0  0  2  0  0  0  0  0  0  0  0  0
    7.7760   27.2960  -46.6450 C   0  0  1  0  0  0  0  0  0  0  0  0
    6.4990   25.0250  -46.7130 C   0  0  1  0  0  0  0  0  0  0  0  0
    7.8540   24.6546  -44.5344 H   0  0  0  0  0  0  0  0  0  0  0  0
    7.1404   29.2078  -47.0590 H   0  0  0  0  0  0  0  0  0  0  0  0
    6.3243   28.0600  -47.8856 H   0  0  0  0  0  0  0  0  0  0  0  0
    2.5520   25.6101  -48.6253 H   0  0  0  0  0  0  0  0  0  0  0  0
    2.4569   24.0751  -48.0764 H   0  0  0  0  0  0  0  0  0  0  0  0
    2.5609   25.8798  -44.7631 H   0  0  0  0  0  0  0  0  0  0  0  0
    3.1622   26.9781  -45.8113 H   0  0  0  0  0  0  0  0  0  0  0  0
    9.9300   25.7109  -48.7169 H   0  0  0  0  0  0  0  0  0  0  0  0
    9.9682   25.9069  -47.0962 H   0  0  0  0  0  0  0  0  0  0  0  0
    4.5936   23.8999  -47.9788 H   0  0  0  0  0  0  0  0  0  0  0  0
    4.6709   25.3166  -48.7874 H   0  0  0  0  0  0  0  0  0  0  0  0
    4.9502   25.8053  -44.8170 H   0  0  0  0  0  0  0  0  0  0  0  0
    4.3127   24.3806  -45.2969 H   0  0  0  0  0  0  0  0  0  0  0  0
    6.8523   24.1612  -48.6299 H   0  0  0  0  0  0  0  0  0  0  0  0
    6.5504   26.4387  -45.1880 H   0  0  0  0  0  0  0  0  0  0  0  0
    8.6624   27.6061  -48.5289 H   0  0  0  0  0  0  0  0  0  0  0  0
    8.5026   27.7451  -46.1251 H   0  0  0  0  0  0  0  0  0  0  0  0
    6.5123   24.1473  -46.2340 H   0  0  0  0  0  0  0  0  0  0  0  0
    6.0145   28.3003  -46.3003 H   0  0  0  0  0  0  0  0  0  0  0  0
    5.1427   26.4564  -47.0104 H   0  0  0  0  0  0  0  0  0  0  0  0
  1 13  1  0  0  0  0
  2  7  1  0  0  0  0
  2  8  1  0  0  0  0
  3  9  1  0  0  0  0
  3 12  1  0  0  0  0
  4 12  1  0  0  0  0
  4 14  1  0  0  0  0
  5 15  1  0  0  0  0
  6 10  1  0  0  0  0
  6 11  1  0  0  0  0
  6 16  1  0  0  0  0
  7 10  1  0  0  0  0
  8 11  1  0  0  0  0
  9 14  1  0  0  0  0
 12 16  1  0  0  0  0
 13 15  1  0  0  0  0
 13 16  1  0  0  0  0
 14 15  1  0  0  0  0
  1 17  1  0  0  0  0
  5 18  1  0  0  0  0
  5 19  1  0  0  0  0
  7 20  1  0  0  0  0
  7 21  1  0  0  0  0
  8 22  1  0  0  0  0
  8 23  1  0  0  0  0
  9 24  1  0  0  0  0
  9 25  1  0  0  0  0
 10 26  1  0  0  0  0
 10 27  1  0  0  0  0
 11 28  1  0  0  0  0
 11 29  1  0  0  0  0
 12 30  1  0  0  0  0
 13 31  1  0  0  0  0
 14 32  1  0  0  0  0
 15 33  1  0  0  0  0
 16 34  1  0  0  0  0
  5 35  1  0  0  0  0
  6 36  1  0  0  0  0
M  CHG  2   5   1   6   1
M  END
$$$$
DMS_A_801
prProtoss 03122516313D 1   1.00000     0.00000     0
Protoss beta proteinsplus
 10  9  0  0  0  0            999 V2000
  -26.8030   15.6900   -5.9100 S   0  0  0  0  0  0  0  0  0  0  0  0
  -27.7640   14.6250   -5.4330 O   0  0  0  0  0  0  0  0  0  0  0  0
  -27.5560   17.2860   -5.5240 C   0  0  0  0  0  0  0  0  0  0  0  0
  -25.5340   15.8290   -4.6360 C   0  0  0  0  0  0  0  0  0  0  0  0
  -26.9496   18.0221   -5.8247 H   0  0  0  0  0  0  0  0  0  0  0  0
  -28.4339   17.3634   -5.9965 H   0  0  0  0  0  0  0  0  0  0  0  0
  -27.7013   17.3560   -4.5371 H   0  0  0  0  0  0  0  0  0  0  0  0
  -24.8679   16.5252   -4.9036 H   0  0  0  0  0  0  0  0  0  0  0  0
  -25.9590   16.0900   -3.7692 H   0  0  0  0  0  0  0  0  0  0  0  0
  -25.0715   14.9489   -4.5288 H   0  0  0  0  0  0  0  0  0  0  0  0
  1  2  2  0  0  0  0
  1  3  1  0  0  0  0
  1  4  1  0  0  0  0
  3  5  1  0  0  0  0
  3  6  1  0  0  0  0
  3  7  1  0  0  0  0
  4  8  1  0  0  0  0
  4  9  1  0  0  0  0
  4 10  1  0  0  0  0
M  END
$$$$
DMS_A_1001
prProtoss 03122516313D 1   1.00000     0.00000     0
Protoss beta proteinsplus
 10  9  0  0  0  0            999 V2000
   -9.1530   25.0170  -15.8650 S   0  0  0  0  0  0  0  0  0  0  0  0
  -10.2230   25.6200  -14.9590 O   0  0  0  0  0  0  0  0  0  0  0  0
   -8.3940   26.4590  -16.6420 C   0  0  0  0  0  0  0  0  0  0  0  0
   -7.7470   24.5030  -14.8230 C   0  0  0  0  0  0  0  0  0  0  0  0
   -7.6696   26.1603  -17.2633 H   0  0  0  0  0  0  0  0  0  0  0  0
   -9.0871   26.9639  -17.1565 H   0  0  0  0  0  0  0  0  0  0  0  0
   -8.0049   27.0516  -15.9367 H   0  0  0  0  0  0  0  0  0  0  0  0
   -7.0334   24.1044  -15.3991 H   0  0  0  0  0  0  0  0  0  0  0  0
   -7.3806   25.2990  -14.3413 H   0  0  0  0  0  0  0  0  0  0  0  0
   -8.0562   23.8238  -14.1574 H   0  0  0  0  0  0  0  0  0  0  0  0
  1  2  2  0  0  0  0
  1  3  1  0  0  0  0
  1  4  1  0  0  0  0
  3  5  1  0  0  0  0
  3  6  1  0  0  0  0
  3  7  1  0  0  0  0
  4  8  1  0  0  0  0
  4  9  1  0  0  0  0
  4 10  1  0  0  0  0
M  END
$$$$
DMS_A_1201
prProtoss 03122516313D 1   1.00000     0.00000     0
Protoss beta proteinsplus
 10  9  0  0  0  0            999 V2000
  -24.1290   21.2500  -33.2260 S   0  0  0  0  0  0  0  0  0  0  0  0
  -22.9980   20.9650  -32.2760 O   0  0  0  0  0  0  0  0  0  0  0  0
  -25.4000   22.0440  -32.2160 C   0  0  0  0  0  0  0  0  0  0  0  0
  -23.5380   22.6440  -34.2100 C   0  0  0  0  0  0  0  0  0  0  0  0
  -26.1905   22.2643  -32.7875 H   0  0  0  0  0  0  0  0  0  0  0  0
  -25.6805   21.4229  -31.4842 H   0  0  0  0  0  0  0  0  0  0  0  0
  -25.0323   22.8842  -31.8174 H   0  0  0  0  0  0  0  0  0  0  0  0
  -24.2377   22.9022  -34.8762 H   0  0  0  0  0  0  0  0  0  0  0  0
  -23.3481   23.4199  -33.6084 H   0  0  0  0  0  0  0  0  0  0  0  0
  -22.7010   22.3819  -34.6903 H   0  0  0  0  0  0  0  0  0  0  0  0
  1  2  2  0  0  0  0
  1  3  1  0  0  0  0
  1  4  1  0  0  0  0
  3  5  1  0  0  0  0
  3  6  1  0  0  0  0
  3  7  1  0  0  0  0
  4  8  1  0  0  0  0
  4  9  1  0  0  0  0
  4 10  1  0  0  0  0
M  END
$$$$
DMS_A_1501
prProtoss 03122516313D 1   1.00000     0.00000     0
Protoss beta proteinsplus
 10  9  0  0  0  0            999 V2000
  -17.6080    5.2350  -46.1320 S   0  0  0  0  0  0  0  0  0  0  0  0
  -17.1550    6.6420  -45.8350 O   0  0  0  0  0  0  0  0  0  0  0  0
  -18.7940    5.4770  -47.4770 C   0  0  0  0  0  0  0  0  0  0  0  0
  -16.3970    4.3860  -47.1530 C   0  0  0  0  0  0  0  0  0  0  0  0
  -19.1644    4.5917  -47.7581 H   0  0  0  0  0  0  0  0  0  0  0  0
  -19.5390    6.0654  -47.1627 H   0  0  0  0  0  0  0  0  0  0  0  0
  -18.3341    5.9077  -48.2535 H   0  0  0  0  0  0  0  0  0  0  0  0
  -16.7124    3.4557  -47.3403 H   0  0  0  0  0  0  0  0  0  0  0  0
  -16.2834    4.8794  -48.0153 H   0  0  0  0  0  0  0  0  0  0  0  0
  -15.5213    4.3504  -46.6715 H   0  0  0  0  0  0  0  0  0  0  0  0
  1  2  2  0  0  0  0
  1  3  1  0  0  0  0
  1  4  1  0  0  0  0
  3  5  1  0  0  0  0
  3  6  1  0  0  0  0
  3  7  1  0  0  0  0
  4  8  1  0  0  0  0
  4  9  1  0  0  0  0
  4 10  1  0  0  0  0
M  END
$$$$
070_A_1602
prProtoss 03122516313D 1   1.00000     0.00000     0
Protoss beta proteinsplus
 34 36  0  0  0  0            999 V2000
   11.3810   22.8410  -13.2970 O   0  0  0  0  0  0  0  0  0  0  0  0
    5.0790   22.7530  -14.3500 O   0  0  0  0  0  0  0  0  0  0  0  0
    4.3810   21.5690  -16.1700 N   0  0  0  0  0  0  0  0  0  0  0  0
    5.6690   21.4710  -16.1400 N   0  0  0  0  0  0  0  0  0  0  0  0
    0.9490   23.5580  -16.2400 N   0  3  0  0  0  0  0  0  0  0  0  0
   11.7350   22.4080  -11.9900 C   0  0  0  0  0  0  0  0  0  0  0  0
    2.1340   24.4390  -16.1960 C   0  0  0  0  0  0  0  0  0  0  0  0
    1.4140   22.3180  -15.5600 C   0  0  0  0  0  0  0  0  0  0  0  0
    2.5760   24.2840  -14.7620 C   0  0  0  0  0  0  0  0  0  0  0  0
    9.7940   22.2960  -14.9350 C   0  0  0  0  0  0  0  0  0  0  0  0
    8.9870   22.9250  -12.8350 C   0  0  0  0  0  0  0  0  0  0  0  0
    8.5320   22.1260  -15.3810 C   0  0  0  0  0  0  0  0  0  0  0  0
    7.7150   22.7510  -13.2720 C   0  0  0  0  0  0  0  0  0  0  0  0
    4.0010   22.3390  -15.0980 C   0  0  0  0  0  0  0  0  0  0  0  0
    6.1040   22.1710  -15.0230 C   0  0  0  0  0  0  0  0  0  0  0  0
   10.0450   22.7020  -13.6600 C   0  0  0  0  0  0  0  0  0  0  0  0
    2.6190   22.7540  -14.7090 C   0  0  2  0  0  0  0  0  0  0  0  0
    7.4730   22.3460  -14.5640 C   0  0  0  0  0  0  0  0  0  0  0  0
    0.6791   23.3685  -17.1841 H   0  0  0  0  0  0  0  0  0  0  0  0
   12.7131   22.5560  -11.8433 H   0  0  0  0  0  0  0  0  0  0  0  0
   11.2140   22.9288  -11.3138 H   0  0  0  0  0  0  0  0  0  0  0  0
   11.5270   21.4346  -11.8936 H   0  0  0  0  0  0  0  0  0  0  0  0
    1.8915   25.3869  -16.4024 H   0  0  0  0  0  0  0  0  0  0  0  0
    2.8419   24.1301  -16.8312 H   0  0  0  0  0  0  0  0  0  0  0  0
    1.6896   21.6312  -16.2326 H   0  0  0  0  0  0  0  0  0  0  0  0
    0.6910   21.9442  -14.9790 H   0  0  0  0  0  0  0  0  0  0  0  0
    1.9123   24.6658  -14.1188 H   0  0  0  0  0  0  0  0  0  0  0  0
    3.4735   24.6931  -14.5970 H   0  0  0  0  0  0  0  0  0  0  0  0
   10.5601   22.1203  -15.5532 H   0  0  0  0  0  0  0  0  0  0  0  0
    9.1492   23.2212  -11.8937 H   0  0  0  0  0  0  0  0  0  0  0  0
    8.3762   21.8345  -16.3248 H   0  0  0  0  0  0  0  0  0  0  0  0
    6.9488   22.9181  -12.6515 H   0  0  0  0  0  0  0  0  0  0  0  0
    2.4580   22.4669  -13.7647 H   0  0  0  0  0  0  0  0  0  0  0  0
    0.1801   23.9680  -15.7494 H   0  0  0  0  0  0  0  0  0  0  0  0
  1  6  1  0  0  0  0
  1 16  1  0  0  0  0
  2 14  1  0  0  0  0
  2 15  1  0  0  0  0
  3  4  1  0  0  0  0
  3 14  2  0  0  0  0
  4 15  2  0  0  0  0
  5  7  1  0  0  0  0
  5  8  1  0  0  0  0
  7  9  1  0  0  0  0
  8 17  1  0  0  0  0
  9 17  1  0  0  0  0
 10 12  1  0  0  0  0
 10 16  2  0  0  0  0
 11 13  2  0  0  0  0
 11 16  1  0  0  0  0
 12 18  2  0  0  0  0
 13 18  1  0  0  0  0
 14 17  1  0  0  0  0
 15 18  1  0  0  0  0
  5 19  1  0  0  0  0
  6 20  1  0  0  0  0
  6 21  1  0  0  0  0
  6 22  1  0  0  0  0
  7 23  1  0  0  0  0
  7 24  1  0  0  0  0
  8 25  1  0  0  0  0
  8 26  1  0  0  0  0
  9 27  1  0  0  0  0
  9 28  1  0  0  0  0
 10 29  1  0  0  0  0
 11 30  1  0  0  0  0
 12 31  1  0  0  0  0
 13 32  1  0  0  0  0
 17 33  1  0  0  0  0
  5 34  1  0  0  0  0
M  CHG  1   5   1
M  END
$$$$
DMS_A_1604
prProtoss 03122516313D 1   1.00000     0.00000     0
Protoss beta proteinsplus
 10  9  0  0  0  0            999 V2000
  -18.5750   19.1060  -39.4430 S   0  0  0  0  0  0  0  0  0  0  0  0
  -18.9660   18.0100  -38.4300 O   0  0  0  0  0  0  0  0  0  0  0  0
  -20.1290   19.5090  -40.2760 C   0  0  0  0  0  0  0  0  0  0  0  0
  -17.7170   18.2780  -40.8000 C   0  0  0  0  0  0  0  0  0  0  0  0
  -19.9662   20.2211  -40.9589 H   0  0  0  0  0  0  0  0  0  0  0  0
  -20.4877   18.6913  -40.7261 H   0  0  0  0  0  0  0  0  0  0  0  0
  -20.7922   19.8375  -39.6035 H   0  0  0  0  0  0  0  0  0  0  0  0
  -17.4438   18.9546  -41.4838 H   0  0  0  0  0  0  0  0  0  0  0  0
  -16.9045   17.8141  -40.4470 H   0  0  0  0  0  0  0  0  0  0  0  0
  -18.3277   17.6070  -41.2204 H   0  0  0  0  0  0  0  0  0  0  0  0
  1  2  2  0  0  0  0
  1  3  1  0  0  0  0
  1  4  1  0  0  0  0
  3  5  1  0  0  0  0
  3  6  1  0  0  0  0
  3  7  1  0  0  0  0
  4  8  1  0  0  0  0
  4  9  1  0  0  0  0
  4 10  1  0  0  0  0
M  END
$$$$
070_A_1605
prProtoss 03122516313D 1   1.00000     0.00000     0
Protoss beta proteinsplus
 34 36  0  0  0  0            999 V2000
  -17.1040    3.6860  -20.8240 O   0  0  0  0  0  0  0  0  0  0  0  0
  -10.8410    3.3920  -19.0700 O   0  0  0  0  0  0  0  0  0  0  0  0
  -10.1250    1.3270  -18.4970 N   0  0  0  0  0  0  0  0  0  0  0  0
  -11.3740    1.2500  -18.7690 N   0  0  0  0  0  0  0  0  0  0  0  0
   -6.7210    1.9140  -19.7930 N   0  3  0  0  0  0  0  0  0  0  0  0
  -17.2430    5.0110  -21.3170 C   0  0  0  0  0  0  0  0  0  0  0  0
   -6.7310    1.2220  -18.4990 C   0  0  0  0  0  0  0  0  0  0  0  0
   -7.4910    3.1690  -19.6870 C   0  0  0  0  0  0  0  0  0  0  0  0
   -7.4860    2.1630  -17.5550 C   0  0  0  0  0  0  0  0  0  0  0  0
  -14.8900    4.3390  -20.0530 C   0  0  0  0  0  0  0  0  0  0  0  0
  -15.3500    2.0760  -20.1390 C   0  0  0  0  0  0  0  0  0  0  0  0
  -13.5980    4.0610  -19.6780 C   0  0  0  0  0  0  0  0  0  0  0  0
  -14.1020    1.8040  -19.6710 C   0  0  0  0  0  0  0  0  0  0  0  0
   -9.7590    2.6260  -18.6520 C   0  0  0  0  0  0  0  0  0  0  0  0
  -11.8450    2.4890  -19.0760 C   0  0  0  0  0  0  0  0  0  0  0  0
  -15.7960    3.3640  -20.3630 C   0  0  0  0  0  0  0  0  0  0  0  0
   -8.3410    3.0930  -18.4250 C   0  0  2  0  0  0  0  0  0  0  0  0
  -13.2040    2.7890  -19.4730 C   0  0  0  0  0  0  0  0  0  0  0  0
   -7.1354    1.3266  -20.4881 H   0  0  0  0  0  0  0  0  0  0  0  0
  -18.1849    5.1570  -21.6194 H   0  0  0  0  0  0  0  0  0  0  0  0
  -17.0214    5.6618  -20.5908 H   0  0  0  0  0  0  0  0  0  0  0  0
  -16.6206    5.1469  -22.0878 H   0  0  0  0  0  0  0  0  0  0  0  0
   -5.7976    1.0713  -18.1733 H   0  0  0  0  0  0  0  0  0  0  0  0
   -7.2040    0.3440  -18.5731 H   0  0  0  0  0  0  0  0  0  0  0  0
   -8.0807    3.2743  -20.4878 H   0  0  0  0  0  0  0  0  0  0  0  0
   -6.8657    3.9472  -19.6289 H   0  0  0  0  0  0  0  0  0  0  0  0
   -6.8370    2.6997  -17.0158 H   0  0  0  0  0  0  0  0  0  0  0  0
   -8.0721    1.6340  -16.9412 H   0  0  0  0  0  0  0  0  0  0  0  0
  -15.1797    5.2949  -20.1012 H   0  0  0  0  0  0  0  0  0  0  0  0
  -15.9688    1.3136  -20.3283 H   0  0  0  0  0  0  0  0  0  0  0  0
  -12.9449    4.8085  -19.5562 H   0  0  0  0  0  0  0  0  0  0  0  0
  -13.8469    0.8580  -19.4707 H   0  0  0  0  0  0  0  0  0  0  0  0
   -8.3654    3.9977  -17.9996 H   0  0  0  0  0  0  0  0  0  0  0  0
   -5.7779    2.1226  -20.0520 H   0  0  0  0  0  0  0  0  0  0  0  0
  1  6  1  0  0  0  0
  1 16  1  0  0  0  0
  2 14  1  0  0  0  0
  2 15  1  0  0  0  0
  3  4  1  0  0  0  0
  3 14  2  0  0  0  0
  4 15  2  0  0  0  0
  5  7  1  0  0  0  0
  5  8  1  0  0  0  0
  7  9  1  0  0  0  0
  8 17  1  0  0  0  0
  9 17  1  0  0  0  0
 10 12  1  0  0  0  0
 10 16  2  0  0  0  0
 11 13  2  0  0  0  0
 11 16  1  0  0  0  0
 12 18  2  0  0  0  0
 13 18  1  0  0  0  0
 14 17  1  0  0  0  0
 15 18  1  0  0  0  0
  5 19  1  0  0  0  0
  6 20  1  0  0  0  0
  6 21  1  0  0  0  0
  6 22  1  0  0  0  0
  7 23  1  0  0  0  0
  7 24  1  0  0  0  0
  8 25  1  0  0  0  0
  8 26  1  0  0  0  0
  9 27  1  0  0  0  0
  9 28  1  0  0  0  0
 10 29  1  0  0  0  0
 11 30  1  0  0  0  0
 12 31  1  0  0  0  0
 13 32  1  0  0  0  0
 17 33  1  0  0  0  0
  5 34  1  0  0  0  0
M  CHG  1   5   1
M  END
$$$$
PG4_A_401
prProtoss 03122516313D 1   1.00000     0.00000     0
Protoss beta proteinsplus
 26 25  0  0  0  0            999 V2000
  -12.8030   19.0940  -47.1450 O   0  0  0  0  0  0  0  0  0  0  0  0
  -16.9250   16.8050  -43.1980 O   0  0  0  0  0  0  0  0  0  0  0  0
  -15.4530   16.9100  -46.2710 O   0  0  0  0  0  0  0  0  0  0  0  0
  -13.1450   20.2740  -47.8320 C   0  0  0  0  0  0  0  0  0  0  0  0
  -18.5720   16.2380  -41.5470 C   0  0  0  0  0  0  0  0  0  0  0  0
  -18.0400   17.2890  -42.4900 C   0  0  0  0  0  0  0  0  0  0  0  0
  -13.6690   18.0180  -47.4050 C   0  0  0  0  0  0  0  0  0  0  0  0
  -16.5610   17.6440  -44.2690 C   0  0  0  0  0  0  0  0  0  0  0  0
  -14.9460   18.1750  -46.6190 C   0  0  0  0  0  0  0  0  0  0  0  0
  -16.6900   16.9330  -45.5950 C   0  0  0  0  0  0  0  0  0  0  0  0
  -12.4911   20.9949  -47.6023 H   0  0  0  0  0  0  0  0  0  0  0  0
  -13.1220   20.1047  -48.8173 H   0  0  0  0  0  0  0  0  0  0  0  0
  -14.0649   20.5608  -47.5645 H   0  0  0  0  0  0  0  0  0  0  0  0
  -19.3627   16.6016  -41.0545 H   0  0  0  0  0  0  0  0  0  0  0  0
  -18.8468   15.4304  -42.0688 H   0  0  0  0  0  0  0  0  0  0  0  0
  -17.8591   15.9855  -40.8928 H   0  0  0  0  0  0  0  0  0  0  0  0
  -18.7574   17.5401  -43.1398 H   0  0  0  0  0  0  0  0  0  0  0  0
  -17.7697   18.0953  -41.9638 H   0  0  0  0  0  0  0  0  0  0  0  0
  -13.2220   17.1632  -47.1414 H   0  0  0  0  0  0  0  0  0  0  0  0
  -13.8830   17.9949  -48.3816 H   0  0  0  0  0  0  0  0  0  0  0  0
  -15.6120   17.9345  -44.1466 H   0  0  0  0  0  0  0  0  0  0  0  0
  -17.1576   18.4465  -44.2708 H   0  0  0  0  0  0  0  0  0  0  0  0
  -14.7611   18.6983  -45.7872 H   0  0  0  0  0  0  0  0  0  0  0  0
  -15.6202   18.6607  -47.1754 H   0  0  0  0  0  0  0  0  0  0  0  0
  -16.9944   15.9939  -45.4356 H   0  0  0  0  0  0  0  0  0  0  0  0
  -17.3635   17.4105  -46.1593 H   0  0  0  0  0  0  0  0  0  0  0  0
  1  4  1  0  0  0  0
  1  7  1  0  0  0  0
  2  6  1  0  0  0  0
  2  8  1  0  0  0  0
  3  9  1  0  0  0  0
  3 10  1  0  0  0  0
  5  6  1  0  0  0  0
  7  9  1  0  0  0  0
  8 10  1  0  0  0  0
  4 11  1  0  0  0  0
  4 12  1  0  0  0  0
  4 13  1  0  0  0  0
  5 14  1  0  0  0  0
  5 15  1  0  0  0  0
  5 16  1  0  0  0  0
  6 17  1  0  0  0  0
  6 18  1  0  0  0  0
  7 19  1  0  0  0  0
  7 20  1  0  0  0  0
  8 21  1  0  0  0  0
  8 22  1  0  0  0  0
  9 23  1  0  0  0  0
  9 24  1  0  0  0  0
 10 25  1  0  0  0  0
 10 26  1  0  0  0  0
M  END
$$$$
073_B_6
prProtoss 03122516313D 1   1.00000     0.00000     0
Protoss beta proteinsplus
 30 32  0  0  0  0            999 V2000
  -17.2360    4.4410  -20.5360 Cl  0  0  0  0  0  0  0  0  0  0  0  0
  -10.8030    3.4490  -18.8620 O   0  0  0  0  0  0  0  0  0  0  0  0
   -7.2720    2.7750  -20.2830 N   0  3  0  0  0  0  0  0  0  0  0  0
  -10.0950    1.4690  -18.2210 N   0  0  0  0  0  0  0  0  0  0  0  0
  -11.4690    1.3840  -18.4690 N   0  0  0  0  0  0  0  0  0  0  0  0
   -6.7540    1.8210  -19.2570 C   0  0  0  0  0  0  0  0  0  0  0  0
   -7.8720    3.9550  -19.5790 C   0  0  0  0  0  0  0  0  0  0  0  0
   -7.2790    2.3590  -17.9450 C   0  0  0  0  0  0  0  0  0  0  0  0
  -15.4400    2.5400  -19.8980 C   0  0  0  0  0  0  0  0  0  0  0  0
  -14.6870    4.8230  -19.7640 C   0  0  0  0  0  0  0  0  0  0  0  0
  -14.1910    2.1060  -19.4900 C   0  0  0  0  0  0  0  0  0  0  0  0
  -13.4390    4.3810  -19.3580 C   0  0  0  0  0  0  0  0  0  0  0  0
  -15.6740    3.8960  -20.0310 C   0  0  0  0  0  0  0  0  0  0  0  0
   -9.7490    2.6820  -18.4600 C   0  0  0  0  0  0  0  0  0  0  0  0
  -11.8420    2.5600  -18.8390 C   0  0  0  0  0  0  0  0  0  0  0  0
   -8.4160    3.3200  -18.3390 C   0  0  2  0  0  0  0  0  0  0  0  0
  -13.1740    3.0200  -19.2180 C   0  0  0  0  0  0  0  0  0  0  0  0
   -7.9696    2.3245  -20.8401 H   0  0  0  0  0  0  0  0  0  0  0  0
   -5.7541    1.8074  -19.2592 H   0  0  0  0  0  0  0  0  0  0  0  0
   -7.1003    0.8981  -19.4250 H   0  0  0  0  0  0  0  0  0  0  0  0
   -8.5986    4.3741  -20.1234 H   0  0  0  0  0  0  0  0  0  0  0  0
   -7.1786    4.6424  -19.3630 H   0  0  0  0  0  0  0  0  0  0  0  0
   -6.5595    2.8482  -17.4520 H   0  0  0  0  0  0  0  0  0  0  0  0
   -7.6281    1.6158  -17.3742 H   0  0  0  0  0  0  0  0  0  0  0  0
  -16.1652    1.8801  -20.0944 H   0  0  0  0  0  0  0  0  0  0  0  0
  -14.8707    5.8010  -19.8624 H   0  0  0  0  0  0  0  0  0  0  0  0
  -14.0161    1.1266  -19.3892 H   0  0  0  0  0  0  0  0  0  0  0  0
  -12.7189    5.0468  -19.1628 H   0  0  0  0  0  0  0  0  0  0  0  0
   -8.4775    4.0270  -17.6344 H   0  0  0  0  0  0  0  0  0  0  0  0
   -6.5215    3.0787  -20.8700 H   0  0  0  0  0  0  0  0  0  0  0  0
  1 13  1  0  0  0  0
  2 14  1  0  0  0  0
  2 15  1  0  0  0  0
  3  6  1  0  0  0  0
  3  7  1  0  0  0  0
  4  5  1  0  0  0  0
  4 14  2  0  0  0  0
  5 15  2  0  0  0  0
  6  8  1  0  0  0  0
  7 16  1  0  0  0  0
  8 16  1  0  0  0  0
  9 11  1  0  0  0  0
  9 13  2  0  0  0  0
 10 12  2  0  0  0  0
 10 13  1  0  0  0  0
 11 17  2  0  0  0  0
 12 17  1  0  0  0  0
 14 16  1  0  0  0  0
 15 17  1  0  0  0  0
  3 18  1  0  0  0  0
  6 19  1  0  0  0  0
  6 20  1  0  0  0  0
  7 21  1  0  0  0  0
  7 22  1  0  0  0  0
  8 23  1  0  0  0  0
  8 24  1  0  0  0  0
  9 25  1  0  0  0  0
 10 26  1  0  0  0  0
 11 27  1  0  0  0  0
 12 28  1  0  0  0  0
 16 29  1  0  0  0  0
  3 30  1  0  0  0  0
M  CHG  1   3   1
M  END
$$$$
073_B_7
prProtoss 03122516313D 1   1.00000     0.00000     0
Protoss beta proteinsplus
 30 32  0  0  0  0            999 V2000
  -16.1330   17.8920  -37.0620 Cl  0  0  0  0  0  0  0  0  0  0  0  0
  -22.1990   18.6540  -39.9320 O   0  0  0  0  0  0  0  0  0  0  0  0
  -25.6940   17.1640  -39.5080 N   0  3  0  0  0  0  0  0  0  0  0  0
  -22.5120   20.2510  -41.4130 N   0  0  0  0  0  0  0  0  0  0  0  0
  -21.1800   20.2980  -40.9950 N   0  0  0  0  0  0  0  0  0  0  0  0
  -25.0780   16.4570  -40.6670 C   0  0  0  0  0  0  0  0  0  0  0  0
  -25.1590   18.5630  -39.4700 C   0  0  0  0  0  0  0  0  0  0  0  0
  -24.7690   17.5630  -41.6470 C   0  0  0  0  0  0  0  0  0  0  0  0
  -18.6880   17.5190  -37.8550 C   0  0  0  0  0  0  0  0  0  0  0  0
  -17.5460   19.4190  -38.7780 C   0  0  0  0  0  0  0  0  0  0  0  0
  -19.8270   17.8600  -38.5630 C   0  0  0  0  0  0  0  0  0  0  0  0
  -18.6880   19.7540  -39.4840 C   0  0  0  0  0  0  0  0  0  0  0  0
  -17.5610   18.3050  -37.9720 C   0  0  0  0  0  0  0  0  0  0  0  0
  -23.0710   19.2870  -40.7750 C   0  0  0  0  0  0  0  0  0  0  0  0
  -21.0380   19.3500  -40.1330 C   0  0  0  0  0  0  0  0  0  0  0  0
  -24.4840   18.8380  -40.8190 C   0  0  2  0  0  0  0  0  0  0  0  0
  -19.8400   18.9800  -39.3840 C   0  0  0  0  0  0  0  0  0  0  0  0
  -25.4598   16.6895  -38.6595 H   0  0  0  0  0  0  0  0  0  0  0  0
  -25.7185   15.7994  -41.0635 H   0  0  0  0  0  0  0  0  0  0  0  0
  -24.2419   15.9830  -40.3907 H   0  0  0  0  0  0  0  0  0  0  0  0
  -24.4921   18.6531  -38.7303 H   0  0  0  0  0  0  0  0  0  0  0  0
  -25.9072   19.2104  -39.3248 H   0  0  0  0  0  0  0  0  0  0  0  0
  -25.5512   17.7142  -42.2514 H   0  0  0  0  0  0  0  0  0  0  0  0
  -23.9669   17.3227  -42.1937 H   0  0  0  0  0  0  0  0  0  0  0  0
  -18.6822   16.7116  -37.2651 H   0  0  0  0  0  0  0  0  0  0  0  0
  -16.7211   19.9793  -38.8529 H   0  0  0  0  0  0  0  0  0  0  0  0
  -20.6481   17.2949  -38.4827 H   0  0  0  0  0  0  0  0  0  0  0  0
  -18.6853   20.5620  -40.0731 H   0  0  0  0  0  0  0  0  0  0  0  0
  -25.0025   19.5768  -41.2495 H   0  0  0  0  0  0  0  0  0  0  0  0
  -26.6881   17.1852  -39.6146 H   0  0  0  0  0  0  0  0  0  0  0  0
  1 13  1  0  0  0  0
  2 14  1  0  0  0  0
  2 15  1  0  0  0  0
  3  6  1  0  0  0  0
  3  7  1  0  0  0  0
  4  5  1  0  0  0  0
  4 14  2  0  0  0  0
  5 15  2  0  0  0  0
  6  8  1  0  0  0  0
  7 16  1  0  0  0  0
  8 16  1  0  0  0  0
  9 11  1  0  0  0  0
  9 13  2  0  0  0  0
 10 12  2  0  0  0  0
 10 13  1  0  0  0  0
 11 17  2  0  0  0  0
 12 17  1  0  0  0  0
 14 16  1  0  0  0  0
 15 17  1  0  0  0  0
  3 18  1  0  0  0  0
  6 19  1  0  0  0  0
  6 20  1  0  0  0  0
  7 21  1  0  0  0  0
  7 22  1  0  0  0  0
  8 23  1  0  0  0  0
  8 24  1  0  0  0  0
  9 25  1  0  0  0  0
 10 26  1  0  0  0  0
 11 27  1  0  0  0  0
 12 28  1  0  0  0  0
 16 29  1  0  0  0  0
  3 30  1  0  0  0  0
M  CHG  1   3   1
M  END
$$$$
073_B_8
prProtoss 03122516313D 1   1.00000     0.00000     0
Protoss beta proteinsplus
 30 32  0  0  0  0            999 V2000
    0.5830   26.7110  -11.4430 Cl  0  0  0  0  0  0  0  0  0  0  0  0
   -5.5410   28.4470  -13.6560 O   0  0  0  0  0  0  0  0  0  0  0  0
   -7.9890   29.2410  -11.8580 N   0  3  0  0  0  0  0  0  0  0  0  0
   -5.8720   28.9170  -15.7800 N   0  0  0  0  0  0  0  0  0  0  0  0
   -4.5250   28.5780  -15.6090 N   0  0  0  0  0  0  0  0  0  0  0  0
   -8.2190   27.8130  -12.2350 C   0  0  0  0  0  0  0  0  0  0  0  0
   -7.9980   30.0770  -13.1020 C   0  0  0  0  0  0  0  0  0  0  0  0
   -8.6010   27.8700  -13.6970 C   0  0  0  0  0  0  0  0  0  0  0  0
   -0.7810   27.5270  -13.6240 C   0  0  0  0  0  0  0  0  0  0  0  0
   -2.0540   27.2630  -11.6030 C   0  0  0  0  0  0  0  0  0  0  0  0
   -1.9350   27.8890  -14.2980 C   0  0  0  0  0  0  0  0  0  0  0  0
   -3.2030   27.6260  -12.2830 C   0  0  0  0  0  0  0  0  0  0  0  0
   -0.8560   27.2180  -12.2840 C   0  0  0  0  0  0  0  0  0  0  0  0
   -6.4250   28.8290  -14.6230 C   0  0  0  0  0  0  0  0  0  0  0  0
   -4.3740   28.3120  -14.3570 C   0  0  0  0  0  0  0  0  0  0  0  0
   -7.8280   29.0900  -14.2260 C   0  0  2  0  0  0  0  0  0  0  0  0
   -3.1580   27.9430  -13.6380 C   0  0  0  0  0  0  0  0  0  0  0  0
   -7.1044   29.3294  -11.4002 H   0  0  0  0  0  0  0  0  0  0  0  0
   -8.9588   27.4176  -11.6906 H   0  0  0  0  0  0  0  0  0  0  0  0
   -7.3863   27.2742  -12.1071 H   0  0  0  0  0  0  0  0  0  0  0  0
   -7.2434   30.7331  -13.0915 H   0  0  0  0  0  0  0  0  0  0  0  0
   -8.8649   30.5674  -13.1912 H   0  0  0  0  0  0  0  0  0  0  0  0
   -9.5870   27.9985  -13.8036 H   0  0  0  0  0  0  0  0  0  0  0  0
   -8.3202   27.0361  -14.1721 H   0  0  0  0  0  0  0  0  0  0  0  0
    0.0955   27.4904  -14.1039 H   0  0  0  0  0  0  0  0  0  0  0  0
   -2.0920   27.0361  -10.6298 H   0  0  0  0  0  0  0  0  0  0  0  0
   -1.8885   28.1144  -15.2712 H   0  0  0  0  0  0  0  0  0  0  0  0
   -4.0756   27.6611  -11.7958 H   0  0  0  0  0  0  0  0  0  0  0  0
   -8.3154   29.4431  -15.0246 H   0  0  0  0  0  0  0  0  0  0  0  0
   -8.7150   29.5471  -11.2422 H   0  0  0  0  0  0  0  0  0  0  0  0
  1 13  1  0  0  0  0
  2 14  1  0  0  0  0
  2 15  1  0  0  0  0
  3  6  1  0  0  0  0
  3  7  1  0  0  0  0
  4  5  1  0  0  0  0
  4 14  2  0  0  0  0
  5 15  2  0  0  0  0
  6  8  1  0  0  0  0
  7 16  1  0  0  0  0
  8 16  1  0  0  0  0
  9 11  1  0  0  0  0
  9 13  2  0  0  0  0
 10 12  2  0  0  0  0
 10 13  1  0  0  0  0
 11 17  2  0  0  0  0
 12 17  1  0  0  0  0
 14 16  1  0  0  0  0
 15 17  1  0  0  0  0
  3 18  1  0  0  0  0
  6 19  1  0  0  0  0
  6 20  1  0  0  0  0
  7 21  1  0  0  0  0
  7 22  1  0  0  0  0
  8 23  1  0  0  0  0
  8 24  1  0  0  0  0
  9 25  1  0  0  0  0
 10 26  1  0  0  0  0
 11 27  1  0  0  0  0
 12 28  1  0  0  0  0
 16 29  1  0  0  0  0
  3 30  1  0  0  0  0
M  CHG  1   3   1
M  END
$$$$
PEG_B_9
prProtoss 03122516313D 1   1.00000     0.00000     0
Protoss beta proteinsplus
 17 16  0  0  0  0            999 V2000
   -6.4200   31.0230  -17.8100 O   0  0  0  0  0  0  0  0  0  0  0  0
   -2.4960   29.3430  -17.9500 O   0  0  0  0  0  0  0  0  0  0  0  0
   -4.1890   32.2930  -19.1200 O   0  0  0  0  0  0  0  0  0  0  0  0
   -6.4940   32.2790  -18.4490 C   0  0  0  0  0  0  0  0  0  0  0  0
   -2.7380   30.7310  -18.0400 C   0  0  0  0  0  0  0  0  0  0  0  0
   -5.5130   32.3400  -19.5940 C   0  0  0  0  0  0  0  0  0  0  0  0
   -3.6030   31.0200  -19.2400 C   0  0  0  0  0  0  0  0  0  0  0  0
   -7.0739   30.9946  -17.0539 H   0  0  0  0  0  0  0  0  0  0  0  0
   -2.8488   28.9989  -17.0799 H   0  0  0  0  0  0  0  0  0  0  0  0
   -6.2768   32.9985  -17.7893 H   0  0  0  0  0  0  0  0  0  0  0  0
   -7.4202   32.4170  -18.7999 H   0  0  0  0  0  0  0  0  0  0  0  0
   -1.8677   31.2146  -18.1335 H   0  0  0  0  0  0  0  0  0  0  0  0
   -3.2045   31.0413  -17.2117 H   0  0  0  0  0  0  0  0  0  0  0  0
   -5.6711   31.5628  -20.2030 H   0  0  0  0  0  0  0  0  0  0  0  0
   -5.6506   33.1923  -20.0987 H   0  0  0  0  0  0  0  0  0  0  0  0
   -3.0413   30.9914  -20.0669 H   0  0  0  0  0  0  0  0  0  0  0  0
   -4.3233   30.3291  -19.3022 H   0  0  0  0  0  0  0  0  0  0  0  0
  1  4  1  0  0  0  0
  2  5  1  0  0  0  0
  3  6  1  0  0  0  0
  3  7  1  0  0  0  0
  4  6  1  0  0  0  0
  5  7  1  0  0  0  0
  1  8  1  0  0  0  0
  2  9  1  0  0  0  0
  4 10  1  0  0  0  0
  4 11  1  0  0  0  0
  5 12  1  0  0  0  0
  5 13  1  0  0  0  0
  6 14  1  0  0  0  0
  6 15  1  0  0  0  0
  7 16  1  0  0  0  0
  7 17  1  0  0  0  0
M  END
$$$$
DMS_D_1
prProtoss 03122516313D 1   1.00000     0.00000     0
Protoss beta proteinsplus
 10  9  0  0  0  0            999 V2000
   -3.6320   25.2310  -30.1230 S   0  0  0  0  0  0  0  0  0  0  0  0
   -3.2220   24.6110  -31.4410 O   0  0  0  0  0  0  0  0  0  0  0  0
   -4.0120   26.9560  -30.4970 C   0  0  0  0  0  0  0  0  0  0  0  0
   -5.3330   24.7170  -29.7970 C   0  0  0  0  0  0  0  0  0  0  0  0
   -4.2921   27.4248  -29.6593 H   0  0  0  0  0  0  0  0  0  0  0  0
   -3.2000   27.4022  -30.8731 H   0  0  0  0  0  0  0  0  0  0  0  0
   -4.7544   26.9964  -31.1657 H   0  0  0  0  0  0  0  0  0  0  0  0
   -5.6395   25.1096  -28.9299 H   0  0  0  0  0  0  0  0  0  0  0  0
   -5.9255   25.0376  -30.5360 H   0  0  0  0  0  0  0  0  0  0  0  0
   -5.3755   23.7193  -29.7447 H   0  0  0  0  0  0  0  0  0  0  0  0
  1  2  2  0  0  0  0
  1  3  1  0  0  0  0
  1  4  1  0  0  0  0
  3  5  1  0  0  0  0
  3  6  1  0  0  0  0
  3  7  1  0  0  0  0
  4  8  1  0  0  0  0
  4  9  1  0  0  0  0
  4 10  1  0  0  0  0
M  END
$$$$
DMS_D_2
prProtoss 03122516313D 1   1.00000     0.00000     0
Protoss beta proteinsplus
 10  9  0  0  0  0            999 V2000
  -23.8520   20.9660  -33.0590 S   0  0  0  0  0  0  0  0  0  0  0  0
  -22.8050   20.7630  -31.9980 O   0  0  0  0  0  0  0  0  0  0  0  0
  -25.2300   21.8060  -32.2460 C   0  0  0  0  0  0  0  0  0  0  0  0
  -23.2730   22.3610  -34.0430 C   0  0  0  0  0  0  0  0  0  0  0  0
  -25.9603   21.9674  -32.9097 H   0  0  0  0  0  0  0  0  0  0  0  0
  -25.5762   21.2348  -31.5018 H   0  0  0  0  0  0  0  0  0  0  0  0
  -24.9160   22.6806  -31.8766 H   0  0  0  0  0  0  0  0  0  0  0  0
  -23.9301   22.5497  -34.7728 H   0  0  0  0  0  0  0  0  0  0  0  0
  -23.1837   23.1672  -33.4582 H   0  0  0  0  0  0  0  0  0  0  0  0
  -22.3840   22.1399  -34.4439 H   0  0  0  0  0  0  0  0  0  0  0  0
  1  2  2  0  0  0  0
  1  3  1  0  0  0  0
  1  4  1  0  0  0  0
  3  5  1  0  0  0  0
  3  6  1  0  0  0  0
  3  7  1  0  0  0  0
  4  8  1  0  0  0  0
  4  9  1  0  0  0  0
  4 10  1  0  0  0  0
M  END
$$$$
DMS_D_5
prProtoss 03122516313D 1   1.00000     0.00000     0
Protoss beta proteinsplus
 10  9  0  0  0  0            999 V2000
  -17.4850    4.9820  -45.5980 S   0  0  0  0  0  0  0  0  0  0  0  0
  -17.0530    6.4010  -45.3330 O   0  0  0  0  0  0  0  0  0  0  0  0
  -18.7590    5.0910  -46.8750 C   0  0  0  0  0  0  0  0  0  0  0  0
  -16.2210    4.2180  -46.6280 C   0  0  0  0  0  0  0  0  0  0  0  0
  -19.0886    4.1732  -47.0962 H   0  0  0  0  0  0  0  0  0  0  0  0
  -19.5199    5.6467  -46.5401 H   0  0  0  0  0  0  0  0  0  0  0  0
  -18.3734    5.5134  -47.6953 H   0  0  0  0  0  0  0  0  0  0  0  0
  -16.4776    3.2715  -46.8235 H   0  0  0  0  0  0  0  0  0  0  0  0
  -16.1388    4.7251  -47.4860 H   0  0  0  0  0  0  0  0  0  0  0  0
  -15.3447    4.2332  -46.1466 H   0  0  0  0  0  0  0  0  0  0  0  0
  1  2  2  0  0  0  0
  1  3  1  0  0  0  0
  1  4  1  0  0  0  0
  3  5  1  0  0  0  0
  3  6  1  0  0  0  0
  3  7  1  0  0  0  0
  4  8  1  0  0  0  0
  4  9  1  0  0  0  0
  4 10  1  0  0  0  0
M  END
$$$$
DMS_D_16
prProtoss 03122516313D 1   1.00000     0.00000     0
Protoss beta proteinsplus
 10  9  0  0  0  0            999 V2000
   -9.0840   24.7060  -15.8400 S   0  0  0  0  0  0  0  0  0  0  0  0
  -10.0530   25.3760  -14.8940 O   0  0  0  0  0  0  0  0  0  0  0  0
   -8.3540   26.0350  -16.8210 C   0  0  0  0  0  0  0  0  0  0  0  0
   -7.6160   24.3070  -14.8650 C   0  0  0  0  0  0  0  0  0  0  0  0
   -7.6989   25.6488  -17.4703 H   0  0  0  0  0  0  0  0  0  0  0  0
   -9.0750   26.5152  -17.3206 H   0  0  0  0  0  0  0  0  0  0  0  0
   -7.8839   26.6769  -16.2152 H   0  0  0  0  0  0  0  0  0  0  0  0
   -6.9395   23.8587  -15.4493 H   0  0  0  0  0  0  0  0  0  0  0  0
   -7.2268   25.1480  -14.4891 H   0  0  0  0  0  0  0  0  0  0  0  0
   -7.8693   23.6935  -14.1170 H   0  0  0  0  0  0  0  0  0  0  0  0
  1  2  2  0  0  0  0
  1  3  1  0  0  0  0
  1  4  1  0  0  0  0
  3  5  1  0  0  0  0
  3  6  1  0  0  0  0
  3  7  1  0  0  0  0
  4  8  1  0  0  0  0
  4  9  1  0  0  0  0
  4 10  1  0  0  0  0
M  END
$$$$
DMS_D_17
prProtoss 03122516313D 1   1.00000     0.00000     0
Protoss beta proteinsplus
 10  9  0  0  0  0            999 V2000
  -26.5950   15.5550   -5.8680 S   0  0  0  0  0  0  0  0  0  0  0  0
  -25.6430   15.9210   -4.7510 O   0  0  0  0  0  0  0  0  0  0  0  0
  -27.4190   17.0830   -6.3690 C   0  0  0  0  0  0  0  0  0  0  0  0
  -28.0180   14.7530   -5.0980 C   0  0  0  0  0  0  0  0  0  0  0  0
  -28.0616   16.8877   -7.1099 H   0  0  0  0  0  0  0  0  0  0  0  0
  -27.9152   17.4652   -5.5894 H   0  0  0  0  0  0  0  0  0  0  0  0
  -26.7362   17.7418   -6.6849 H   0  0  0  0  0  0  0  0  0  0  0  0
  -28.6765   14.4929   -5.8042 H   0  0  0  0  0  0  0  0  0  0  0  0
  -27.7151   13.9359   -4.6075 H   0  0  0  0  0  0  0  0  0  0  0  0
  -28.4504   15.3861   -4.4559 H   0  0  0  0  0  0  0  0  0  0  0  0
  1  2  2  0  0  0  0
  1  3  1  0  0  0  0
  1  4  1  0  0  0  0
  3  5  1  0  0  0  0
  3  6  1  0  0  0  0
  3  7  1  0  0  0  0
  4  8  1  0  0  0  0
  4  9  1  0  0  0  0
  4 10  1  0  0  0  0
M  END
$$$$
DMS_D_18
prProtoss 03122516313D 1   1.00000     0.00000     0
Protoss beta proteinsplus
 10  9  0  0  0  0            999 V2000
  -15.0710  -11.9360  -25.4360 S   0  0  0  0  0  0  0  0  0  0  0  0
  -16.4140  -11.2440  -25.3720 O   0  0  0  0  0  0  0  0  0  0  0  0
  -13.9740  -10.8290  -26.3420 C   0  0  0  0  0  0  0  0  0  0  0  0
  -15.1850  -13.1930  -26.7280 C   0  0  0  0  0  0  0  0  0  0  0  0
  -13.0665  -11.2432  -26.4125 H   0  0  0  0  0  0  0  0  0  0  0  0
  -14.3412  -10.6727  -27.2589 H   0  0  0  0  0  0  0  0  0  0  0  0
  -13.9057   -9.9571  -25.8572 H   0  0  0  0  0  0  0  0  0  0  0  0
  -14.3121  -13.6753  -26.8017 H   0  0  0  0  0  0  0  0  0  0  0  0
  -15.9074  -13.8446  -26.4963 H   0  0  0  0  0  0  0  0  0  0  0  0
  -15.3986  -12.7550  -27.6012 H   0  0  0  0  0  0  0  0  0  0  0  0
  1  2  2  0  0  0  0
  1  3  1  0  0  0  0
  1  4  1  0  0  0  0
  3  5  1  0  0  0  0
  3  6  1  0  0  0  0
  3  7  1  0  0  0  0
  4  8  1  0  0  0  0
  4  9  1  0  0  0  0
  4 10  1  0  0  0  0
M  END
$$$$
074_B_7
prProtoss 03122516323D 1   1.00000     0.00000     0
Protoss beta proteinsplus
 29 31  0  0  0  0            999 V2000
  -14.2970    3.6220  -29.4560 O   0  0  0  0  0  0  0  0  0  0  0  0
  -14.6670    5.8010  -30.0560 N   0  0  0  0  0  0  0  0  0  0  0  0
  -13.4140    5.6540  -29.9350 N   0  0  0  0  0  0  0  0  0  0  0  0
   -9.3750    2.6770  -28.5390 N   0  0  0  0  0  0  0  0  0  0  0  0
  -18.2790    3.0760  -28.5160 N   0  3  0  0  0  0  0  0  0  0  0  0
  -10.4430    1.8410  -28.8050 C   0  0  0  0  0  0  0  0  0  0  0  0
   -9.5170    4.0430  -28.6360 C   0  0  0  0  0  0  0  0  0  0  0  0
  -18.1960    2.4280  -29.8410 C   0  0  0  0  0  0  0  0  0  0  0  0
  -17.0860    3.9200  -28.3580 C   0  0  0  0  0  0  0  0  0  0  0  0
  -16.9920    3.0130  -30.5650 C   0  0  0  0  0  0  0  0  0  0  0  0
  -11.6640    2.3000  -29.1620 C   0  0  0  0  0  0  0  0  0  0  0  0
  -10.7000    4.6040  -28.9780 C   0  0  0  0  0  0  0  0  0  0  0  0
  -15.2070    4.5820  -29.7870 C   0  0  0  0  0  0  0  0  0  0  0  0
  -13.1730    4.3380  -29.5910 C   0  0  0  0  0  0  0  0  0  0  0  0
  -16.6540    4.2740  -29.7880 C   0  0  2  0  0  0  0  0  0  0  0  0
  -11.8680    3.7560  -29.2830 C   0  0  0  0  0  0  0  0  0  0  0  0
  -18.3025    2.3809  -27.7974 H   0  0  0  0  0  0  0  0  0  0  0  0
  -10.3069    0.8531  -28.7302 H   0  0  0  0  0  0  0  0  0  0  0  0
   -8.7306    4.6321  -28.4501 H   0  0  0  0  0  0  0  0  0  0  0  0
  -19.0294    2.6106  -30.3627 H   0  0  0  0  0  0  0  0  0  0  0  0
  -18.0812    1.4407  -29.7311 H   0  0  0  0  0  0  0  0  0  0  0  0
  -16.3609    3.4182  -27.8863 H   0  0  0  0  0  0  0  0  0  0  0  0
  -17.3076    4.7481  -27.8431 H   0  0  0  0  0  0  0  0  0  0  0  0
  -17.2226    3.2334  -31.5128 H   0  0  0  0  0  0  0  0  0  0  0  0
  -16.2246    2.3720  -30.5490 H   0  0  0  0  0  0  0  0  0  0  0  0
  -12.4148    1.6641  -29.3407 H   0  0  0  0  0  0  0  0  0  0  0  0
  -10.7830    5.5995  -29.0243 H   0  0  0  0  0  0  0  0  0  0  0  0
  -17.1796    5.0518  -30.1326 H   0  0  0  0  0  0  0  0  0  0  0  0
  -19.1041    3.6385  -28.4627 H   0  0  0  0  0  0  0  0  0  0  0  0
  1 13  1  0  0  0  0
  1 14  1  0  0  0  0
  2  3  1  0  0  0  0
  2 13  2  0  0  0  0
  3 14  2  0  0  0  0
  4  6  2  0  0  0  0
  4  7  1  0  0  0  0
  5  8  1  0  0  0  0
  5  9  1  0  0  0  0
  6 11  1  0  0  0  0
  7 12  2  0  0  0  0
  8 10  1  0  0  0  0
  9 15  1  0  0  0  0
 10 15  1  0  0  0  0
 11 16  2  0  0  0  0
 12 16  1  0  0  0  0
 13 15  1  0  0  0  0
 14 16  1  0  0  0  0
  5 17  1  0  0  0  0
  6 18  1  0  0  0  0
  7 19  1  0  0  0  0
  8 20  1  0  0  0  0
  8 21  1  0  0  0  0
  9 22  1  0  0  0  0
  9 23  1  0  0  0  0
 10 24  1  0  0  0  0
 10 25  1  0  0  0  0
 11 26  1  0  0  0  0
 12 27  1  0  0  0  0
 15 28  1  0  0  0  0
  5 29  1  0  0  0  0
M  CHG  1   5   1
M  END
$$$$
074_B_8
prProtoss 03122516323D 1   1.00000     0.00000     0
Protoss beta proteinsplus
 29 31  0  0  0  0            999 V2000
  -29.7570   20.0490  -34.6570 O   0  0  0  0  0  0  0  0  0  0  0  0
  -28.2350   18.3950  -35.0360 N   0  0  0  0  0  0  0  0  0  0  0  0
  -27.5630   19.4270  -34.7560 N   0  0  0  0  0  0  0  0  0  0  0  0
  -27.5750   24.3710  -33.2880 N   0  0  0  0  0  0  0  0  0  0  0  0
  -31.6310   16.2150  -36.6810 N   0  3  0  0  0  0  0  0  0  0  0  0
  -26.6750   23.3670  -33.0270 C   0  0  0  0  0  0  0  0  0  0  0  0
  -28.7450   24.1220  -33.9690 C   0  0  0  0  0  0  0  0  0  0  0  0
  -32.3130   17.4720  -37.0110 C   0  0  0  0  0  0  0  0  0  0  0  0
  -30.3310   16.6170  -36.1360 C   0  0  0  0  0  0  0  0  0  0  0  0
  -31.9370   18.4250  -35.8860 C   0  0  0  0  0  0  0  0  0  0  0  0
  -26.8930   22.0940  -33.4250 C   0  0  0  0  0  0  0  0  0  0  0  0
  -29.0820   22.8940  -34.3880 C   0  0  0  0  0  0  0  0  0  0  0  0
  -29.5660   18.7380  -34.9880 C   0  0  0  0  0  0  0  0  0  0  0  0
  -28.4660   20.4360  -34.5440 C   0  0  0  0  0  0  0  0  0  0  0  0
  -30.6970   17.7960  -35.2350 C   0  0  2  0  0  0  0  0  0  0  0  0
  -28.1400   21.7860  -34.1480 C   0  0  0  0  0  0  0  0  0  0  0  0
  -31.5100   15.6556  -37.5010 H   0  0  0  0  0  0  0  0  0  0  0  0
  -25.8354   23.5838  -32.5289 H   0  0  0  0  0  0  0  0  0  0  0  0
  -29.3651   24.8835  -34.1577 H   0  0  0  0  0  0  0  0  0  0  0  0
  -33.3034   17.3377  -37.0427 H   0  0  0  0  0  0  0  0  0  0  0  0
  -31.9961   17.8241  -37.8917 H   0  0  0  0  0  0  0  0  0  0  0  0
  -29.7062   16.8994  -36.8639 H   0  0  0  0  0  0  0  0  0  0  0  0
  -29.9156   15.8755  -35.6092 H   0  0  0  0  0  0  0  0  0  0  0  0
  -32.6826   18.4996  -35.2238 H   0  0  0  0  0  0  0  0  0  0  0  0
  -31.7222   19.3315  -36.2496 H   0  0  0  0  0  0  0  0  0  0  0  0
  -26.2230   21.3768  -33.2332 H   0  0  0  0  0  0  0  0  0  0  0  0
  -29.9527   22.7333  -34.8528 H   0  0  0  0  0  0  0  0  0  0  0  0
  -30.9774   17.4234  -34.3504 H   0  0  0  0  0  0  0  0  0  0  0  0
  -32.1530   15.7006  -36.0006 H   0  0  0  0  0  0  0  0  0  0  0  0
  1 13  1  0  0  0  0
  1 14  1  0  0  0  0
  2  3  1  0  0  0  0
  2 13  2  0  0  0  0
  3 14  2  0  0  0  0
  4  6  2  0  0  0  0
  4  7  1  0  0  0  0
  5  8  1  0  0  0  0
  5  9  1  0  0  0  0
  6 11  1  0  0  0  0
  7 12  2  0  0  0  0
  8 10  1  0  0  0  0
  9 15  1  0  0  0  0
 10 15  1  0  0  0  0
 11 16  2  0  0  0  0
 12 16  1  0  0  0  0
 13 15  1  0  0  0  0
 14 16  1  0  0  0  0
  5 17  1  0  0  0  0
  6 18  1  0  0  0  0
  7 19  1  0  0  0  0
  8 20  1  0  0  0  0
  8 21  1  0  0  0  0
  9 22  1  0  0  0  0
  9 23  1  0  0  0  0
 10 24  1  0  0  0  0
 10 25  1  0  0  0  0
 11 26  1  0  0  0  0
 12 27  1  0  0  0  0
 15 28  1  0  0  0  0
  5 29  1  0  0  0  0
M  CHG  1   5   1
M  END
$$$$
DMS_A_601
prProtoss 03122516323D 1   1.00000     0.00000     0
Protoss beta proteinsplus
 10  9  0  0  0  0            999 V2000
   -9.7370   24.8520  -15.8020 S   0  0  0  0  0  0  0  0  0  0  0  0
  -10.9050   25.4970  -15.0700 O   0  0  0  0  0  0  0  0  0  0  0  0
   -9.0060   26.2030  -16.7620 C   0  0  0  0  0  0  0  0  0  0  0  0
   -8.3990   24.8150  -14.5770 C   0  0  0  0  0  0  0  0  0  0  0  0
   -8.2221   25.8587  -17.2786 H   0  0  0  0  0  0  0  0  0  0  0  0
   -9.6879   26.5688  -17.3954 H   0  0  0  0  0  0  0  0  0  0  0  0
   -8.7044   26.9273  -16.1420 H   0  0  0  0  0  0  0  0  0  0  0  0
   -7.5853   24.4005  -14.9845 H   0  0  0  0  0  0  0  0  0  0  0  0
   -8.1876   25.7481  -14.2860 H   0  0  0  0  0  0  0  0  0  0  0  0
   -8.6867   24.2760  -13.7853 H   0  0  0  0  0  0  0  0  0  0  0  0
  1  2  2  0  0  0  0
  1  3  1  0  0  0  0
  1  4  1  0  0  0  0
  3  5  1  0  0  0  0
  3  6  1  0  0  0  0
  3  7  1  0  0  0  0
  4  8  1  0  0  0  0
  4  9  1  0  0  0  0
  4 10  1  0  0  0  0
M  END
$$$$
DMS_A_901
prProtoss 03122516323D 1   1.00000     0.00000     0
Protoss beta proteinsplus
 10  9  0  0  0  0            999 V2000
  -17.7910    4.8310  -45.8880 S   0  0  0  0  0  0  0  0  0  0  0  0
  -17.2640    6.1940  -45.4980 O   0  0  0  0  0  0  0  0  0  0  0  0
  -18.7400    5.2110  -47.3610 C   0  0  0  0  0  0  0  0  0  0  0  0
  -16.5540    3.8450  -46.7260 C   0  0  0  0  0  0  0  0  0  0  0  0
  -19.1474    4.3716  -47.7208 H   0  0  0  0  0  0  0  0  0  0  0  0
  -19.4642    5.8616  -47.1323 H   0  0  0  0  0  0  0  0  0  0  0  0
  -18.1377    5.6117  -48.0514 H   0  0  0  0  0  0  0  0  0  0  0  0
  -16.9428    2.9553  -46.9652 H   0  0  0  0  0  0  0  0  0  0  0  0
  -16.2607    4.3152  -47.5584 H   0  0  0  0  0  0  0  0  0  0  0  0
  -15.7675    3.7137  -46.1226 H   0  0  0  0  0  0  0  0  0  0  0  0
  1  2  2  0  0  0  0
  1  3  1  0  0  0  0
  1  4  1  0  0  0  0
  3  5  1  0  0  0  0
  3  6  1  0  0  0  0
  3  7  1  0  0  0  0
  4  8  1  0  0  0  0
  4  9  1  0  0  0  0
  4 10  1  0  0  0  0
M  END
$$$$
DMS_A_1001
prProtoss 03122516323D 1   1.00000     0.00000     0
Protoss beta proteinsplus
 10  9  0  0  0  0            999 V2000
  -19.6820    2.3950   -3.3540 S   0  0  0  0  0  0  0  0  0  0  0  0
  -21.1250    2.5630   -2.8720 O   0  0  0  0  0  0  0  0  0  0  0  0
  -19.2150    0.6670   -3.2110 C   0  0  0  0  0  0  0  0  0  0  0  0
  -19.6480    2.5220   -5.1570 C   0  0  0  0  0  0  0  0  0  0  0  0
  -18.2727    0.5493   -3.5243 H   0  0  0  0  0  0  0  0  0  0  0  0
  -19.2869    0.3802   -2.2557 H   0  0  0  0  0  0  0  0  0  0  0  0
  -19.8254    0.1091   -3.7733 H   0  0  0  0  0  0  0  0  0  0  0  0
  -18.7083    2.4133   -5.4812 H   0  0  0  0  0  0  0  0  0  0  0  0
  -20.2220    1.8050   -5.5525 H   0  0  0  0  0  0  0  0  0  0  0  0
  -19.9949    3.4179   -5.4347 H   0  0  0  0  0  0  0  0  0  0  0  0
  1  2  2  0  0  0  0
  1  3  1  0  0  0  0
  1  4  1  0  0  0  0
  3  5  1  0  0  0  0
  3  6  1  0  0  0  0
  3  7  1  0  0  0  0
  4  8  1  0  0  0  0
  4  9  1  0  0  0  0
  4 10  1  0  0  0  0
M  END
$$$$
DMS_A_1002
prProtoss 03122516323D 1   1.00000     0.00000     0
Protoss beta proteinsplus
  8  8  0  0  0  0            999 V2000
  -14.9900  -12.2970  -25.7580 S   0  0  0  0  0  0  0  0  0  0  0  0
  -15.6680  -11.0890  -25.7580 O   0  0  0  0  0  0  0  0  0  0  0  0
  -13.9480  -12.0490  -27.1210 C   0  0  0  0  0  0  0  0  0  0  0  0
  -14.2080  -10.9550  -25.7940 C   0  0  0  0  0  0  0  0  0  0  0  0
  -13.3769  -12.8587  -27.2556 H   0  0  0  0  0  0  0  0  0  0  0  0
  -14.5011  -11.8914  -27.9391 H   0  0  0  0  0  0  0  0  0  0  0  0
  -13.3650  -11.2538  -26.9545 H   0  0  0  0  0  0  0  0  0  0  0  0
  -13.3650  -10.4178  -25.8208 H   0  0  0  0  0  0  0  0  0  0  0  0
  1  2  1  0  0  0  0
  1  3  1  0  0  0  0
  1  4  2  0  0  0  0
  2  4  1  0  0  0  0
  3  5  1  0  0  0  0
  3  6  1  0  0  0  0
  3  7  1  0  0  0  0
  4  8  1  0  0  0  0
M  END
$$$$
102_B_1
prProtoss 03122516323D 1   1.00000     0.00000     0
Protoss beta proteinsplus
 36 39  0  0  0  0            999 V2000
  -14.0460    0.8530  -18.4290 O   0  0  0  0  0  0  0  0  0  0  0  0
   -8.9400    2.5980  -17.0590 O   0  0  0  0  0  0  0  0  0  0  0  0
  -16.7970    2.9970  -20.6810 N   0  0  0  0  0  0  0  0  0  0  0  0
  -15.4000    4.9090  -20.0990 N   0  0  0  0  0  0  0  0  0  0  0  0
   -9.0580    4.4720  -18.4550 N   0  0  0  0  0  0  0  0  0  0  0  0
  -12.2880    1.9450  -19.2040 N   0  0  0  0  0  0  0  0  0  0  0  0
  -16.5790    4.3750  -20.6190 C   0  0  0  0  0  0  0  0  0  0  0  0
  -15.8070    2.2080  -20.1790 C   0  0  0  0  0  0  0  0  0  0  0  0
  -14.4310    4.0460  -19.6280 C   0  0  0  0  0  0  0  0  0  0  0  0
  -11.4860    0.9160  -18.5370 C   0  0  0  0  0  0  0  0  0  0  0  0
  -11.4650    2.9040  -19.9810 C   0  0  0  0  0  0  0  0  0  0  0  0
   -7.3450    5.0520  -14.8250 C   0  0  0  0  0  0  0  0  0  0  0  0
   -7.4150    6.1350  -15.6490 C   0  0  0  0  0  0  0  0  0  0  0  0
  -10.1560    0.9390  -19.2030 C   0  0  0  0  0  0  0  0  0  0  0  0
   -7.8150    3.8480  -15.2350 C   0  0  0  0  0  0  0  0  0  0  0  0
   -7.9680    6.0230  -16.8910 C   0  0  0  0  0  0  0  0  0  0  0  0
  -13.6300    1.7840  -19.1250 C   0  0  0  0  0  0  0  0  0  0  0  0
   -9.3710    3.1520  -18.4130 C   0  0  0  0  0  0  0  0  0  0  0  0
   -8.3730    3.7500  -16.4630 C   0  0  0  0  0  0  0  0  0  0  0  0
   -8.4560    4.8260  -17.2660 C   0  0  0  0  0  0  0  0  0  0  0  0
  -14.6330    2.7000  -19.7120 C   0  0  0  0  0  0  0  0  0  0  0  0
  -10.0350    2.4230  -19.5350 C   0  0  2  0  0  0  0  0  0  0  0  0
  -17.2870    4.9954  -20.9564 H   0  0  0  0  0  0  0  0  0  0  0  0
  -15.9528    1.2190  -20.1536 H   0  0  0  0  0  0  0  0  0  0  0  0
  -13.5876    4.4050  -19.2284 H   0  0  0  0  0  0  0  0  0  0  0  0
  -11.9132    0.0183  -18.6445 H   0  0  0  0  0  0  0  0  0  0  0  0
  -11.3912    1.1256  -17.5638 H   0  0  0  0  0  0  0  0  0  0  0  0
  -11.6417    3.8514  -19.7141 H   0  0  0  0  0  0  0  0  0  0  0  0
  -11.6035    2.8040  -20.9663 H   0  0  0  0  0  0  0  0  0  0  0  0
   -6.9450    5.1456  -13.9133 H   0  0  0  0  0  0  0  0  0  0  0  0
   -7.0588    7.0173  -15.3414 H   0  0  0  0  0  0  0  0  0  0  0  0
  -10.1469    0.3744  -20.0283 H   0  0  0  0  0  0  0  0  0  0  0  0
   -9.4290    0.6386  -18.5856 H   0  0  0  0  0  0  0  0  0  0  0  0
   -7.7502    3.0469  -14.6400 H   0  0  0  0  0  0  0  0  0  0  0  0
   -8.0097    6.8098  -17.5068 H   0  0  0  0  0  0  0  0  0  0  0  0
   -9.4360    2.4993  -20.3321 H   0  0  0  0  0  0  0  0  0  0  0  0
  1 17  2  0  0  0  0
  2 18  1  0  0  0  0
  2 19  1  0  0  0  0
  3  7  2  0  0  0  0
  3  8  1  0  0  0  0
  4  7  1  0  0  0  0
  4  9  2  0  0  0  0
  5 18  2  0  0  0  0
  5 20  1  0  0  0  0
  6 10  1  0  0  0  0
  6 11  1  0  0  0  0
  6 17  1  0  0  0  0
  8 21  2  0  0  0  0
  9 21  1  0  0  0  0
 10 14  1  0  0  0  0
 11 22  1  0  0  0  0
 12 13  2  0  0  0  0
 12 15  1  0  0  0  0
 13 16  1  0  0  0  0
 14 22  1  0  0  0  0
 15 19  2  0  0  0  0
 16 20  2  0  0  0  0
 17 21  1  0  0  0  0
 18 22  1  0  0  0  0
 19 20  1  0  0  0  0
  7 23  1  0  0  0  0
  8 24  1  0  0  0  0
  9 25  1  0  0  0  0
 10 26  1  0  0  0  0
 10 27  1  0  0  0  0
 11 28  1  0  0  0  0
 11 29  1  0  0  0  0
 12 30  1  0  0  0  0
 13 31  1  0  0  0  0
 14 32  1  0  0  0  0
 14 33  1  0  0  0  0
 15 34  1  0  0  0  0
 16 35  1  0  0  0  0
 22 36  1  0  0  0  0
M  END
$$$$
134_B_6
prProtoss 03122516333D 1   1.00000     0.00000     0
Protoss beta proteinsplus
 28 30  0  0  0  0            999 V2000
   -8.0170    3.3640  -20.7570 N   0  3  0  0  0  0  0  0  0  0  0  0
  -12.1750    2.4470  -19.5860 N   0  0  0  0  0  0  0  0  0  0  0  0
  -12.3970    4.7030  -19.5820 N   0  0  0  0  0  0  0  0  0  0  0  0
   -7.7430    3.2780  -19.3110 C   0  0  0  0  0  0  0  0  0  0  0  0
  -15.8600    2.5390  -19.9430 C   0  0  0  0  0  0  0  0  0  0  0  0
  -15.9680    3.9440  -19.9630 C   0  0  0  0  0  0  0  0  0  0  0  0
   -9.4820    3.5220  -20.8810 C   0  0  0  0  0  0  0  0  0  0  0  0
   -9.0770    3.0060  -18.6350 C   0  0  0  0  0  0  0  0  0  0  0  0
  -14.6320    1.9260  -19.7940 C   0  0  0  0  0  0  0  0  0  0  0  0
  -14.8660    4.7500  -19.8420 C   0  0  0  0  0  0  0  0  0  0  0  0
  -11.4550    3.6350  -19.4850 C   0  0  0  0  0  0  0  0  0  0  0  0
  -13.5280    2.7430  -19.6900 C   0  0  0  0  0  0  0  0  0  0  0  0
  -13.6820    4.1060  -19.7000 C   0  0  0  0  0  0  0  0  0  0  0  0
   -9.9950    3.8640  -19.4520 C   0  0  2  0  0  0  0  0  0  0  0  0
   -7.7165    2.5293  -21.2186 H   0  0  0  0  0  0  0  0  0  0  0  0
  -11.7808    1.5280  -19.5840 H   0  0  0  0  0  0  0  0  0  0  0  0
   -7.3574    4.1395  -18.9805 H   0  0  0  0  0  0  0  0  0  0  0  0
   -7.1027    2.5329  -19.1243 H   0  0  0  0  0  0  0  0  0  0  0  0
  -16.6831    1.9791  -20.0379 H   0  0  0  0  0  0  0  0  0  0  0  0
  -16.8700    4.3628  -20.0680 H   0  0  0  0  0  0  0  0  0  0  0  0
   -9.8975    2.6724  -21.2059 H   0  0  0  0  0  0  0  0  0  0  0  0
   -9.6996    4.2635  -21.5157 H   0  0  0  0  0  0  0  0  0  0  0  0
   -9.0668    3.2893  -17.6760 H   0  0  0  0  0  0  0  0  0  0  0  0
   -9.3281    2.0399  -18.6945 H   0  0  0  0  0  0  0  0  0  0  0  0
  -14.5475    0.9301  -19.7629 H   0  0  0  0  0  0  0  0  0  0  0  0
  -14.9313    5.7477  -19.8575 H   0  0  0  0  0  0  0  0  0  0  0  0
   -9.8135    4.8274  -19.2549 H   0  0  0  0  0  0  0  0  0  0  0  0
   -7.5469    4.1522  -21.1542 H   0  0  0  0  0  0  0  0  0  0  0  0
  1  4  1  0  0  0  0
  1  7  1  0  0  0  0
  2 11  1  0  0  0  0
  2 12  1  0  0  0  0
  3 11  2  0  0  0  0
  3 13  1  0  0  0  0
  4  8  1  0  0  0  0
  5  6  2  0  0  0  0
  5  9  1  0  0  0  0
  6 10  1  0  0  0  0
  7 14  1  0  0  0  0
  8 14  1  0  0  0  0
  9 12  2  0  0  0  0
 10 13  2  0  0  0  0
 11 14  1  0  0  0  0
 12 13  1  0  0  0  0
  1 15  1  0  0  0  0
  2 16  1  0  0  0  0
  4 17  1  0  0  0  0
  4 18  1  0  0  0  0
  5 19  1  0  0  0  0
  6 20  1  0  0  0  0
  7 21  1  0  0  0  0
  7 22  1  0  0  0  0
  8 23  1  0  0  0  0
  8 24  1  0  0  0  0
  9 25  1  0  0  0  0
 10 26  1  0  0  0  0
 14 27  1  0  0  0  0
  1 28  1  0  0  0  0
M  CHG  1   1   1
M  END
$$$$
134_B_7
prProtoss 03122516333D 1   1.00000     0.00000     0
Protoss beta proteinsplus
 28 30  0  0  0  0            999 V2000
  -22.0020    4.1740    0.0040 N   0  3  0  0  0  0  0  0  0  0  0  0
  -19.2350    2.6110   -2.9080 N   0  0  0  0  0  0  0  0  0  0  0  0
  -20.9220    2.9500   -4.4390 N   0  0  0  0  0  0  0  0  0  0  0  0
  -22.3020    2.7390    0.2250 C   0  0  0  0  0  0  0  0  0  0  0  0
  -17.2070    2.2960   -5.9650 C   0  0  0  0  0  0  0  0  0  0  0  0
  -18.1980    2.4900   -6.8780 C   0  0  0  0  0  0  0  0  0  0  0  0
  -21.3110    4.3630   -1.2770 C   0  0  0  0  0  0  0  0  0  0  0  0
  -21.6930    1.9830   -0.9380 C   0  0  0  0  0  0  0  0  0  0  0  0
  -17.4610    2.3160   -4.6150 C   0  0  0  0  0  0  0  0  0  0  0  0
  -19.4900    2.7280   -6.4940 C   0  0  0  0  0  0  0  0  0  0  0  0
  -20.5840    2.8530   -3.0520 C   0  0  0  0  0  0  0  0  0  0  0  0
  -18.7330    2.5390   -4.2090 C   0  0  0  0  0  0  0  0  0  0  0  0
  -19.7140    2.7540   -5.1530 C   0  0  0  0  0  0  0  0  0  0  0  0
  -21.6150    3.0580   -2.0230 C   0  0  2  0  0  0  0  0  0  0  0  0
  -21.4183    4.5061    0.7450 H   0  0  0  0  0  0  0  0  0  0  0  0
  -23.2910    2.5936    0.2506 H   0  0  0  0  0  0  0  0  0  0  0  0
  -21.8974    2.4309    1.0861 H   0  0  0  0  0  0  0  0  0  0  0  0
  -16.2730    2.1353   -6.2842 H   0  0  0  0  0  0  0  0  0  0  0  0
  -17.9767    2.4578   -7.8527 H   0  0  0  0  0  0  0  0  0  0  0  0
  -20.3271    4.4797   -1.1417 H   0  0  0  0  0  0  0  0  0  0  0  0
  -21.6757    5.1530   -1.7699 H   0  0  0  0  0  0  0  0  0  0  0  0
  -22.2784    1.2237   -1.2223 H   0  0  0  0  0  0  0  0  0  0  0  0
  -20.7843    1.6351   -0.7073 H   0  0  0  0  0  0  0  0  0  0  0  0
  -16.7273    2.1700   -3.9513 H   0  0  0  0  0  0  0  0  0  0  0  0
  -20.2234    2.8737   -7.1581 H   0  0  0  0  0  0  0  0  0  0  0  0
  -22.5073    3.1373   -2.4674 H   0  0  0  0  0  0  0  0  0  0  0  0
  -22.8575    4.6917   -0.0040 H   0  0  0  0  0  0  0  0  0  0  0  0
  -21.8279    3.1215   -4.8262 H   0  0  0  0  0  0  0  0  0  0  0  0
  1  4  1  0  0  0  0
  1  7  1  0  0  0  0
  2 11  2  0  0  0  0
  2 12  1  0  0  0  0
  3 11  1  0  0  0  0
  3 13  1  0  0  0  0
  4  8  1  0  0  0  0
  5  6  2  0  0  0  0
  5  9  1  0  0  0  0
  6 10  1  0  0  0  0
  7 14  1  0  0  0  0
  8 14  1  0  0  0  0
  9 12  2  0  0  0  0
 10 13  2  0  0  0  0
 11 14  1  0  0  0  0
 12 13  1  0  0  0  0
  1 15  1  0  0  0  0
  1 27  1  0  0  0  0
  4 16  1  0  0  0  0
  4 17  1  0  0  0  0
  5 18  1  0  0  0  0
  6 19  1  0  0  0  0
  7 20  1  0  0  0  0
  7 21  1  0  0  0  0
  8 22  1  0  0  0  0
  8 23  1  0  0  0  0
  9 24  1  0  0  0  0
 10 25  1  0  0  0  0
 14 26  1  0  0  0  0
  3 28  1  0  0  0  0
M  CHG  1   1   1
M  END
$$$$
134_B_8
prProtoss 03122516333D 1   1.00000     0.00000     0
Protoss beta proteinsplus
 28 30  0  0  0  0            999 V2000
   -6.3320    6.5980    6.3680 N   0  3  0  0  0  0  0  0  0  0  0  0
   -8.9210    3.1370    6.2050 N   0  0  0  0  0  0  0  0  0  0  0  0
   -9.9720    4.0350    4.4060 N   0  0  0  0  0  0  0  0  0  0  0  0
   -7.3380    6.9560    7.3910 C   0  0  0  0  0  0  0  0  0  0  0  0
  -11.0380    0.1960    5.4000 C   0  0  0  0  0  0  0  0  0  0  0  0
  -11.6580    0.7150    4.2860 C   0  0  0  0  0  0  0  0  0  0  0  0
   -6.7870    5.2800    5.8600 C   0  0  0  0  0  0  0  0  0  0  0  0
   -8.6390    6.3200    6.8780 C   0  0  0  0  0  0  0  0  0  0  0  0
  -10.1030    0.9270    6.1200 C   0  0  0  0  0  0  0  0  0  0  0  0
  -11.3550    1.9930    3.8790 C   0  0  0  0  0  0  0  0  0  0  0  0
   -8.9960    4.2720    5.4250 C   0  0  0  0  0  0  0  0  0  0  0  0
   -9.8130    2.1950    5.6910 C   0  0  0  0  0  0  0  0  0  0  0  0
  -10.4480    2.6990    4.5910 C   0  0  0  0  0  0  0  0  0  0  0  0
   -8.2580    5.5390    5.6050 C   0  0  2  0  0  0  0  0  0  0  0  0
   -5.4214    6.5266    6.7751 H   0  0  0  0  0  0  0  0  0  0  0  0
   -8.3295    3.0109    7.0014 H   0  0  0  0  0  0  0  0  0  0  0  0
   -7.4329    7.9489    7.4631 H   0  0  0  0  0  0  0  0  0  0  0  0
   -7.0867    6.5796    8.2827 H   0  0  0  0  0  0  0  0  0  0  0  0
  -11.2668   -0.7307    5.6980 H   0  0  0  0  0  0  0  0  0  0  0  0
  -12.3226    0.1677    3.7774 H   0  0  0  0  0  0  0  0  0  0  0  0
   -6.6566    4.5614    6.5431 H   0  0  0  0  0  0  0  0  0  0  0  0
   -6.3097    5.0297    5.0177 H   0  0  0  0  0  0  0  0  0  0  0  0
   -9.3107    7.0288    6.6626 H   0  0  0  0  0  0  0  0  0  0  0  0
   -9.0173    5.7002    7.5656 H   0  0  0  0  0  0  0  0  0  0  0  0
   -9.6554    0.5401    6.9262 H   0  0  0  0  0  0  0  0  0  0  0  0
  -11.7956    2.3913    3.0745 H   0  0  0  0  0  0  0  0  0  0  0  0
   -8.3702    6.1198    4.7987 H   0  0  0  0  0  0  0  0  0  0  0  0
   -6.3163    7.2758    5.6329 H   0  0  0  0  0  0  0  0  0  0  0  0
  1  4  1  0  0  0  0
  1  7  1  0  0  0  0
  2 11  1  0  0  0  0
  2 12  1  0  0  0  0
  3 11  2  0  0  0  0
  3 13  1  0  0  0  0
  4  8  1  0  0  0  0
  5  6  2  0  0  0  0
  5  9  1  0  0  0  0
  6 10  1  0  0  0  0
  7 14  1  0  0  0  0
  8 14  1  0  0  0  0
  9 12  2  0  0  0  0
 10 13  2  0  0  0  0
 11 14  1  0  0  0  0
 12 13  1  0  0  0  0
  1 15  1  0  0  0  0
  2 16  1  0  0  0  0
  4 17  1  0  0  0  0
  4 18  1  0  0  0  0
  5 19  1  0  0  0  0
  6 20  1  0  0  0  0
  7 21  1  0  0  0  0
  7 22  1  0  0  0  0
  8 23  1  0  0  0  0
  8 24  1  0  0  0  0
  9 25  1  0  0  0  0
 10 26  1  0  0  0  0
 14 27  1  0  0  0  0
  1 28  1  0  0  0  0
M  CHG  1   1   1
M  END
$$$$
134_B_9
prProtoss 03122516333D 1   1.00000     0.00000     0
Protoss beta proteinsplus
 27 29  0  0  0  0            999 V2000
  -21.1080    9.1760  -26.9760 N   0  0  0  0  0  0  0  0  0  0  0  0
  -24.0410   11.1500  -29.4890 N   0  0  0  0  0  0  0  0  0  0  0  0
  -23.0450   12.8420  -28.2650 N   0  0  0  0  0  0  0  0  0  0  0  0
  -22.0650    8.3760  -27.7730 C   0  0  0  0  0  0  0  0  0  0  0  0
  -24.6150   13.8350  -31.8810 C   0  0  0  0  0  0  0  0  0  0  0  0
  -24.0430   14.8480  -31.1870 C   0  0  0  0  0  0  0  0  0  0  0  0
  -21.5540   10.5580  -26.9660 C   0  0  0  0  0  0  0  0  0  0  0  0
  -23.3980    9.0080  -27.5060 C   0  0  0  0  0  0  0  0  0  0  0  0
  -24.6570   12.5760  -31.3780 C   0  0  0  0  0  0  0  0  0  0  0  0
  -23.4470   14.6190  -29.9820 C   0  0  0  0  0  0  0  0  0  0  0  0
  -23.3870   11.4300  -28.3010 C   0  0  0  0  0  0  0  0  0  0  0  0
  -24.1120   12.3460  -30.1840 C   0  0  0  0  0  0  0  0  0  0  0  0
  -23.5310   13.3600  -29.4940 C   0  0  0  0  0  0  0  0  0  0  0  0
  -23.0660   10.4800  -27.2060 C   0  0  2  0  0  0  0  0  0  0  0  0
  -24.3919   10.2619  -29.7858 H   0  0  0  0  0  0  0  0  0  0  0  0
  -22.0608    7.4212  -27.4758 H   0  0  0  0  0  0  0  0  0  0  0  0
  -21.8403    8.4231  -28.7463 H   0  0  0  0  0  0  0  0  0  0  0  0
  -25.0132   14.0186  -32.7797 H   0  0  0  0  0  0  0  0  0  0  0  0
  -24.0580   15.7746  -31.5627 H   0  0  0  0  0  0  0  0  0  0  0  0
  -21.1076   11.0780  -27.6942 H   0  0  0  0  0  0  0  0  0  0  0  0
  -21.3585   10.9854  -26.0833 H   0  0  0  0  0  0  0  0  0  0  0  0
  -23.8433    8.5779  -26.7207 H   0  0  0  0  0  0  0  0  0  0  0  0
  -23.9919    8.9348  -28.3072 H   0  0  0  0  0  0  0  0  0  0  0  0
  -25.0884   11.8352  -31.8929 H   0  0  0  0  0  0  0  0  0  0  0  0
  -22.9720   15.3448  -29.4844 H   0  0  0  0  0  0  0  0  0  0  0  0
  -23.5455   10.7622  -26.3751 H   0  0  0  0  0  0  0  0  0  0  0  0
  -21.0744    8.8262  -26.0398 H   0  0  0  0  0  0  0  0  0  0  0  0
  1  4  1  0  0  0  0
  1  7  1  0  0  0  0
  2 11  1  0  0  0  0
  2 12  1  0  0  0  0
  3 11  2  0  0  0  0
  3 13  1  0  0  0  0
  4  8  1  0  0  0  0
  5  6  2  0  0  0  0
  5  9  1  0  0  0  0
  6 10  1  0  0  0  0
  7 14  1  0  0  0  0
  8 14  1  0  0  0  0
  9 12  2  0  0  0  0
 10 13  2  0  0  0  0
 11 14  1  0  0  0  0
 12 13  1  0  0  0  0
  1 27  1  0  0  0  0
  2 15  1  0  0  0  0
  4 16  1  0  0  0  0
  4 17  1  0  0  0  0
  5 18  1  0  0  0  0
  6 19  1  0  0  0  0
  7 20  1  0  0  0  0
  7 21  1  0  0  0  0
  8 22  1  0  0  0  0
  8 23  1  0  0  0  0
  9 24  1  0  0  0  0
 10 25  1  0  0  0  0
 14 26  1  0  0  0  0
M  END
$$$$
DMS_D_2
prProtoss 03122516333D 1   1.00000     0.00000     0
Protoss beta proteinsplus
 10  9  0  0  0  0            999 V2000
   -3.5030   24.9720  -30.0950 S   0  0  0  0  0  0  0  0  0  0  0  0
   -3.0460   24.4050  -31.4040 O   0  0  0  0  0  0  0  0  0  0  0  0
   -3.8210   26.7020  -30.5310 C   0  0  0  0  0  0  0  0  0  0  0  0
   -5.2320   24.4710  -29.8280 C   0  0  0  0  0  0  0  0  0  0  0  0
   -4.1388   27.1966  -29.7221 H   0  0  0  0  0  0  0  0  0  0  0  0
   -2.9780   27.1211  -30.8682 H   0  0  0  0  0  0  0  0  0  0  0  0
   -4.5217   26.7429  -31.2433 H   0  0  0  0  0  0  0  0  0  0  0  0
   -5.5555   24.8409  -28.9571 H   0  0  0  0  0  0  0  0  0  0  0  0
   -5.7999   24.8239  -30.5716 H   0  0  0  0  0  0  0  0  0  0  0  0
   -5.2906   23.4729  -29.8086 H   0  0  0  0  0  0  0  0  0  0  0  0
  1  2  2  0  0  0  0
  1  3  1  0  0  0  0
  1  4  1  0  0  0  0
  3  5  1  0  0  0  0
  3  6  1  0  0  0  0
  3  7  1  0  0  0  0
  4  8  1  0  0  0  0
  4  9  1  0  0  0  0
  4 10  1  0  0  0  0
M  END
$$$$
DMS_D_4
prProtoss 03122516333D 1   1.00000     0.00000     0
Protoss beta proteinsplus
 10  9  0  0  0  0            999 V2000
   -8.9680   24.4430  -15.7750 S   0  0  0  0  0  0  0  0  0  0  0  0
   -9.8960   25.3220  -14.9410 O   0  0  0  0  0  0  0  0  0  0  0  0
   -8.1780   25.6190  -16.8850 C   0  0  0  0  0  0  0  0  0  0  0  0
   -7.5220   24.1450  -14.7420 C   0  0  0  0  0  0  0  0  0  0  0  0
   -7.5397   25.1352  -17.4838 H   0  0  0  0  0  0  0  0  0  0  0  0
   -8.8749   26.0743  -17.4391 H   0  0  0  0  0  0  0  0  0  0  0  0
   -7.6804   26.3009  -16.3489 H   0  0  0  0  0  0  0  0  0  0  0  0
   -6.8712   23.5697  -15.2375 H   0  0  0  0  0  0  0  0  0  0  0  0
   -7.0895   25.0174  -14.5143 H   0  0  0  0  0  0  0  0  0  0  0  0
   -7.8027   23.6825  -13.9010 H   0  0  0  0  0  0  0  0  0  0  0  0
  1  2  2  0  0  0  0
  1  3  1  0  0  0  0
  1  4  1  0  0  0  0
  3  5  1  0  0  0  0
  3  6  1  0  0  0  0
  3  7  1  0  0  0  0
  4  8  1  0  0  0  0
  4  9  1  0  0  0  0
  4 10  1  0  0  0  0
M  END
$$$$
DMS_D_6
prProtoss 03122516333D 1   1.00000     0.00000     0
Protoss beta proteinsplus
 10  9  0  0  0  0            999 V2000
  -17.3540    4.9020  -45.5950 S   0  0  0  0  0  0  0  0  0  0  0  0
  -16.7170    6.1880  -45.1600 O   0  0  0  0  0  0  0  0  0  0  0  0
  -18.4900    5.2010  -46.9650 C   0  0  0  0  0  0  0  0  0  0  0  0
  -16.1150    3.9470  -46.4580 C   0  0  0  0  0  0  0  0  0  0  0  0
  -18.9081    4.3371  -47.2460 H   0  0  0  0  0  0  0  0  0  0  0  0
  -19.2040    5.8375  -46.6732 H   0  0  0  0  0  0  0  0  0  0  0  0
  -17.9874    5.5941  -47.7350 H   0  0  0  0  0  0  0  0  0  0  0  0
  -16.5128    3.0809  -46.7608 H   0  0  0  0  0  0  0  0  0  0  0  0
  -15.7915    4.4610  -47.2524 H   0  0  0  0  0  0  0  0  0  0  0  0
  -15.3472    3.7645  -45.8438 H   0  0  0  0  0  0  0  0  0  0  0  0
  1  2  2  0  0  0  0
  1  3  1  0  0  0  0
  1  4  1  0  0  0  0
  3  5  1  0  0  0  0
  3  6  1  0  0  0  0
  3  7  1  0  0  0  0
  4  8  1  0  0  0  0
  4  9  1  0  0  0  0
  4 10  1  0  0  0  0
M  END
$$$$
DMS_D_8
prProtoss 03122516333D 1   1.00000     0.00000     0
Protoss beta proteinsplus
 10  9  0  0  0  0            999 V2000
  -29.2800   11.4120   -9.1790 S   0  0  0  0  0  0  0  0  0  0  0  0
  -28.2120   10.3740   -8.9150 O   0  0  0  0  0  0  0  0  0  0  0  0
  -28.4390   12.8840   -9.7690 C   0  0  0  0  0  0  0  0  0  0  0  0
  -30.1110   10.9890  -10.7270 C   0  0  0  0  0  0  0  0  0  0  0  0
  -29.1118   13.5996   -9.9568 H   0  0  0  0  0  0  0  0  0  0  0  0
  -27.7980   13.2039   -9.0713 H   0  0  0  0  0  0  0  0  0  0  0  0
  -27.9387   12.6685  -10.6076 H   0  0  0  0  0  0  0  0  0  0  0  0
  -30.8222   11.6652  -10.9191 H   0  0  0  0  0  0  0  0  0  0  0  0
  -29.4447   10.9849  -11.4727 H   0  0  0  0  0  0  0  0  0  0  0  0
  -30.5259   10.0828  -10.6458 H   0  0  0  0  0  0  0  0  0  0  0  0
  1  2  2  0  0  0  0
  1  3  1  0  0  0  0
  1  4  1  0  0  0  0
  3  5  1  0  0  0  0
  3  6  1  0  0  0  0
  3  7  1  0  0  0  0
  4  8  1  0  0  0  0
  4  9  1  0  0  0  0
  4 10  1  0  0  0  0
M  END
$$$$
DMS_D_10
prProtoss 03122516333D 1   1.00000     0.00000     0
Protoss beta proteinsplus
 10  9  0  0  0  0            999 V2000
  -26.5210   15.7830   -5.9270 S   0  0  0  0  0  0  0  0  0  0  0  0
  -27.4210   14.6260   -5.5730 O   0  0  0  0  0  0  0  0  0  0  0  0
  -27.6030   17.1480   -6.3970 C   0  0  0  0  0  0  0  0  0  0  0  0
  -26.1080   16.5540   -4.3420 C   0  0  0  0  0  0  0  0  0  0  0  0
  -27.0488   17.9435   -6.6420 H   0  0  0  0  0  0  0  0  0  0  0  0
  -28.1610   16.8763   -7.1811 H   0  0  0  0  0  0  0  0  0  0  0  0
  -28.1989   17.3808   -5.6285 H   0  0  0  0  0  0  0  0  0  0  0  0
  -25.5069   17.3376   -4.4991 H   0  0  0  0  0  0  0  0  0  0  0  0
  -26.9466   16.8619   -3.8926 H   0  0  0  0  0  0  0  0  0  0  0  0
  -25.6424   15.8884   -3.7588 H   0  0  0  0  0  0  0  0  0  0  0  0
  1  2  2  0  0  0  0
  1  3  1  0  0  0  0
  1  4  1  0  0  0  0
  3  5  1  0  0  0  0
  3  6  1  0  0  0  0
  3  7  1  0  0  0  0
  4  8  1  0  0  0  0
  4  9  1  0  0  0  0
  4 10  1  0  0  0  0
M  END
$$$$
DMS_D_11
prProtoss 03122516333D 1   1.00000     0.00000     0
Protoss beta proteinsplus
 10  9  0  0  0  0            999 V2000
    6.4830   11.1150  -19.6340 S   0  0  0  0  0  0  0  0  0  0  0  0
    5.9140   11.7340  -20.8950 O   0  0  0  0  0  0  0  0  0  0  0  0
    5.9840   12.1320  -18.2310 C   0  0  0  0  0  0  0  0  0  0  0  0
    5.4480    9.6600  -19.3550 C   0  0  0  0  0  0  0  0  0  0  0  0
    6.3505   11.7392  -17.3875 H   0  0  0  0  0  0  0  0  0  0  0  0
    6.3390   13.0594  -18.3486 H   0  0  0  0  0  0  0  0  0  0  0  0
    4.9858   12.1613  -18.1788 H   0  0  0  0  0  0  0  0  0  0  0  0
    5.7567    9.1843  -18.5314 H   0  0  0  0  0  0  0  0  0  0  0  0
    4.4966    9.9451  -19.2384 H   0  0  0  0  0  0  0  0  0  0  0  0
    5.5179    9.0455  -20.1408 H   0  0  0  0  0  0  0  0  0  0  0  0
  1  2  2  0  0  0  0
  1  3  1  0  0  0  0
  1  4  1  0  0  0  0
  3  5  1  0  0  0  0
  3  6  1  0  0  0  0
  3  7  1  0  0  0  0
  4  8  1  0  0  0  0
  4  9  1  0  0  0  0
  4 10  1  0  0  0  0
M  END
$$$$
DMS_D_12
prProtoss 03122516333D 1   1.00000     0.00000     0
Protoss beta proteinsplus
 10  9  0  0  0  0            999 V2000
   11.9420   13.9060  -22.6040 S   0  0  0  0  0  0  0  0  0  0  0  0
   12.0130   13.1600  -21.3010 O   0  0  0  0  0  0  0  0  0  0  0  0
   11.9910   15.6750  -22.2470 C   0  0  0  0  0  0  0  0  0  0  0  0
   13.6330   13.7950  -23.2380 C   0  0  0  0  0  0  0  0  0  0  0  0
   11.9447   16.1893  -23.1034 H   0  0  0  0  0  0  0  0  0  0  0  0
   11.2129   15.9200  -21.6686 H   0  0  0  0  0  0  0  0  0  0  0  0
   12.8425   15.8956  -21.7713 H   0  0  0  0  0  0  0  0  0  0  0  0
   13.6913   14.2689  -24.1167 H   0  0  0  0  0  0  0  0  0  0  0  0
   14.2616   14.2208  -22.5872 H   0  0  0  0  0  0  0  0  0  0  0  0
   13.8806   12.8339  -23.3605 H   0  0  0  0  0  0  0  0  0  0  0  0
  1  2  2  0  0  0  0
  1  3  1  0  0  0  0
  1  4  1  0  0  0  0
  3  5  1  0  0  0  0
  3  6  1  0  0  0  0
  3  7  1  0  0  0  0
  4  8  1  0  0  0  0
  4  9  1  0  0  0  0
  4 10  1  0  0  0  0
M  END
$$$$
138_B_1
prProtoss 03122516333D 1   1.00000     0.00000     0
Protoss beta proteinsplus
 34 36  0  0  0  0            999 V2000
  -16.8550    2.9980  -20.1640 O   0  0  0  0  0  0  0  0  0  0  0  0
  -15.9320    5.0820  -19.9920 O   0  0  0  0  0  0  0  0  0  0  0  0
   -7.1740    4.6510  -20.0420 N   0  3  0  0  0  0  0  0  0  0  0  0
  -10.7370    2.0380  -18.7310 N   0  0  0  0  0  0  0  0  0  0  0  0
  -11.0500    4.3000  -19.0450 N   0  0  0  0  0  0  0  0  0  0  0  0
  -17.1380    5.6690  -20.4430 C   0  0  0  0  0  0  0  0  0  0  0  0
   -7.5410    3.3310  -20.5510 C   0  0  0  0  0  0  0  0  0  0  0  0
   -8.2230    4.9650  -19.0700 C   0  0  0  0  0  0  0  0  0  0  0  0
   -7.7860    2.5880  -19.2530 C   0  0  0  0  0  0  0  0  0  0  0  0
  -13.1080    1.4290  -19.0550 C   0  0  0  0  0  0  0  0  0  0  0  0
  -14.3390    1.9200  -19.3310 C   0  0  0  0  0  0  0  0  0  0  0  0
  -13.4760    4.1500  -19.4390 C   0  0  0  0  0  0  0  0  0  0  0  0
  -15.9020    3.7270  -19.8880 C   0  0  0  0  0  0  0  0  0  0  0  0
  -10.1090    3.3360  -18.7630 C   0  0  0  0  0  0  0  0  0  0  0  0
  -12.0990    2.3070  -18.9860 C   0  0  0  0  0  0  0  0  0  0  0  0
  -12.2630    3.6400  -19.1730 C   0  0  0  0  0  0  0  0  0  0  0  0
   -8.6650    3.6010  -18.5230 C   0  0  2  0  0  0  0  0  0  0  0  0
  -14.5270    3.2740  -19.5220 C   0  0  0  0  0  0  0  0  0  0  0  0
   -7.1614    5.3251  -20.7806 H   0  0  0  0  0  0  0  0  0  0  0  0
  -17.0330    6.6629  -20.4761 H   0  0  0  0  0  0  0  0  0  0  0  0
  -17.3542    5.3261  -21.3571 H   0  0  0  0  0  0  0  0  0  0  0  0
  -17.8791    5.4328  -19.8145 H   0  0  0  0  0  0  0  0  0  0  0  0
   -6.7969    2.9188  -21.0768 H   0  0  0  0  0  0  0  0  0  0  0  0
   -8.3660    3.3697  -21.1148 H   0  0  0  0  0  0  0  0  0  0  0  0
   -8.9877    5.4318  -19.5143 H   0  0  0  0  0  0  0  0  0  0  0  0
   -7.8629    5.5401  -18.3354 H   0  0  0  0  0  0  0  0  0  0  0  0
   -6.9339    2.4137  -18.7596 H   0  0  0  0  0  0  0  0  0  0  0  0
   -8.2655    1.7239  -19.4058 H   0  0  0  0  0  0  0  0  0  0  0  0
  -12.9582    0.4512  -18.9087 H   0  0  0  0  0  0  0  0  0  0  0  0
  -15.1183    1.2968  -19.3970 H   0  0  0  0  0  0  0  0  0  0  0  0
  -13.6079    5.1323  -19.5716 H   0  0  0  0  0  0  0  0  0  0  0  0
   -8.4772    3.5589  -17.5417 H   0  0  0  0  0  0  0  0  0  0  0  0
   -6.2774    4.6241  -19.6000 H   0  0  0  0  0  0  0  0  0  0  0  0
  -10.3062    1.1508  -18.5660 H   0  0  0  0  0  0  0  0  0  0  0  0
  1 13  2  0  0  0  0
  2  6  1  0  0  0  0
  2 13  1  0  0  0  0
  3  7  1  0  0  0  0
  3  8  1  0  0  0  0
  4 14  1  0  0  0  0
  4 15  1  0  0  0  0
  5 14  2  0  0  0  0
  5 16  1  0  0  0  0
  7  9  1  0  0  0  0
  8 17  1  0  0  0  0
  9 17  1  0  0  0  0
 10 11  1  0  0  0  0
 10 15  2  0  0  0  0
 11 18  2  0  0  0  0
 12 16  2  0  0  0  0
 12 18  1  0  0  0  0
 13 18  1  0  0  0  0
 14 17  1  0  0  0  0
 15 16  1  0  0  0  0
  3 19  1  0  0  0  0
  4 34  1  0  0  0  0
  6 20  1  0  0  0  0
  6 21  1  0  0  0  0
  6 22  1  0  0  0  0
  7 23  1  0  0  0  0
  7 24  1  0  0  0  0
  8 25  1  0  0  0  0
  8 26  1  0  0  0  0
  9 27  1  0  0  0  0
  9 28  1  0  0  0  0
 10 29  1  0  0  0  0
 11 30  1  0  0  0  0
 12 31  1  0  0  0  0
 17 32  1  0  0  0  0
  3 33  1  0  0  0  0
M  CHG  1   3   1
M  END
$$$$
138_B_2
prProtoss 03122516333D 1   1.00000     0.00000     0
Protoss beta proteinsplus
 30 32  0  0  0  0            999 V2000
    5.6870   -4.9050  -31.0900 O   0  0  0  0  0  0  0  0  0  0  0  0
   -0.3490    0.9710  -27.4100 N   0  3  0  0  0  0  0  0  0  0  0  0
    4.4910   -0.1720  -27.0340 N   0  0  0  0  0  0  0  0  0  0  0  0
    2.9370   -1.2580  -28.3410 N   0  0  0  0  0  0  0  0  0  0  0  0
    6.3720   -4.2740  -30.2990 C   0  0  0  0  0  0  0  0  0  0  0  0
    0.3580    2.2460  -27.2840 C   0  0  0  0  0  0  0  0  0  0  0  0
    0.6170   -0.0820  -27.0390 C   0  0  0  0  0  0  0  0  0  0  0  0
    1.7840    1.8890  -27.6610 C   0  0  0  0  0  0  0  0  0  0  0  0
    6.4100   -1.5300  -27.8250 C   0  0  0  0  0  0  0  0  0  0  0  0
    6.7710   -2.5360  -28.6520 C   0  0  0  0  0  0  0  0  0  0  0  0
    4.5410   -2.8130  -29.3850 C   0  0  0  0  0  0  0  0  0  0  0  0
    3.0900   -0.2500  -27.4060 C   0  0  0  0  0  0  0  0  0  0  0  0
    5.1180   -1.1820  -27.7990 C   0  0  0  0  0  0  0  0  0  0  0  0
    4.1890   -1.8110  -28.5570 C   0  0  0  0  0  0  0  0  0  0  0  0
    5.8500   -3.1770  -29.4270 C   0  0  0  0  0  0  0  0  0  0  0  0
    1.9850    0.5940  -26.8840 C   0  0  2  0  0  0  0  0  0  0  0  0
   -0.6589    0.8394  -28.3516 H   0  0  0  0  0  0  0  0  0  0  0  0
    7.3424   -4.5057  -30.2305 H   0  0  0  0  0  0  0  0  0  0  0  0
    0.3104    2.5915  -26.3468 H   0  0  0  0  0  0  0  0  0  0  0  0
   -0.0186    2.9285  -27.9104 H   0  0  0  0  0  0  0  0  0  0  0  0
    0.6577   -0.7780  -27.7559 H   0  0  0  0  0  0  0  0  0  0  0  0
    0.3453   -0.5079  -26.1760 H   0  0  0  0  0  0  0  0  0  0  0  0
    2.4278    2.5955  -27.3672 H   0  0  0  0  0  0  0  0  0  0  0  0
    1.8763    1.7427  -28.6459 H   0  0  0  0  0  0  0  0  0  0  0  0
    7.0840   -1.0625  -27.2531 H   0  0  0  0  0  0  0  0  0  0  0  0
    7.7302   -2.8152  -28.6964 H   0  0  0  0  0  0  0  0  0  0  0  0
    3.8596   -3.2756  -29.9522 H   0  0  0  0  0  0  0  0  0  0  0  0
    2.1489    0.8030  -25.9199 H   0  0  0  0  0  0  0  0  0  0  0  0
   -1.1364    0.9502  -26.7939 H   0  0  0  0  0  0  0  0  0  0  0  0
    4.9172    0.4556  -26.3825 H   0  0  0  0  0  0  0  0  0  0  0  0
  1  5  2  0  0  0  0
  2  6  1  0  0  0  0
  2  7  1  0  0  0  0
  3 12  1  0  0  0  0
  3 13  1  0  0  0  0
  4 12  2  0  0  0  0
  4 14  1  0  0  0  0
  5 15  1  0  0  0  0
  6  8  1  0  0  0  0
  7 16  1  0  0  0  0
  8 16  1  0  0  0  0
  9 10  1  0  0  0  0
  9 13  2  0  0  0  0
 10 15  2  0  0  0  0
 11 14  2  0  0  0  0
 11 15  1  0  0  0  0
 12 16  1  0  0  0  0
 13 14  1  0  0  0  0
  2 17  1  0  0  0  0
  3 30  1  0  0  0  0
  5 18  1  0  0  0  0
  6 19  1  0  0  0  0
  6 20  1  0  0  0  0
  7 21  1  0  0  0  0
  7 22  1  0  0  0  0
  8 23  1  0  0  0  0
  8 24  1  0  0  0  0
  9 25  1  0  0  0  0
 10 26  1  0  0  0  0
 11 27  1  0  0  0  0
 16 28  1  0  0  0  0
  2 29  1  0  0  0  0
M  CHG  1   2   1
M  END
$$$$
DMS_D_2
prProtoss 03122516333D 1   1.00000     0.00000     0
Protoss beta proteinsplus
 10  9  0  0  0  0            999 V2000
  -17.5230    4.9980  -45.2890 S   0  0  0  0  0  0  0  0  0  0  0  0
  -16.9520    6.3520  -44.9530 O   0  0  0  0  0  0  0  0  0  0  0  0
  -18.6960    5.2910  -46.6330 C   0  0  0  0  0  0  0  0  0  0  0  0
  -16.3280    4.1100  -46.2990 C   0  0  0  0  0  0  0  0  0  0  0  0
  -19.1140    4.4244  -46.9055 H   0  0  0  0  0  0  0  0  0  0  0  0
  -19.4076    5.9214  -46.3228 H   0  0  0  0  0  0  0  0  0  0  0  0
  -18.2152    5.6893  -47.4141 H   0  0  0  0  0  0  0  0  0  0  0  0
  -16.6924    3.2081  -46.5309 H   0  0  0  0  0  0  0  0  0  0  0  0
  -16.1531    4.6247  -47.1383 H   0  0  0  0  0  0  0  0  0  0  0  0
  -15.4743    4.0036  -45.7892 H   0  0  0  0  0  0  0  0  0  0  0  0
  1  2  2  0  0  0  0
  1  3  1  0  0  0  0
  1  4  1  0  0  0  0
  3  5  1  0  0  0  0
  3  6  1  0  0  0  0
  3  7  1  0  0  0  0
  4  8  1  0  0  0  0
  4  9  1  0  0  0  0
  4 10  1  0  0  0  0
M  END
$$$$
DMS_D_1
prProtoss 03122516343D 1   1.00000     0.00000     0
Protoss beta proteinsplus
 10  9  0  0  0  0            999 V2000
   -1.9420   20.7260  -16.0340 S   0  0  0  0  0  0  0  0  0  0  0  0
   -3.1290   20.5830  -16.9330 O   0  0  0  0  0  0  0  0  0  0  0  0
   -0.5680   21.3050  -17.0460 C   0  0  0  0  0  0  0  0  0  0  0  0
   -2.3610   22.1820  -15.0510 C   0  0  0  0  0  0  0  0  0  0  0  0
    0.2453   21.4119  -16.4741 H   0  0  0  0  0  0  0  0  0  0  0  0
   -0.3823   20.6390  -17.7685 H   0  0  0  0  0  0  0  0  0  0  0  0
   -0.8045   22.1854  -17.4570 H   0  0  0  0  0  0  0  0  0  0  0  0
   -1.6220   22.3716  -14.4045 H   0  0  0  0  0  0  0  0  0  0  0  0
   -2.4845   22.9685  -15.6561 H   0  0  0  0  0  0  0  0  0  0  0  0
   -3.2085   22.0121  -14.5481 H   0  0  0  0  0  0  0  0  0  0  0  0
  1  2  2  0  0  0  0
  1  3  1  0  0  0  0
  1  4  1  0  0  0  0
  3  5  1  0  0  0  0
  3  6  1  0  0  0  0
  3  7  1  0  0  0  0
  4  8  1  0  0  0  0
  4  9  1  0  0  0  0
  4 10  1  0  0  0  0
M  END
$$$$
DMS_D_4
prProtoss 03122516343D 1   1.00000     0.00000     0
Protoss beta proteinsplus
 10  9  0  0  0  0            999 V2000
   -8.4070    4.9730   -3.4100 S   0  0  0  0  0  0  0  0  0  0  0  0
   -8.9210    6.3480   -3.7400 O   0  0  0  0  0  0  0  0  0  0  0  0
   -7.2610    5.2290   -2.0400 C   0  0  0  0  0  0  0  0  0  0  0  0
   -9.6450    4.0480   -2.5130 C   0  0  0  0  0  0  0  0  0  0  0  0
   -6.8734    4.3504   -1.7610 H   0  0  0  0  0  0  0  0  0  0  0  0
   -6.5252    5.8406   -2.3308 H   0  0  0  0  0  0  0  0  0  0  0  0
   -7.7492    5.6379   -1.2690 H   0  0  0  0  0  0  0  0  0  0  0  0
   -9.2913    3.1372   -2.3000 H   0  0  0  0  0  0  0  0  0  0  0  0
   -9.8678    4.5261   -1.6634 H   0  0  0  0  0  0  0  0  0  0  0  0
  -10.4688    3.9630   -3.0735 H   0  0  0  0  0  0  0  0  0  0  0  0
  1  2  2  0  0  0  0
  1  3  1  0  0  0  0
  1  4  1  0  0  0  0
  3  5  1  0  0  0  0
  3  6  1  0  0  0  0
  3  7  1  0  0  0  0
  4  8  1  0  0  0  0
  4  9  1  0  0  0  0
  4 10  1  0  0  0  0
M  END
$$$$
DMS_D_5
prProtoss 03122516343D 1   1.00000     0.00000     0
Protoss beta proteinsplus
 10  9  0  0  0  0            999 V2000
   -7.9050   17.1010   -6.9590 S   0  0  0  0  0  0  0  0  0  0  0  0
   -9.0890   16.6010   -6.1630 O   0  0  0  0  0  0  0  0  0  0  0  0
   -6.7570   17.7930   -5.7500 C   0  0  0  0  0  0  0  0  0  0  0  0
   -6.9620   15.6270   -7.4070 C   0  0  0  0  0  0  0  0  0  0  0  0
   -5.9473   18.1426   -6.2213 H   0  0  0  0  0  0  0  0  0  0  0  0
   -7.2031   18.5391   -5.2558 H   0  0  0  0  0  0  0  0  0  0  0  0
   -6.4846   17.0806   -5.1032 H   0  0  0  0  0  0  0  0  0  0  0  0
   -6.1590   15.8942   -7.9397 H   0  0  0  0  0  0  0  0  0  0  0  0
   -6.6686   15.1538   -6.5764 H   0  0  0  0  0  0  0  0  0  0  0  0
   -7.5363   15.0170   -7.9529 H   0  0  0  0  0  0  0  0  0  0  0  0
  1  2  2  0  0  0  0
  1  3  1  0  0  0  0
  1  4  1  0  0  0  0
  3  5  1  0  0  0  0
  3  6  1  0  0  0  0
  3  7  1  0  0  0  0
  4  8  1  0  0  0  0
  4  9  1  0  0  0  0
  4 10  1  0  0  0  0
M  END
$$$$
DMS_D_8
prProtoss 03122516343D 1   1.00000     0.00000     0
Protoss beta proteinsplus
 10  9  0  0  0  0            999 V2000
  -15.8930    1.4050  -29.7300 S   0  0  0  0  0  0  0  0  0  0  0  0
  -15.9000    2.6470  -30.5710 O   0  0  0  0  0  0  0  0  0  0  0  0
  -14.3360    0.5890  -30.1210 C   0  0  0  0  0  0  0  0  0  0  0  0
  -15.4700    1.9610  -28.0720 C   0  0  0  0  0  0  0  0  0  0  0  0
  -14.2605   -0.2561  -29.5918 H   0  0  0  0  0  0  0  0  0  0  0  0
  -14.3081    0.3745  -31.0973 H   0  0  0  0  0  0  0  0  0  0  0  0
  -13.5749    1.1955  -29.8910 H   0  0  0  0  0  0  0  0  0  0  0  0
  -15.4472    1.1760  -27.4529 H   0  0  0  0  0  0  0  0  0  0  0  0
  -14.5717    2.4001  -28.0867 H   0  0  0  0  0  0  0  0  0  0  0  0
  -16.1560    2.6159  -27.7549 H   0  0  0  0  0  0  0  0  0  0  0  0
  1  2  2  0  0  0  0
  1  3  1  0  0  0  0
  1  4  1  0  0  0  0
  3  5  1  0  0  0  0
  3  6  1  0  0  0  0
  3  7  1  0  0  0  0
  4  8  1  0  0  0  0
  4  9  1  0  0  0  0
  4 10  1  0  0  0  0
M  END
$$$$
DMS_D_9
prProtoss 03122516343D 1   1.00000     0.00000     0
Protoss beta proteinsplus
 10  9  0  0  0  0            999 V2000
  -16.4320   24.6150  -33.2560 S   0  0  0  0  0  0  0  0  0  0  0  0
  -15.3000   25.2270  -34.0660 O   0  0  0  0  0  0  0  0  0  0  0  0
  -17.7610   24.1530  -34.3880 C   0  0  0  0  0  0  0  0  0  0  0  0
  -17.3550   26.0940  -32.7340 C   0  0  0  0  0  0  0  0  0  0  0  0
  -18.5145   23.7482  -33.8699 H   0  0  0  0  0  0  0  0  0  0  0  0
  -18.0867   24.9667  -34.8694 H   0  0  0  0  0  0  0  0  0  0  0  0
  -17.4177   23.4882  -35.0515 H   0  0  0  0  0  0  0  0  0  0  0  0
  -18.1416   25.8183  -32.1816 H   0  0  0  0  0  0  0  0  0  0  0  0
  -16.7580   26.6855  -32.1920 H   0  0  0  0  0  0  0  0  0  0  0  0
  -17.6726   26.5910  -33.5416 H   0  0  0  0  0  0  0  0  0  0  0  0
  1  2  2  0  0  0  0
  1  3  1  0  0  0  0
  1  4  1  0  0  0  0
  3  5  1  0  0  0  0
  3  6  1  0  0  0  0
  3  7  1  0  0  0  0
  4  8  1  0  0  0  0
  4  9  1  0  0  0  0
  4 10  1  0  0  0  0
M  END
$$$$
145_B_5
prProtoss 03122516343D 1   1.00000     0.00000     0
Protoss beta proteinsplus
 30 32  0  0  0  0            999 V2000
  -10.0320    2.1370  -28.5990 Cl  0  0  0  0  0  0  0  0  0  0  0  0
  -12.5060    3.5710  -29.2880 S   0  0  0  0  0  0  0  0  0  0  0  0
  -19.7750    5.4760  -29.1630 O   0  0  0  0  0  0  0  0  0  0  0  0
  -18.2130    5.4570  -31.7210 N   0  3  0  0  0  0  0  0  0  0  0  0
  -15.6170    7.3560  -30.4620 N   0  0  0  0  0  0  0  0  0  0  0  0
  -15.1680    5.1850  -29.8870 N   0  0  0  0  0  0  0  0  0  0  0  0
  -20.4640    5.5710  -30.4480 C   0  0  0  0  0  0  0  0  0  0  0  0
  -18.3600    5.2590  -29.1910 C   0  0  0  0  0  0  0  0  0  0  0  0
  -19.6650    5.7070  -31.7770 C   0  0  0  0  0  0  0  0  0  0  0  0
  -14.2260    7.2060  -30.2140 C   0  0  0  0  0  0  0  0  0  0  0  0
  -10.3900    4.9160  -28.9870 C   0  0  0  0  0  0  0  0  0  0  0  0
  -11.3840    5.7980  -29.3250 C   0  0  0  0  0  0  0  0  0  0  0  0
  -10.8330    3.6300  -28.9420 C   0  0  0  0  0  0  0  0  0  0  0  0
  -12.6380    5.2890  -29.5400 C   0  0  0  0  0  0  0  0  0  0  0  0
  -16.1940    6.0780  -30.2530 C   0  0  0  0  0  0  0  0  0  0  0  0
  -17.6910    5.9350  -30.4120 C   0  0  1  0  0  0  0  0  0  0  0  0
  -13.9510    5.9040  -29.8870 C   0  0  0  0  0  0  0  0  0  0  0  0
  -17.7588    5.9495  -32.4634 H   0  0  0  0  0  0  0  0  0  0  0  0
  -21.0613    6.3711  -30.3920 H   0  0  0  0  0  0  0  0  0  0  0  0
  -21.0207    4.7448  -30.5341 H   0  0  0  0  0  0  0  0  0  0  0  0
  -18.1855    4.2752  -29.2314 H   0  0  0  0  0  0  0  0  0  0  0  0
  -17.9597    5.6345  -28.3551 H   0  0  0  0  0  0  0  0  0  0  0  0
  -20.0565    5.0592  -32.4306 H   0  0  0  0  0  0  0  0  0  0  0  0
  -19.7966    6.6398  -32.1126 H   0  0  0  0  0  0  0  0  0  0  0  0
  -13.5494    7.9402  -30.2697 H   0  0  0  0  0  0  0  0  0  0  0  0
   -9.4467    5.1870  -28.7953 H   0  0  0  0  0  0  0  0  0  0  0  0
  -11.2005    6.7772  -29.4115 H   0  0  0  0  0  0  0  0  0  0  0  0
  -18.0197    6.8782  -30.3627 H   0  0  0  0  0  0  0  0  0  0  0  0
  -18.0374    4.4770  -31.8147 H   0  0  0  0  0  0  0  0  0  0  0  0
  -15.2804    4.2161  -29.6667 H   0  0  0  0  0  0  0  0  0  0  0  0
  1 13  1  0  0  0  0
  2 13  1  0  0  0  0
  2 14  1  0  0  0  0
  3  7  1  0  0  0  0
  3  8  1  0  0  0  0
  4  9  1  0  0  0  0
  4 16  1  0  0  0  0
  5 10  1  0  0  0  0
  5 15  2  0  0  0  0
  6 15  1  0  0  0  0
  6 17  1  0  0  0  0
  7  9  1  0  0  0  0
  8 16  1  0  0  0  0
 10 17  2  0  0  0  0
 11 12  1  0  0  0  0
 11 13  2  0  0  0  0
 12 14  2  0  0  0  0
 14 17  1  0  0  0  0
 15 16  1  0  0  0  0
  4 18  1  0  0  0  0
  6 30  1  0  0  0  0
  7 19  1  0  0  0  0
  7 20  1  0  0  0  0
  8 21  1  0  0  0  0
  8 22  1  0  0  0  0
  9 23  1  0  0  0  0
  9 24  1  0  0  0  0
 10 25  1  0  0  0  0
 11 26  1  0  0  0  0
 12 27  1  0  0  0  0
 16 28  1  0  0  0  0
  4 29  1  0  0  0  0
M  CHG  1   4   1
M  END
$$$$
145_B_6
prProtoss 03122516343D 1   1.00000     0.00000     0
Protoss beta proteinsplus
 30 32  0  0  0  0            999 V2000
   -9.8030   17.9890  -11.8740 Cl  0  0  0  0  0  0  0  0  0  0  0  0
   -7.0080   17.6130  -10.8970 S   0  0  0  0  0  0  0  0  0  0  0  0
    0.1990   16.1550   -8.2380 O   0  0  0  0  0  0  0  0  0  0  0  0
   -0.6560   18.2150   -9.6860 N   0  3  0  0  0  0  0  0  0  0  0  0
   -3.2490   18.9690   -7.9520 N   0  0  0  0  0  0  0  0  0  0  0  0
   -4.1620   17.7970   -9.6920 N   0  0  0  0  0  0  0  0  0  0  0  0
    0.5780   16.0680   -9.6270 C   0  0  0  0  0  0  0  0  0  0  0  0
   -1.1910   16.4420   -8.0170 C   0  0  0  0  0  0  0  0  0  0  0  0
    0.3090   17.3730  -10.4020 C   0  0  0  0  0  0  0  0  0  0  0  0
   -4.6110   19.3570   -8.1180 C   0  0  0  0  0  0  0  0  0  0  0  0
   -8.5540   19.4740  -10.0110 C   0  0  0  0  0  0  0  0  0  0  0  0
   -7.3930   19.6260   -9.3590 C   0  0  0  0  0  0  0  0  0  0  0  0
   -8.5170   18.4400  -10.8630 C   0  0  0  0  0  0  0  0  0  0  0  0
   -6.4500   18.7370   -9.6720 C   0  0  0  0  0  0  0  0  0  0  0  0
   -2.9980   17.9790   -8.9550 C   0  0  0  0  0  0  0  0  0  0  0  0
   -1.7100   17.2810   -9.2110 C   0  0  1  0  0  0  0  0  0  0  0  0
   -5.1170   18.6540   -9.1440 C   0  0  0  0  0  0  0  0  0  0  0  0
   -1.0461   18.9012  -10.2999 H   0  0  0  0  0  0  0  0  0  0  0  0
    0.0572   15.3292  -10.0547 H   0  0  0  0  0  0  0  0  0  0  0  0
    1.5549   15.8608   -9.6793 H   0  0  0  0  0  0  0  0  0  0  0  0
   -1.2987   16.9593   -7.1680 H   0  0  0  0  0  0  0  0  0  0  0  0
   -1.7069   15.5876   -7.9544 H   0  0  0  0  0  0  0  0  0  0  0  0
    1.1675   17.8749  -10.5069 H   0  0  0  0  0  0  0  0  0  0  0  0
   -0.0582   17.1485  -11.3046 H   0  0  0  0  0  0  0  0  0  0  0  0
   -5.1021   20.0326   -7.5681 H   0  0  0  0  0  0  0  0  0  0  0  0
   -9.3521   20.0616   -9.8778 H   0  0  0  0  0  0  0  0  0  0  0  0
   -7.2450   20.3522   -8.6877 H   0  0  0  0  0  0  0  0  0  0  0  0
   -1.8784   16.6383   -9.9584 H   0  0  0  0  0  0  0  0  0  0  0  0
   -0.2169   18.6713   -8.9120 H   0  0  0  0  0  0  0  0  0  0  0  0
   -2.6018   19.3171   -7.2739 H   0  0  0  0  0  0  0  0  0  0  0  0
  1 13  1  0  0  0  0
  2 13  1  0  0  0  0
  2 14  1  0  0  0  0
  3  7  1  0  0  0  0
  3  8  1  0  0  0  0
  4  9  1  0  0  0  0
  4 16  1  0  0  0  0
  5 10  1  0  0  0  0
  5 15  1  0  0  0  0
  6 15  2  0  0  0  0
  6 17  1  0  0  0  0
  7  9  1  0  0  0  0
  8 16  1  0  0  0  0
 10 17  2  0  0  0  0
 11 12  1  0  0  0  0
 11 13  2  0  0  0  0
 12 14  2  0  0  0  0
 14 17  1  0  0  0  0
 15 16  1  0  0  0  0
  4 18  1  0  0  0  0
  5 30  1  0  0  0  0
  7 19  1  0  0  0  0
  7 20  1  0  0  0  0
  8 21  1  0  0  0  0
  8 22  1  0  0  0  0
  9 23  1  0  0  0  0
  9 24  1  0  0  0  0
 10 25  1  0  0  0  0
 11 26  1  0  0  0  0
 12 27  1  0  0  0  0
 16 28  1  0  0  0  0
  4 29  1  0  0  0  0
M  CHG  1   4   1
M  END
$$$$
168_B_3
prProtoss 03122516343D 1   1.00000     0.00000     0
Protoss beta proteinsplus
 21 22  0  0  0  0            999 V2000
  -14.0410    3.8690  -29.9330 O   0  0  0  0  0  0  0  0  0  0  0  0
  -15.2630    3.0680  -30.3590 N   0  0  0  0  0  0  0  0  0  0  0  0
  -15.8410    0.6960  -30.6320 C   0  0  0  0  0  0  0  0  0  0  0  0
   -9.2960    3.8430  -28.3060 C   0  0  0  0  0  0  0  0  0  0  0  0
  -10.1500    4.8360  -28.6990 C   0  0  0  0  0  0  0  0  0  0  0  0
   -9.6470    2.5320  -28.4160 C   0  0  0  0  0  0  0  0  0  0  0  0
  -11.3900    4.5460  -29.1710 C   0  0  0  0  0  0  0  0  0  0  0  0
  -10.8940    2.2170  -28.8880 C   0  0  0  0  0  0  0  0  0  0  0  0
  -13.5850    1.6110  -29.9110 C   0  0  0  0  0  0  0  0  0  0  0  0
  -14.8620    1.7630  -30.2970 C   0  0  0  0  0  0  0  0  0  0  0  0
  -13.0720    2.8350  -29.7200 C   0  0  0  0  0  0  0  0  0  0  0  0
  -11.7600    3.2120  -29.2680 C   0  0  0  0  0  0  0  0  0  0  0  0
  -15.4032   -0.1985  -30.5414 H   0  0  0  0  0  0  0  0  0  0  0  0
  -16.6202    0.7505  -30.0076 H   0  0  0  0  0  0  0  0  0  0  0  0
  -16.1583    0.8181  -31.5724 H   0  0  0  0  0  0  0  0  0  0  0  0
   -8.4002    4.0833  -27.9322 H   0  0  0  0  0  0  0  0  0  0  0  0
   -9.8571    5.7902  -28.6379 H   0  0  0  0  0  0  0  0  0  0  0  0
   -9.0049    1.8107  -28.1564 H   0  0  0  0  0  0  0  0  0  0  0  0
  -12.0196    5.2743  -29.4414 H   0  0  0  0  0  0  0  0  0  0  0  0
  -11.1741    1.2594  -28.9559 H   0  0  0  0  0  0  0  0  0  0  0  0
  -13.1040    0.7429  -29.7883 H   0  0  0  0  0  0  0  0  0  0  0  0
  1  2  1  0  0  0  0
  1 11  1  0  0  0  0
  2 10  2  0  0  0  0
  3 10  1  0  0  0  0
  4  5  2  0  0  0  0
  4  6  1  0  0  0  0
  5  7  1  0  0  0  0
  6  8  2  0  0  0  0
  7 12  2  0  0  0  0
  8 12  1  0  0  0  0
  9 10  1  0  0  0  0
  9 11  2  0  0  0  0
 11 12  1  0  0  0  0
  3 13  1  0  0  0  0
  3 14  1  0  0  0  0
  3 15  1  0  0  0  0
  4 16  1  0  0  0  0
  5 17  1  0  0  0  0
  6 18  1  0  0  0  0
  7 19  1  0  0  0  0
  8 20  1  0  0  0  0
  9 21  1  0  0  0  0
M  END
$$$$
168_B_4
prProtoss 03122516343D 1   1.00000     0.00000     0
Protoss beta proteinsplus
 42 44  0  0  0  0            999 V2000
    0.0530   15.6520   -9.4360 O   0  0  0  0  0  0  0  0  0  0  0  0
   -5.5680   19.5570   -8.7080 O   0  0  0  0  0  0  0  0  0  0  0  0
   -0.3120   18.6240   -7.8810 O   0  0  0  0  0  0  0  0  0  0  0  0
    2.9530   17.4900   -7.7800 N   0  3  0  0  0  0  0  0  0  0  0  0
   -4.1240   19.3630   -8.2770 N   0  0  0  0  0  0  0  0  0  0  0  0
    1.7390   17.6670   -6.9730 C   0  0  0  0  0  0  0  0  0  0  0  0
   -9.3540   17.8460  -11.5740 C   0  0  0  0  0  0  0  0  0  0  0  0
   -9.2060   18.8780  -10.7030 C   0  0  0  0  0  0  0  0  0  0  0  0
   -8.3080   17.0220  -11.7850 C   0  0  0  0  0  0  0  0  0  0  0  0
    0.6090   17.7440  -10.4300 C   0  0  0  0  0  0  0  0  0  0  0  0
   -0.5930   18.6890  -10.3340 C   0  0  0  0  0  0  0  0  0  0  0  0
   -8.0370   19.0830  -10.0520 C   0  0  0  0  0  0  0  0  0  0  0  0
   -7.1330   17.2190  -11.1480 C   0  0  0  0  0  0  0  0  0  0  0  0
   -2.3540   17.7030   -8.8080 C   0  0  0  0  0  0  0  0  0  0  0  0
   -4.6530   17.7040   -9.7420 C   0  0  0  0  0  0  0  0  0  0  0  0
    0.8490   16.8270   -9.2210 C   0  0  1  0  0  0  0  0  0  0  0  0
   -1.2440   18.7570   -8.9540 C   0  0  1  0  0  0  0  0  0  0  0  0
    0.4860   17.4270   -7.8450 C   0  0  2  0  0  0  0  0  0  0  0  0
   -5.7480   18.4460   -9.6160 C   0  0  0  0  0  0  0  0  0  0  0  0
   -3.7200   18.2470   -8.9670 C   0  0  0  0  0  0  0  0  0  0  0  0
   -6.9980   18.2460  -10.2760 C   0  0  0  0  0  0  0  0  0  0  0  0
    0.3386   15.2066  -10.2845 H   0  0  0  0  0  0  0  0  0  0  0  0
    3.6790   18.0780   -7.4234 H   0  0  0  0  0  0  0  0  0  0  0  0
    3.2460   16.5349   -7.7364 H   0  0  0  0  0  0  0  0  0  0  0  0
    1.7160   18.5981   -6.6091 H   0  0  0  0  0  0  0  0  0  0  0  0
    1.7461   17.0134   -6.2162 H   0  0  0  0  0  0  0  0  0  0  0  0
  -10.2217   17.7004  -12.0493 H   0  0  0  0  0  0  0  0  0  0  0  0
   -9.9742   19.4971  -10.5399 H   0  0  0  0  0  0  0  0  0  0  0  0
   -8.4030   16.2558  -12.4206 H   0  0  0  0  0  0  0  0  0  0  0  0
    1.4280   18.3039  -10.5556 H   0  0  0  0  0  0  0  0  0  0  0  0
    0.4765   17.1623  -11.2326 H   0  0  0  0  0  0  0  0  0  0  0  0
   -1.2834   18.3821  -10.9891 H   0  0  0  0  0  0  0  0  0  0  0  0
   -0.2863   19.6087  -10.5792 H   0  0  0  0  0  0  0  0  0  0  0  0
   -7.9424   19.8455   -9.4119 H   0  0  0  0  0  0  0  0  0  0  0  0
   -6.3622   16.6057  -11.3207 H   0  0  0  0  0  0  0  0  0  0  0  0
   -2.2819   17.2934   -7.8986 H   0  0  0  0  0  0  0  0  0  0  0  0
   -2.2127   16.9982   -9.5032 H   0  0  0  0  0  0  0  0  0  0  0  0
   -4.5502   16.8895  -10.3130 H   0  0  0  0  0  0  0  0  0  0  0  0
    1.8130   16.5613   -9.2087 H   0  0  0  0  0  0  0  0  0  0  0  0
   -1.6722   19.6567   -8.8689 H   0  0  0  0  0  0  0  0  0  0  0  0
   -0.0606   16.7368   -7.3708 H   0  0  0  0  0  0  0  0  0  0  0  0
    2.7607   17.7366   -8.7299 H   0  0  0  0  0  0  0  0  0  0  0  0
  1 16  1  0  0  0  0
  2  5  1  0  0  0  0
  2 19  1  0  0  0  0
  3 17  1  0  0  0  0
  3 18  1  0  0  0  0
  4  6  1  0  0  0  0
  5 20  2  0  0  0  0
  6 18  1  0  0  0  0
  7  8  2  0  0  0  0
  7  9  1  0  0  0  0
  8 12  1  0  0  0  0
  9 13  2  0  0  0  0
 10 11  1  0  0  0  0
 10 16  1  0  0  0  0
 11 17  1  0  0  0  0
 12 21  2  0  0  0  0
 13 21  1  0  0  0  0
 14 17  1  0  0  0  0
 14 20  1  0  0  0  0
 15 19  2  0  0  0  0
 15 20  1  0  0  0  0
 16 18  1  0  0  0  0
 19 21  1  0  0  0  0
  1 22  1  0  0  0  0
  4 23  1  0  0  0  0
  4 24  1  0  0  0  0
  6 25  1  0  0  0  0
  6 26  1  0  0  0  0
  7 27  1  0  0  0  0
  8 28  1  0  0  0  0
  9 29  1  0  0  0  0
 10 30  1  0  0  0  0
 10 31  1  0  0  0  0
 11 32  1  0  0  0  0
 11 33  1  0  0  0  0
 12 34  1  0  0  0  0
 13 35  1  0  0  0  0
 14 36  1  0  0  0  0
 14 37  1  0  0  0  0
 15 38  1  0  0  0  0
 16 39  1  0  0  0  0
 17 40  1  0  0  0  0
 18 41  1  0  0  0  0
  4 42  1  0  0  0  0
M  CHG  1   4   1
M  END
$$$$
DMS_D_1
prProtoss 03122516343D 1   1.00000     0.00000     0
Protoss beta proteinsplus
 10  9  0  0  0  0            999 V2000
   -1.7570   21.0130  -16.5800 S   0  0  0  0  0  0  0  0  0  0  0  0
   -2.9470   20.1920  -17.0050 O   0  0  0  0  0  0  0  0  0  0  0  0
   -2.3190   21.9600  -15.1450 C   0  0  0  0  0  0  0  0  0  0  0  0
   -0.5880   19.8770  -15.7980 C   0  0  0  0  0  0  0  0  0  0  0  0
   -1.5707   22.5321  -14.8093 H   0  0  0  0  0  0  0  0  0  0  0  0
   -3.0894   22.5402  -15.4094 H   0  0  0  0  0  0  0  0  0  0  0  0
   -2.6076   21.3313  -14.4229 H   0  0  0  0  0  0  0  0  0  0  0  0
    0.2206   20.3840  -15.4997 H   0  0  0  0  0  0  0  0  0  0  0  0
   -1.0213   19.4452  -15.0069 H   0  0  0  0  0  0  0  0  0  0  0  0
   -0.3167   19.1735  -16.4549 H   0  0  0  0  0  0  0  0  0  0  0  0
  1  2  2  0  0  0  0
  1  3  1  0  0  0  0
  1  4  1  0  0  0  0
  3  5  1  0  0  0  0
  3  6  1  0  0  0  0
  3  7  1  0  0  0  0
  4  8  1  0  0  0  0
  4  9  1  0  0  0  0
  4 10  1  0  0  0  0
M  END
$$$$
DMS_D_2
prProtoss 03122516343D 1   1.00000     0.00000     0
Protoss beta proteinsplus
 10  9  0  0  0  0            999 V2000
   -7.3770   16.3170   -6.2980 S   0  0  0  0  0  0  0  0  0  0  0  0
   -8.7810   16.8520   -6.4090 O   0  0  0  0  0  0  0  0  0  0  0  0
   -6.8600   15.5850   -7.8630 C   0  0  0  0  0  0  0  0  0  0  0  0
   -6.2090   17.6850   -6.2520 C   0  0  0  0  0  0  0  0  0  0  0  0
   -5.9276   15.2344   -7.7751 H   0  0  0  0  0  0  0  0  0  0  0  0
   -7.4772   14.8348   -8.1001 H   0  0  0  0  0  0  0  0  0  0  0  0
   -6.8885   16.2799   -8.5816 H   0  0  0  0  0  0  0  0  0  0  0  0
   -5.2784   17.3264   -6.1783 H   0  0  0  0  0  0  0  0  0  0  0  0
   -6.2933   18.2236   -7.0903 H   0  0  0  0  0  0  0  0  0  0  0  0
   -6.4062   18.2652   -5.4618 H   0  0  0  0  0  0  0  0  0  0  0  0
  1  2  2  0  0  0  0
  1  3  1  0  0  0  0
  1  4  1  0  0  0  0
  3  5  1  0  0  0  0
  3  6  1  0  0  0  0
  3  7  1  0  0  0  0
  4  8  1  0  0  0  0
  4  9  1  0  0  0  0
  4 10  1  0  0  0  0
M  END
$$$$
DMS_D_3
prProtoss 03122516343D 1   1.00000     0.00000     0
Protoss beta proteinsplus
 10  9  0  0  0  0            999 V2000
  -16.5080   24.7550  -33.3550 S   0  0  0  0  0  0  0  0  0  0  0  0
  -15.2400   25.1600  -34.0760 O   0  0  0  0  0  0  0  0  0  0  0  0
  -17.2760   26.3100  -32.8220 C   0  0  0  0  0  0  0  0  0  0  0  0
  -17.7440   24.3740  -34.6210 C   0  0  0  0  0  0  0  0  0  0  0  0
  -18.1264   26.1119  -32.3345 H   0  0  0  0  0  0  0  0  0  0  0  0
  -16.6502   26.7999  -32.2150 H   0  0  0  0  0  0  0  0  0  0  0  0
  -17.4747   26.8752  -33.6226 H   0  0  0  0  0  0  0  0  0  0  0  0
  -18.5993   24.1012  -34.1804 H   0  0  0  0  0  0  0  0  0  0  0  0
  -17.9034   25.1838  -35.1856 H   0  0  0  0  0  0  0  0  0  0  0  0
  -17.4122   23.6265  -35.1965 H   0  0  0  0  0  0  0  0  0  0  0  0
  1  2  2  0  0  0  0
  1  3  1  0  0  0  0
  1  4  1  0  0  0  0
  3  5  1  0  0  0  0
  3  6  1  0  0  0  0
  3  7  1  0  0  0  0
  4  8  1  0  0  0  0
  4  9  1  0  0  0  0
  4 10  1  0  0  0  0
M  END
$$$$
DMS_D_5
prProtoss 03122516343D 1   1.00000     0.00000     0
Protoss beta proteinsplus
 10  9  0  0  0  0            999 V2000
  -40.5670   23.5460  -25.4460 S   0  0  0  0  0  0  0  0  0  0  0  0
  -39.7950   23.7940  -26.7250 O   0  0  0  0  0  0  0  0  0  0  0  0
  -39.4850   24.0650  -24.0930 C   0  0  0  0  0  0  0  0  0  0  0  0
  -41.8130   24.8530  -25.3350 C   0  0  0  0  0  0  0  0  0  0  0  0
  -39.9506   23.9210  -23.2198 H   0  0  0  0  0  0  0  0  0  0  0  0
  -38.6427   23.5264  -24.1144 H   0  0  0  0  0  0  0  0  0  0  0  0
  -39.2634   25.0346  -24.1966 H   0  0  0  0  0  0  0  0  0  0  0  0
  -42.3512   24.7305  -24.5011 H   0  0  0  0  0  0  0  0  0  0  0  0
  -41.3600   25.7442  -25.3115 H   0  0  0  0  0  0  0  0  0  0  0  0
  -42.4165   24.8067  -26.1310 H   0  0  0  0  0  0  0  0  0  0  0  0
  1  2  2  0  0  0  0
  1  3  1  0  0  0  0
  1  4  1  0  0  0  0
  3  5  1  0  0  0  0
  3  6  1  0  0  0  0
  3  7  1  0  0  0  0
  4  8  1  0  0  0  0
  4  9  1  0  0  0  0
  4 10  1  0  0  0  0
M  END
$$$$
DMS_D_6
prProtoss 03122516343D 1   1.00000     0.00000     0
Protoss beta proteinsplus
 10  9  0  0  0  0            999 V2000
  -15.8110    6.3610  -30.6860 S   0  0  0  0  0  0  0  0  0  0  0  0
  -16.8010    7.3690  -31.1870 O   0  0  0  0  0  0  0  0  0  0  0  0
  -16.4490    5.7430  -29.1120 C   0  0  0  0  0  0  0  0  0  0  0  0
  -14.4040    7.3580  -30.1890 C   0  0  0  0  0  0  0  0  0  0  0  0
  -15.8165    5.0639  -28.7395 H   0  0  0  0  0  0  0  0  0  0  0  0
  -16.5399    6.5025  -28.4679 H   0  0  0  0  0  0  0  0  0  0  0  0
  -17.3436    5.3206  -29.2577 H   0  0  0  0  0  0  0  0  0  0  0  0
  -13.6819    6.7630  -29.8360 H   0  0  0  0  0  0  0  0  0  0  0  0
  -14.0605    7.8668  -30.9784 H   0  0  0  0  0  0  0  0  0  0  0  0
  -14.6856    7.9998  -29.4757 H   0  0  0  0  0  0  0  0  0  0  0  0
  1  2  2  0  0  0  0
  1  3  1  0  0  0  0
  1  4  1  0  0  0  0
  3  5  1  0  0  0  0
  3  6  1  0  0  0  0
  3  7  1  0  0  0  0
  4  8  1  0  0  0  0
  4  9  1  0  0  0  0
  4 10  1  0  0  0  0
M  END
$$$$
DMS_D_8
prProtoss 03122516343D 1   1.00000     0.00000     0
Protoss beta proteinsplus
 10  9  0  0  0  0            999 V2000
    1.2700   14.8630  -43.1250 S   0  0  0  0  0  0  0  0  0  0  0  0
    0.4770   15.8330  -43.9720 O   0  0  0  0  0  0  0  0  0  0  0  0
    1.9810   15.8180  -41.7670 C   0  0  0  0  0  0  0  0  0  0  0  0
    2.8200   14.5340  -43.9960 C   0  0  0  0  0  0  0  0  0  0  0  0
    2.5167   15.2126  -41.1784 H   0  0  0  0  0  0  0  0  0  0  0  0
    2.5738   16.5333  -42.1371 H   0  0  0  0  0  0  0  0  0  0  0  0
    1.2462   16.2369  -41.2336 H   0  0  0  0  0  0  0  0  0  0  0  0
    3.3725   13.8934  -43.4627 H   0  0  0  0  0  0  0  0  0  0  0  0
    2.6211   14.1369  -44.8920 H   0  0  0  0  0  0  0  0  0  0  0  0
    3.3236   15.3897  -44.1150 H   0  0  0  0  0  0  0  0  0  0  0  0
  1  2  2  0  0  0  0
  1  3  1  0  0  0  0
  1  4  1  0  0  0  0
  3  5  1  0  0  0  0
  3  6  1  0  0  0  0
  3  7  1  0  0  0  0
  4  8  1  0  0  0  0
  4  9  1  0  0  0  0
  4 10  1  0  0  0  0
M  END
$$$$
184_A_401
prProtoss 03122516343D 1   1.00000     0.00000     0
Protoss beta proteinsplus
 38 39  0  0  0  0            999 V2000
   -6.6580    4.4640  -20.4170 O   0  0  0  0  0  0  0  0  0  0  0  0
   -8.7140    6.1180  -15.2750 O   0  0  0  0  0  0  0  0  0  0  0  0
   -6.9830    4.9700  -14.3630 O   0  0  0  0  0  0  0  0  0  0  0  0
  -13.6260    2.0170  -19.4980 O   0  0  0  0  0  0  0  0  0  0  0  0
   -6.7280    2.6380  -17.7760 O   0  0  0  0  0  0  0  0  0  0  0  0
   -8.4060    4.3260  -17.5780 N   0  0  0  0  0  0  0  0  0  0  0  0
   -9.7700    3.7000  -19.9920 N   0  3  0  0  0  0  0  0  0  0  0  0
   -7.1000    5.9070  -13.2770 C   0  0  0  0  0  0  0  0  0  0  0  0
   -7.4210    3.3160  -20.8110 C   0  0  0  0  0  0  0  0  0  0  0  0
  -12.5240    1.2630  -18.9810 C   0  0  0  0  0  0  0  0  0  0  0  0
  -13.5460    3.4220  -19.2500 C   0  0  0  0  0  0  0  0  0  0  0  0
   -6.6770    3.4070  -16.4740 C   0  0  0  0  0  0  0  0  0  0  0  0
  -11.1280    1.7730  -19.3290 C   0  0  0  0  0  0  0  0  0  0  0  0
  -12.2070    4.0340  -19.6610 C   0  0  0  0  0  0  0  0  0  0  0  0
   -7.8510    5.2460  -15.3300 C   0  0  0  0  0  0  0  0  0  0  0  0
   -7.9030    3.3370  -18.3770 C   0  0  0  0  0  0  0  0  0  0  0  0
  -10.9530    3.2910  -19.1920 C   0  0  0  0  0  0  0  0  0  0  0  0
   -8.4640    3.0320  -19.7150 C   0  0  1  0  0  0  0  0  0  0  0  0
   -7.6420    4.3320  -16.4480 C   0  0  0  0  0  0  0  0  0  0  0  0
   -6.7606    5.1840  -21.1033 H   0  0  0  0  0  0  0  0  0  0  0  0
   -9.6381    4.6804  -19.8458 H   0  0  0  0  0  0  0  0  0  0  0  0
   -6.4369    5.6764  -12.5649 H   0  0  0  0  0  0  0  0  0  0  0  0
   -6.9200    6.8313  -13.6134 H   0  0  0  0  0  0  0  0  0  0  0  0
   -8.0244    5.8643  -12.8981 H   0  0  0  0  0  0  0  0  0  0  0  0
   -6.8158    2.5268  -20.9150 H   0  0  0  0  0  0  0  0  0  0  0  0
   -7.8831    3.4983  -21.6789 H   0  0  0  0  0  0  0  0  0  0  0  0
  -12.6029    0.3299  -19.3318 H   0  0  0  0  0  0  0  0  0  0  0  0
  -12.6040    1.2523  -17.9843 H   0  0  0  0  0  0  0  0  0  0  0  0
  -13.6799    3.5796  -18.2716 H   0  0  0  0  0  0  0  0  0  0  0  0
  -14.2737    3.8768  -19.7635 H   0  0  0  0  0  0  0  0  0  0  0  0
   -6.0174    3.2467  -15.7397 H   0  0  0  0  0  0  0  0  0  0  0  0
  -10.9301    1.5199  -20.2760 H   0  0  0  0  0  0  0  0  0  0  0  0
  -10.4717    1.3267  -18.7206 H   0  0  0  0  0  0  0  0  0  0  0  0
  -12.1687    4.9619  -19.2901 H   0  0  0  0  0  0  0  0  0  0  0  0
  -12.1830    4.0731  -20.6599 H   0  0  0  0  0  0  0  0  0  0  0  0
  -10.7861    3.5122  -18.2311 H   0  0  0  0  0  0  0  0  0  0  0  0
   -8.6373    2.0473  -19.7342 H   0  0  0  0  0  0  0  0  0  0  0  0
   -9.9902    3.5330  -20.9530 H   0  0  0  0  0  0  0  0  0  0  0  0
  1  9  1  0  0  0  0
  2 15  2  0  0  0  0
  3  8  1  0  0  0  0
  3 15  1  0  0  0  0
  4 10  1  0  0  0  0
  4 11  1  0  0  0  0
  5 12  1  0  0  0  0
  5 16  1  0  0  0  0
  6 16  2  0  0  0  0
  6 19  1  0  0  0  0
  7 17  1  0  0  0  0
  7 18  1  0  0  0  0
  9 18  1  0  0  0  0
 10 13  1  0  0  0  0
 11 14  1  0  0  0  0
 12 19  2  0  0  0  0
 13 17  1  0  0  0  0
 14 17  1  0  0  0  0
 15 19  1  0  0  0  0
 16 18  1  0  0  0  0
  1 20  1  0  0  0  0
  7 21  1  0  0  0  0
  8 22  1  0  0  0  0
  8 23  1  0  0  0  0
  8 24  1  0  0  0  0
  9 25  1  0  0  0  0
  9 26  1  0  0  0  0
 10 27  1  0  0  0  0
 10 28  1  0  0  0  0
 11 29  1  0  0  0  0
 11 30  1  0  0  0  0
 12 31  1  0  0  0  0
 13 32  1  0  0  0  0
 13 33  1  0  0  0  0
 14 34  1  0  0  0  0
 14 35  1  0  0  0  0
 17 36  1  0  0  0  0
 18 37  1  0  0  0  0
  7 38  1  0  0  0  0
M  CHG  1   7   1
M  END
$$$$
DMS_D_1
prProtoss 03122516343D 1   1.00000     0.00000     0
Protoss beta proteinsplus
 10  9  0  0  0  0            999 V2000
   -9.5970   24.5680  -15.7960 S   0  0  0  0  0  0  0  0  0  0  0  0
  -10.6490   25.1050  -14.8490 O   0  0  0  0  0  0  0  0  0  0  0  0
   -8.6280   25.9820  -16.3760 C   0  0  0  0  0  0  0  0  0  0  0  0
   -8.3300   23.7990  -14.7780 C   0  0  0  0  0  0  0  0  0  0  0  0
   -7.9199   25.6646  -17.0067 H   0  0  0  0  0  0  0  0  0  0  0  0
   -9.2292   26.6273  -16.8473 H   0  0  0  0  0  0  0  0  0  0  0  0
   -8.1994   26.4355  -15.5945 H   0  0  0  0  0  0  0  0  0  0  0  0
   -7.6103   23.4282  -15.3650 H   0  0  0  0  0  0  0  0  0  0  0  0
   -7.9383   24.4816  -14.1611 H   0  0  0  0  0  0  0  0  0  0  0  0
   -8.7367   23.0595  -14.2417 H   0  0  0  0  0  0  0  0  0  0  0  0
  1  2  2  0  0  0  0
  1  3  1  0  0  0  0
  1  4  1  0  0  0  0
  3  5  1  0  0  0  0
  3  6  1  0  0  0  0
  3  7  1  0  0  0  0
  4  8  1  0  0  0  0
  4  9  1  0  0  0  0
  4 10  1  0  0  0  0
M  END
$$$$
DMS_D_5
prProtoss 03122516343D 1   1.00000     0.00000     0
Protoss beta proteinsplus
 10  9  0  0  0  0            999 V2000
   -4.0840   24.7820  -30.5950 S   0  0  0  0  0  0  0  0  0  0  0  0
   -3.0800   24.9250  -29.4820 O   0  0  0  0  0  0  0  0  0  0  0  0
   -5.6200   24.1340  -29.8930 C   0  0  0  0  0  0  0  0  0  0  0  0
   -4.6910   26.4460  -30.9830 C   0  0  0  0  0  0  0  0  0  0  0  0
   -6.3009   24.0317  -30.6182 H   0  0  0  0  0  0  0  0  0  0  0  0
   -5.4448   23.2438  -29.4724 H   0  0  0  0  0  0  0  0  0  0  0  0
   -5.9635   24.7682  -29.2003 H   0  0  0  0  0  0  0  0  0  0  0  0
   -5.3632   26.3919  -31.7214 H   0  0  0  0  0  0  0  0  0  0  0  0
   -5.1192   26.8424  -30.1709 H   0  0  0  0  0  0  0  0  0  0  0  0
   -3.9254   27.0214  -31.2707 H   0  0  0  0  0  0  0  0  0  0  0  0
  1  2  2  0  0  0  0
  1  3  1  0  0  0  0
  1  4  1  0  0  0  0
  3  5  1  0  0  0  0
  3  6  1  0  0  0  0
  3  7  1  0  0  0  0
  4  8  1  0  0  0  0
  4  9  1  0  0  0  0
  4 10  1  0  0  0  0
M  END
$$$$
DMS_D_6
prProtoss 03122516343D 1   1.00000     0.00000     0
Protoss beta proteinsplus
 10  9  0  0  0  0            999 V2000
  -26.6010   15.3740   -5.8470 S   0  0  0  0  0  0  0  0  0  0  0  0
  -27.2010   14.0020   -5.6400 O   0  0  0  0  0  0  0  0  0  0  0  0
  -27.7180   16.5560   -5.0670 C   0  0  0  0  0  0  0  0  0  0  0  0
  -25.2560   15.5380   -4.6530 C   0  0  0  0  0  0  0  0  0  0  0  0
  -27.3567   17.4814   -5.1812 H   0  0  0  0  0  0  0  0  0  0  0  0
  -28.6197   16.4950   -5.4951 H   0  0  0  0  0  0  0  0  0  0  0  0
  -27.7969   16.3469   -4.0923 H   0  0  0  0  0  0  0  0  0  0  0  0
  -24.8278   16.4360   -4.7545 H   0  0  0  0  0  0  0  0  0  0  0  0
  -25.6198   15.4451   -3.7262 H   0  0  0  0  0  0  0  0  0  0  0  0
  -24.5756   14.8238   -4.8172 H   0  0  0  0  0  0  0  0  0  0  0  0
  1  2  2  0  0  0  0
  1  3  1  0  0  0  0
  1  4  1  0  0  0  0
  3  5  1  0  0  0  0
  3  6  1  0  0  0  0
  3  7  1  0  0  0  0
  4  8  1  0  0  0  0
  4  9  1  0  0  0  0
  4 10  1  0  0  0  0
M  END
$$$$
DMS_D_7
prProtoss 03122516343D 1   1.00000     0.00000     0
Protoss beta proteinsplus
 10  9  0  0  0  0            999 V2000
   14.7910   23.1600  -23.8940 S   0  0  0  0  0  0  0  0  0  0  0  0
   14.4080   22.8550  -22.4610 O   0  0  0  0  0  0  0  0  0  0  0  0
   13.3510   23.9220  -24.6680 C   0  0  0  0  0  0  0  0  0  0  0  0
   15.8050   24.6400  -23.7700 C   0  0  0  0  0  0  0  0  0  0  0  0
   13.5614   24.1408  -25.6208 H   0  0  0  0  0  0  0  0  0  0  0  0
   12.5793   23.2868  -24.6344 H   0  0  0  0  0  0  0  0  0  0  0  0
   13.1139   24.7608  -24.1779 H   0  0  0  0  0  0  0  0  0  0  0  0
   16.1055   24.9156  -24.6831 H   0  0  0  0  0  0  0  0  0  0  0  0
   15.2694   25.3775  -23.3586 H   0  0  0  0  0  0  0  0  0  0  0  0
   16.6039   24.4499  -23.1994 H   0  0  0  0  0  0  0  0  0  0  0  0
  1  2  2  0  0  0  0
  1  3  1  0  0  0  0
  1  4  1  0  0  0  0
  3  5  1  0  0  0  0
  3  6  1  0  0  0  0
  3  7  1  0  0  0  0
  4  8  1  0  0  0  0
  4  9  1  0  0  0  0
  4 10  1  0  0  0  0
M  END
$$$$
DMS_D_8
prProtoss 03122516343D 1   1.00000     0.00000     0
Protoss beta proteinsplus
 10  9  0  0  0  0            999 V2000
   11.4080   13.7850  -22.3940 S   0  0  0  0  0  0  0  0  0  0  0  0
   12.4680   13.3220  -23.3700 O   0  0  0  0  0  0  0  0  0  0  0  0
   11.9270   13.1840  -20.7720 C   0  0  0  0  0  0  0  0  0  0  0  0
   11.6960   15.5430  -22.0950 C   0  0  0  0  0  0  0  0  0  0  0  0
   11.2579   13.4633  -20.0833 H   0  0  0  0  0  0  0  0  0  0  0  0
   11.9895   12.1861  -20.7906 H   0  0  0  0  0  0  0  0  0  0  0  0
   12.8210   13.5698  -20.5440 H   0  0  0  0  0  0  0  0  0  0  0  0
   11.0125   15.8881  -21.4517 H   0  0  0  0  0  0  0  0  0  0  0  0
   12.6102   15.6703  -21.7101 H   0  0  0  0  0  0  0  0  0  0  0  0
   11.6248   16.0439  -22.9576 H   0  0  0  0  0  0  0  0  0  0  0  0
  1  2  2  0  0  0  0
  1  3  1  0  0  0  0
  1  4  1  0  0  0  0
  3  5  1  0  0  0  0
  3  6  1  0  0  0  0
  3  7  1  0  0  0  0
  4  8  1  0  0  0  0
  4  9  1  0  0  0  0
  4 10  1  0  0  0  0
M  END
$$$$
PG6_A_401
prProtoss 03122516343D 1   1.00000     0.00000     0
Protoss beta proteinsplus
 33 32  0  0  0  0            999 V2000
   14.8210   -7.3690  -35.4200 O   0  0  0  0  0  0  0  0  0  0  0  0
    8.0130   -4.2110  -33.8160 O   0  0  0  0  0  0  0  0  0  0  0  0
   11.8130   -6.7930  -37.2170 O   0  0  0  0  0  0  0  0  0  0  0  0
    9.6580   -3.9060  -37.0530 O   0  0  0  0  0  0  0  0  0  0  0  0
   15.8860   -6.9190  -36.2330 C   0  0  0  0  0  0  0  0  0  0  0  0
    8.0850   -6.4240  -32.9930 C   0  0  0  0  0  0  0  0  0  0  0  0
    7.2310   -5.2040  -33.2020 C   0  0  0  0  0  0  0  0  0  0  0  0
   13.6900   -7.8530  -36.1100 C   0  0  0  0  0  0  0  0  0  0  0  0
    8.3580   -4.5250  -35.1440 C   0  0  0  0  0  0  0  0  0  0  0  0
   13.2130   -6.8080  -37.0850 C   0  0  0  0  0  0  0  0  0  0  0  0
    9.3470   -3.5490  -35.7220 C   0  0  0  0  0  0  0  0  0  0  0  0
   11.3650   -5.5250  -37.6720 C   0  0  0  0  0  0  0  0  0  0  0  0
    9.9670   -5.2780  -37.1850 C   0  0  0  0  0  0  0  0  0  0  0  0
   16.6351   -6.5980  -35.6535 H   0  0  0  0  0  0  0  0  0  0  0  0
   16.2079   -7.6716  -36.8074 H   0  0  0  0  0  0  0  0  0  0  0  0
   15.5685   -6.1690  -36.8133 H   0  0  0  0  0  0  0  0  0  0  0  0
    7.5413   -7.1406  -32.5561 H   0  0  0  0  0  0  0  0  0  0  0  0
    8.4201   -6.7516  -33.8764 H   0  0  0  0  0  0  0  0  0  0  0  0
    8.8615   -6.1910  -32.4075 H   0  0  0  0  0  0  0  0  0  0  0  0
    6.4545   -5.4326  -33.7891 H   0  0  0  0  0  0  0  0  0  0  0  0
    6.8959   -4.8720  -32.3203 H   0  0  0  0  0  0  0  0  0  0  0  0
   12.9616   -8.0559  -35.4556 H   0  0  0  0  0  0  0  0  0  0  0  0
   13.9335   -8.6861  -36.6066 H   0  0  0  0  0  0  0  0  0  0  0  0
    7.5291   -4.5125  -35.7033 H   0  0  0  0  0  0  0  0  0  0  0  0
    8.7600   -5.4404  -35.1642 H   0  0  0  0  0  0  0  0  0  0  0  0
   13.5145   -5.9098  -36.7652 H   0  0  0  0  0  0  0  0  0  0  0  0
   13.6174   -6.9962  -37.9800 H   0  0  0  0  0  0  0  0  0  0  0  0
    8.9517   -2.6306  -35.7094 H   0  0  0  0  0  0  0  0  0  0  0  0
   10.1825   -3.5598  -35.1726 H   0  0  0  0  0  0  0  0  0  0  0  0
   11.3767   -5.5074  -38.6718 H   0  0  0  0  0  0  0  0  0  0  0  0
   11.9708   -4.8121  -37.3189 H   0  0  0  0  0  0  0  0  0  0  0  0
    9.3269   -5.6868  -37.8356 H   0  0  0  0  0  0  0  0  0  0  0  0
    9.8596   -5.7153  -36.2921 H   0  0  0  0  0  0  0  0  0  0  0  0
  1  5  1  0  0  0  0
  1  8  1  0  0  0  0
  2  7  1  0  0  0  0
  2  9  1  0  0  0  0
  3 10  1  0  0  0  0
  3 12  1  0  0  0  0
  4 11  1  0  0  0  0
  4 13  1  0  0  0  0
  6  7  1  0  0  0  0
  8 10  1  0  0  0  0
  9 11  1  0  0  0  0
 12 13  1  0  0  0  0
  5 14  1  0  0  0  0
  5 15  1  0  0  0  0
  5 16  1  0  0  0  0
  6 17  1  0  0  0  0
  6 18  1  0  0  0  0
  6 19  1  0  0  0  0
  7 20  1  0  0  0  0
  7 21  1  0  0  0  0
  8 22  1  0  0  0  0
  8 23  1  0  0  0  0
  9 24  1  0  0  0  0
  9 25  1  0  0  0  0
 10 26  1  0  0  0  0
 10 27  1  0  0  0  0
 11 28  1  0  0  0  0
 11 29  1  0  0  0  0
 12 30  1  0  0  0  0
 12 31  1  0  0  0  0
 13 32  1  0  0  0  0
 13 33  1  0  0  0  0
M  END
$$$$
186_A_402
prProtoss 03122516343D 1   1.00000     0.00000     0
Protoss beta proteinsplus
 37 37  0  0  0  0            999 V2000
   -8.6650    0.3720  -18.6410 O   0  0  0  0  0  0  0  0  0  0  0  0
  -16.2470    2.6690  -20.2930 O   0  0  0  0  0  0  0  0  0  0  0  0
   -9.2280    2.3440  -16.1580 O   0  0  0  0  0  0  0  0  0  0  0  0
  -14.8250    4.3860  -19.9290 O   0  0  0  0  0  0  0  0  0  0  0  0
  -12.8630    0.5410  -18.9440 O   0  0  0  0  0  0  0  0  0  0  0  0
   -9.9490    2.7150  -18.2520 N   0  0  0  0  0  0  0  0  0  0  0  0
  -12.8330    2.7460  -19.1300 N   0  0  0  0  0  0  0  0  0  0  0  0
  -15.8440    5.2890  -20.4010 C   0  0  0  0  0  0  0  0  0  0  0  0
   -8.7370    5.3490  -18.0450 C   0  0  0  0  0  0  0  0  0  0  0  0
   -6.9830    3.6090  -18.0860 C   0  0  0  0  0  0  0  0  0  0  0  0
   -7.6880    4.5970  -15.9260 C   0  0  0  0  0  0  0  0  0  0  0  0
  -10.0030    0.4280  -19.0920 C   0  0  0  0  0  0  0  0  0  0  0  0
  -14.1060    0.8980  -19.4060 C   0  0  0  0  0  0  0  0  0  0  0  0
  -15.1680    3.0980  -19.9460 C   0  0  0  0  0  0  0  0  0  0  0  0
   -9.1570    2.9850  -17.1960 C   0  0  0  0  0  0  0  0  0  0  0  0
  -12.1280    1.6790  -18.7990 C   0  0  0  0  0  0  0  0  0  0  0  0
  -14.0640    2.2430  -19.4970 C   0  0  0  0  0  0  0  0  0  0  0  0
  -10.7360    1.4760  -18.2760 C   0  0  2  0  0  0  0  0  0  0  0  0
   -8.1660    4.1470  -17.3090 C   0  0  0  0  0  0  0  0  0  0  0  0
   -8.5894   -0.2999  -17.9042 H   0  0  0  0  0  0  0  0  0  0  0  0
  -10.0006    3.3567  -19.0172 H   0  0  0  0  0  0  0  0  0  0  0  0
  -15.5045    6.2285  -20.3543 H   0  0  0  0  0  0  0  0  0  0  0  0
  -16.0755    5.0649  -21.3477 H   0  0  0  0  0  0  0  0  0  0  0  0
  -16.6591    5.2003  -19.8286 H   0  0  0  0  0  0  0  0  0  0  0  0
   -9.5193    5.7100  -17.5373 H   0  0  0  0  0  0  0  0  0  0  0  0
   -8.0348    6.0567  -18.1227 H   0  0  0  0  0  0  0  0  0  0  0  0
   -9.0324    5.0708  -18.9590 H   0  0  0  0  0  0  0  0  0  0  0  0
   -6.6020    2.8178  -17.6077 H   0  0  0  0  0  0  0  0  0  0  0  0
   -7.2817    3.3340  -18.9999 H   0  0  0  0  0  0  0  0  0  0  0  0
   -6.2840    4.3199  -18.1636 H   0  0  0  0  0  0  0  0  0  0  0  0
   -7.3101    3.8135  -15.4327 H   0  0  0  0  0  0  0  0  0  0  0  0
   -6.9823    5.2979  -16.0290 H   0  0  0  0  0  0  0  0  0  0  0  0
   -8.4594    4.9735  -15.4129 H   0  0  0  0  0  0  0  0  0  0  0  0
  -10.4393   -0.4632  -18.9683 H   0  0  0  0  0  0  0  0  0  0  0  0
  -10.0235    0.6777  -20.0601 H   0  0  0  0  0  0  0  0  0  0  0  0
  -14.8724    0.2945  -19.6261 H   0  0  0  0  0  0  0  0  0  0  0  0
  -10.8070    1.1394  -17.3370 H   0  0  0  0  0  0  0  0  0  0  0  0
  1 12  1  0  0  0  0
  2 14  2  0  0  0  0
  3 15  2  0  0  0  0
  4  8  1  0  0  0  0
  4 14  1  0  0  0  0
  5 13  1  0  0  0  0
  5 16  1  0  0  0  0
  6 15  1  0  0  0  0
  6 18  1  0  0  0  0
  7 16  2  0  0  0  0
  7 17  1  0  0  0  0
  9 19  1  0  0  0  0
 10 19  1  0  0  0  0
 11 19  1  0  0  0  0
 12 18  1  0  0  0  0
 13 17  2  0  0  0  0
 14 17  1  0  0  0  0
 15 19  1  0  0  0  0
 16 18  1  0  0  0  0
  1 20  1  0  0  0  0
  6 21  1  0  0  0  0
  8 22  1  0  0  0  0
  8 23  1  0  0  0  0
  8 24  1  0  0  0  0
  9 25  1  0  0  0  0
  9 26  1  0  0  0  0
  9 27  1  0  0  0  0
 10 28  1  0  0  0  0
 10 29  1  0  0  0  0
 10 30  1  0  0  0  0
 11 31  1  0  0  0  0
 11 32  1  0  0  0  0
 11 33  1  0  0  0  0
 12 34  1  0  0  0  0
 12 35  1  0  0  0  0
 13 36  1  0  0  0  0
 18 37  1  0  0  0  0
M  END
$$$$
DMS_D_1
prProtoss 03122516343D 1   1.00000     0.00000     0
Protoss beta proteinsplus
 10  9  0  0  0  0            999 V2000
    0.6720    2.6500  -26.8410 S   0  0  0  0  0  0  0  0  0  0  0  0
    2.0960    2.9050  -27.3390 O   0  0  0  0  0  0  0  0  0  0  0  0
    0.0750    1.0490  -27.3710 C   0  0  0  0  0  0  0  0  0  0  0  0
    0.7090    2.4080  -25.0680 C   0  0  0  0  0  0  0  0  0  0  0  0
   -0.8554    0.9111  -27.0314 H   0  0  0  0  0  0  0  0  0  0  0  0
    0.0748    1.0074  -28.3701 H   0  0  0  0  0  0  0  0  0  0  0  0
    0.6719    0.3337  -27.0077 H   0  0  0  0  0  0  0  0  0  0  0  0
   -0.2190    2.2406  -24.7350 H   0  0  0  0  0  0  0  0  0  0  0  0
    1.2879    1.6220  -24.8509 H   0  0  0  0  0  0  0  0  0  0  0  0
    1.0787    3.2261  -24.6276 H   0  0  0  0  0  0  0  0  0  0  0  0
  1  2  2  0  0  0  0
  1  3  1  0  0  0  0
  1  4  1  0  0  0  0
  3  5  1  0  0  0  0
  3  6  1  0  0  0  0
  3  7  1  0  0  0  0
  4  8  1  0  0  0  0
  4  9  1  0  0  0  0
  4 10  1  0  0  0  0
M  END
$$$$
DMS_D_2
prProtoss 03122516343D 1   1.00000     0.00000     0
Protoss beta proteinsplus
 10  9  0  0  0  0            999 V2000
   -5.0760    4.4730   -6.5950 S   0  0  0  0  0  0  0  0  0  0  0  0
   -5.4840    3.8100   -5.2970 O   0  0  0  0  0  0  0  0  0  0  0  0
   -5.9400    3.5980   -7.9150 C   0  0  0  0  0  0  0  0  0  0  0  0
   -6.0380    5.9850   -6.6050 C   0  0  0  0  0  0  0  0  0  0  0  0
   -5.6997    4.0038   -8.7968 H   0  0  0  0  0  0  0  0  0  0  0  0
   -5.6721    2.6346   -7.9073 H   0  0  0  0  0  0  0  0  0  0  0  0
   -6.9271    3.6706   -7.7726 H   0  0  0  0  0  0  0  0  0  0  0  0
   -5.8364    6.5029   -7.4364 H   0  0  0  0  0  0  0  0  0  0  0  0
   -7.0121    5.7605   -6.5802 H   0  0  0  0  0  0  0  0  0  0  0  0
   -5.8023    6.5354   -5.8040 H   0  0  0  0  0  0  0  0  0  0  0  0
  1  2  2  0  0  0  0
  1  3  1  0  0  0  0
  1  4  1  0  0  0  0
  3  5  1  0  0  0  0
  3  6  1  0  0  0  0
  3  7  1  0  0  0  0
  4  8  1  0  0  0  0
  4  9  1  0  0  0  0
  4 10  1  0  0  0  0
M  END
$$$$
DMS_D_3
prProtoss 03122516343D 1   1.00000     0.00000     0
Protoss beta proteinsplus
 10  9  0  0  0  0            999 V2000
  -23.8880   20.7740  -32.6200 S   0  0  0  0  0  0  0  0  0  0  0  0
  -23.3310   21.7390  -33.6770 O   0  0  0  0  0  0  0  0  0  0  0  0
  -25.2970   19.8950  -33.3310 C   0  0  0  0  0  0  0  0  0  0  0  0
  -22.7390   19.4270  -32.2760 C   0  0  0  0  0  0  0  0  0  0  0  0
  -25.6712   19.2618  -32.6535 H   0  0  0  0  0  0  0  0  0  0  0  0
  -26.0012   20.5535  -33.5965 H   0  0  0  0  0  0  0  0  0  0  0  0
  -24.9986   19.3832  -34.1366 H   0  0  0  0  0  0  0  0  0  0  0  0
  -23.1334   18.8205  -31.5856 H   0  0  0  0  0  0  0  0  0  0  0  0
  -22.5696   18.9108  -33.1155 H   0  0  0  0  0  0  0  0  0  0  0  0
  -21.8769   19.8029  -31.9361 H   0  0  0  0  0  0  0  0  0  0  0  0
  1  2  2  0  0  0  0
  1  3  1  0  0  0  0
  1  4  1  0  0  0  0
  3  5  1  0  0  0  0
  3  6  1  0  0  0  0
  3  7  1  0  0  0  0
  4  8  1  0  0  0  0
  4  9  1  0  0  0  0
  4 10  1  0  0  0  0
M  END
$$$$
DMS_D_4
prProtoss 03122516343D 1   1.00000     0.00000     0
Protoss beta proteinsplus
 10  9  0  0  0  0            999 V2000
   -3.9590   -8.5260  -16.4510 S   0  0  0  0  0  0  0  0  0  0  0  0
   -5.2500   -9.1870  -16.0740 O   0  0  0  0  0  0  0  0  0  0  0  0
   -3.6480   -9.1770  -18.0950 C   0  0  0  0  0  0  0  0  0  0  0  0
   -4.3370   -6.8170  -16.8530 C   0  0  0  0  0  0  0  0  0  0  0  0
   -2.7945   -8.7946  -18.4490 H   0  0  0  0  0  0  0  0  0  0  0  0
   -3.5738  -10.1732  -18.0505 H   0  0  0  0  0  0  0  0  0  0  0  0
   -4.4025   -8.9257  -18.7013 H   0  0  0  0  0  0  0  0  0  0  0  0
   -3.4960   -6.3413  -17.1107 H   0  0  0  0  0  0  0  0  0  0  0  0
   -4.9829   -6.7890  -17.6159 H   0  0  0  0  0  0  0  0  0  0  0  0
   -4.7426   -6.3690  -16.0562 H   0  0  0  0  0  0  0  0  0  0  0  0
  1  2  2  0  0  0  0
  1  3  1  0  0  0  0
  1  4  1  0  0  0  0
  3  5  1  0  0  0  0
  3  6  1  0  0  0  0
  3  7  1  0  0  0  0
  4  8  1  0  0  0  0
  4  9  1  0  0  0  0
  4 10  1  0  0  0  0
M  END
$$$$
DMS_D_7
prProtoss 03122516343D 1   1.00000     0.00000     0
Protoss beta proteinsplus
 10  9  0  0  0  0            999 V2000
  -20.2470   18.0740   -1.1550 S   0  0  0  0  0  0  0  0  0  0  0  0
  -19.2030   17.4740   -2.0850 O   0  0  0  0  0  0  0  0  0  0  0  0
  -21.8550   17.2950   -1.4480 C   0  0  0  0  0  0  0  0  0  0  0  0
  -19.9650   17.3550    0.4820 C   0  0  0  0  0  0  0  0  0  0  0  0
  -22.5356   17.6941   -0.8336 H   0  0  0  0  0  0  0  0  0  0  0  0
  -22.1317   17.4482   -2.3967 H   0  0  0  0  0  0  0  0  0  0  0  0
  -21.7858   16.3124   -1.2755 H   0  0  0  0  0  0  0  0  0  0  0  0
  -20.6333   17.7242    1.1278 H   0  0  0  0  0  0  0  0  0  0  0  0
  -20.0643   16.3612    0.4312 H   0  0  0  0  0  0  0  0  0  0  0  0
  -19.0416   17.5824    0.7914 H   0  0  0  0  0  0  0  0  0  0  0  0
  1  2  2  0  0  0  0
  1  3  1  0  0  0  0
  1  4  1  0  0  0  0
  3  5  1  0  0  0  0
  3  6  1  0  0  0  0
  3  7  1  0  0  0  0
  4  8  1  0  0  0  0
  4  9  1  0  0  0  0
  4 10  1  0  0  0  0
M  END
$$$$
DMS_D_8
prProtoss 03122516343D 1   1.00000     0.00000     0
Protoss beta proteinsplus
 10  9  0  0  0  0            999 V2000
    6.2170   10.6060  -20.2360 S   0  0  0  0  0  0  0  0  0  0  0  0
    6.2030    9.7460  -21.4840 O   0  0  0  0  0  0  0  0  0  0  0  0
    5.2830   12.0920  -20.6340 C   0  0  0  0  0  0  0  0  0  0  0  0
    5.0910    9.8290  -19.0570 C   0  0  0  0  0  0  0  0  0  0  0  0
    5.2627   12.6963  -19.8375 H   0  0  0  0  0  0  0  0  0  0  0  0
    5.7190   12.5646  -21.3999 H   0  0  0  0  0  0  0  0  0  0  0  0
    4.3484   11.8408  -20.8858 H   0  0  0  0  0  0  0  0  0  0  0  0
    5.0688   10.3660  -18.2137 H   0  0  0  0  0  0  0  0  0  0  0  0
    4.1726    9.7882  -19.4504 H   0  0  0  0  0  0  0  0  0  0  0  0
    5.4081    8.9026  -18.8540 H   0  0  0  0  0  0  0  0  0  0  0  0
  1  2  2  0  0  0  0
  1  3  1  0  0  0  0
  1  4  1  0  0  0  0
  3  5  1  0  0  0  0
  3  6  1  0  0  0  0
  3  7  1  0  0  0  0
  4  8  1  0  0  0  0
  4  9  1  0  0  0  0
  4 10  1  0  0  0  0
M  END
$$$$
DMS_D_9
prProtoss 03122516343D 1   1.00000     0.00000     0
Protoss beta proteinsplus
 10  9  0  0  0  0            999 V2000
  -14.7450  -11.9350  -25.6920 S   0  0  0  0  0  0  0  0  0  0  0  0
  -16.0100  -11.2100  -25.2650 O   0  0  0  0  0  0  0  0  0  0  0  0
  -13.6380  -11.9190  -24.2640 C   0  0  0  0  0  0  0  0  0  0  0  0
  -15.1370  -13.7000  -25.6920 C   0  0  0  0  0  0  0  0  0  0  0  0
  -12.7860  -12.3877  -24.4974 H   0  0  0  0  0  0  0  0  0  0  0  0
  -13.4386  -10.9733  -24.0074 H   0  0  0  0  0  0  0  0  0  0  0  0
  -14.0767  -12.3872  -23.4969 H   0  0  0  0  0  0  0  0  0  0  0  0
  -14.3294  -14.2208  -25.9685 H   0  0  0  0  0  0  0  0  0  0  0  0
  -15.4155  -13.9796  -24.7732 H   0  0  0  0  0  0  0  0  0  0  0  0
  -15.8830  -13.8758  -26.3344 H   0  0  0  0  0  0  0  0  0  0  0  0
  1  2  2  0  0  0  0
  1  3  1  0  0  0  0
  1  4  1  0  0  0  0
  3  5  1  0  0  0  0
  3  6  1  0  0  0  0
  3  7  1  0  0  0  0
  4  8  1  0  0  0  0
  4  9  1  0  0  0  0
  4 10  1  0  0  0  0
M  END
$$$$
DMS_D_10
prProtoss 03122516343D 1   1.00000     0.00000     0
Protoss beta proteinsplus
 10  9  0  0  0  0            999 V2000
   -9.7290   24.3270  -15.7230 S   0  0  0  0  0  0  0  0  0  0  0  0
  -10.7380   25.1240  -14.9250 O   0  0  0  0  0  0  0  0  0  0  0  0
   -8.8980   25.6990  -16.5670 C   0  0  0  0  0  0  0  0  0  0  0  0
   -8.3090   23.8830  -14.7270 C   0  0  0  0  0  0  0  0  0  0  0  0
   -8.1758   25.3387  -17.1575 H   0  0  0  0  0  0  0  0  0  0  0  0
   -9.5622   26.2009  -17.1210 H   0  0  0  0  0  0  0  0  0  0  0  0
   -8.4975   26.3144  -15.8881 H   0  0  0  0  0  0  0  0  0  0  0  0
   -7.6633   23.3587  -15.2821 H   0  0  0  0  0  0  0  0  0  0  0  0
   -7.8635   24.7135  -14.3927 H   0  0  0  0  0  0  0  0  0  0  0  0
   -8.6071   23.3287  -13.9499 H   0  0  0  0  0  0  0  0  0  0  0  0
  1  2  2  0  0  0  0
  1  3  1  0  0  0  0
  1  4  1  0  0  0  0
  3  5  1  0  0  0  0
  3  6  1  0  0  0  0
  3  7  1  0  0  0  0
  4  8  1  0  0  0  0
  4  9  1  0  0  0  0
  4 10  1  0  0  0  0
M  END
$$$$
188_A_401
prProtoss 03122516353D 1   1.00000     0.00000     0
Protoss beta proteinsplus
 37 38  0  0  0  0            999 V2000
  -16.3810   17.9500  -36.5200 Cl  0  0  0  0  0  0  0  0  0  0  0  0
  -18.4620   15.3430  -41.1410 O   0  0  0  0  0  0  0  0  0  0  0  0
  -17.0250   16.5310  -42.3940 O   0  5  0  0  0  0  0  0  0  0  0  0
  -22.0600   19.6360  -40.6860 O   0  0  0  0  0  0  0  0  0  0  0  0
  -22.5180   17.4460  -40.1790 N   0  0  0  0  0  0  0  0  0  0  0  0
  -20.5100   17.0970  -42.3040 N   0  3  0  0  0  0  0  0  0  0  0  0
  -23.8600   17.6590  -39.6880 C   0  0  0  0  0  0  0  0  0  0  0  0
  -21.2100   17.9610  -43.2980 C   0  0  0  0  0  0  0  0  0  0  0  0
  -20.3400   18.0910  -44.5430 C   0  0  0  0  0  0  0  0  0  0  0  0
  -18.6220   17.0600  -37.7460 C   0  0  0  0  0  0  0  0  0  0  0  0
  -17.3270   18.6120  -38.8820 C   0  0  0  0  0  0  0  0  0  0  0  0
  -18.9790   17.5790  -44.0750 C   0  0  0  0  0  0  0  0  0  0  0  0
  -19.5250   17.0120  -38.7610 C   0  0  0  0  0  0  0  0  0  0  0  0
  -18.2180   18.5620  -39.8700 C   0  0  0  0  0  0  0  0  0  0  0  0
  -18.1480   16.1650  -42.1840 C   0  0  0  0  0  0  0  0  0  0  0  0
  -21.6780   18.4640  -40.6410 C   0  0  0  0  0  0  0  0  0  0  0  0
  -17.5320   17.8550  -37.7940 C   0  0  0  0  0  0  0  0  0  0  0  0
  -19.3450   16.5290  -43.0250 C   0  0  1  0  0  0  0  0  0  0  0  0
  -20.2440   18.0090  -41.1460 C   0  0  1  0  0  0  0  0  0  0  0  0
  -19.3270   17.7870  -39.8780 C   0  0  0  0  0  0  0  0  0  0  0  0
  -22.1670   16.5097  -40.1891 H   0  0  0  0  0  0  0  0  0  0  0  0
  -24.2584   16.7830  -39.4161 H   0  0  0  0  0  0  0  0  0  0  0  0
  -23.8327   18.2722  -38.8985 H   0  0  0  0  0  0  0  0  0  0  0  0
  -24.4178   18.0692  -40.4096 H   0  0  0  0  0  0  0  0  0  0  0  0
  -21.3676   18.8661  -42.9032 H   0  0  0  0  0  0  0  0  0  0  0  0
  -22.0866   17.5471  -43.5434 H   0  0  0  0  0  0  0  0  0  0  0  0
  -20.2812   19.0437  -44.8412 H   0  0  0  0  0  0  0  0  0  0  0  0
  -20.6967   17.5294  -45.2896 H   0  0  0  0  0  0  0  0  0  0  0  0
  -18.7697   16.4887  -36.9387 H   0  0  0  0  0  0  0  0  0  0  0  0
  -16.5220   19.2014  -38.9497 H   0  0  0  0  0  0  0  0  0  0  0  0
  -18.4375   18.3165  -43.6715 H   0  0  0  0  0  0  0  0  0  0  0  0
  -18.4707   17.1679  -44.8317 H   0  0  0  0  0  0  0  0  0  0  0  0
  -20.3265   16.4177  -38.6952 H   0  0  0  0  0  0  0  0  0  0  0  0
  -18.0549   19.1422  -40.6680 H   0  0  0  0  0  0  0  0  0  0  0  0
  -19.6489   15.7053  -43.5038 H   0  0  0  0  0  0  0  0  0  0  0  0
  -19.8682   18.8322  -41.5715 H   0  0  0  0  0  0  0  0  0  0  0  0
  -21.1184   16.3577  -42.0154 H   0  0  0  0  0  0  0  0  0  0  0  0
  1 17  1  0  0  0  0
  2 15  2  0  0  0  0
  3 15  1  0  0  0  0
  4 16  2  0  0  0  0
  5  7  1  0  0  0  0
  5 16  1  0  0  0  0
  6  8  1  0  0  0  0
  6 18  1  0  0  0  0
  6 19  1  0  0  0  0
  8  9  1  0  0  0  0
  9 12  1  0  0  0  0
 10 13  2  0  0  0  0
 10 17  1  0  0  0  0
 11 14  1  0  0  0  0
 11 17  2  0  0  0  0
 12 18  1  0  0  0  0
 13 20  1  0  0  0  0
 14 20  2  0  0  0  0
 15 18  1  0  0  0  0
 16 19  1  0  0  0  0
 19 20  1  0  0  0  0
 19 36  1  0  0  0  0
  5 21  1  0  0  0  0
  7 22  1  0  0  0  0
  7 23  1  0  0  0  0
  7 24  1  0  0  0  0
  8 25  1  0  0  0  0
  8 26  1  0  0  0  0
  9 27  1  0  0  0  0
  9 28  1  0  0  0  0
 10 29  1  0  0  0  0
 11 30  1  0  0  0  0
 12 31  1  0  0  0  0
 12 32  1  0  0  0  0
 13 33  1  0  0  0  0
 14 34  1  0  0  0  0
 18 35  1  0  0  0  0
  6 37  1  0  0  0  0
M  CHG  2   3  -1   6   1
M  END
$$$$
188_A_501
prProtoss 03122516353D 1   1.00000     0.00000     0
Protoss beta proteinsplus
 37 38  0  0  0  0            999 V2000
   -7.3320    7.0540  -13.0920 Cl  0  0  0  0  0  0  0  0  0  0  0  0
   -7.6150   -0.3480  -18.6790 O   0  0  0  0  0  0  0  0  0  0  0  0
   -6.1880    0.2900  -17.0830 O   0  5  0  0  0  0  0  0  0  0  0  0
   -9.2660    2.2920  -17.7960 O   0  0  0  0  0  0  0  0  0  0  0  0
   -9.9420    4.2660  -18.7690 N   0  0  0  0  0  0  0  0  0  0  0  0
   -6.4030    2.9940  -18.2020 N   0  3  0  0  0  0  0  0  0  0  0  0
   -9.7470    5.6100  -19.2510 C   0  0  0  0  0  0  0  0  0  0  0  0
   -5.0680    3.5580  -18.4820 C   0  0  0  0  0  0  0  0  0  0  0  0
   -4.6320    2.9440  -19.8100 C   0  0  0  0  0  0  0  0  0  0  0  0
   -7.3520    4.7180  -14.4300 C   0  0  0  0  0  0  0  0  0  0  0  0
   -7.4210    6.7190  -15.6370 C   0  0  0  0  0  0  0  0  0  0  0  0
   -5.4270    1.6620  -19.9740 C   0  0  0  0  0  0  0  0  0  0  0  0
   -7.4090    3.9990  -15.5550 C   0  0  0  0  0  0  0  0  0  0  0  0
   -7.4600    6.0190  -16.7640 C   0  0  0  0  0  0  0  0  0  0  0  0
   -6.7460    0.5360  -18.1400 C   0  0  0  0  0  0  0  0  0  0  0  0
   -8.9810    3.4190  -18.2050 C   0  0  0  0  0  0  0  0  0  0  0  0
   -7.3710    6.0610  -14.4830 C   0  0  0  0  0  0  0  0  0  0  0  0
   -6.6140    1.7750  -19.0160 C   0  0  1  0  0  0  0  0  0  0  0  0
   -7.5160    3.9830  -18.0910 C   0  0  1  0  0  0  0  0  0  0  0  0
   -7.4610    4.6730  -16.7410 C   0  0  0  0  0  0  0  0  0  0  0  0
  -10.8682    3.8970  -18.8462 H   0  0  0  0  0  0  0  0  0  0  0  0
  -10.6131    5.9680  -19.5998 H   0  0  0  0  0  0  0  0  0  0  0  0
   -9.4243    6.1891  -18.5023 H   0  0  0  0  0  0  0  0  0  0  0  0
   -9.0682    5.6056  -19.9853 H   0  0  0  0  0  0  0  0  0  0  0  0
   -4.4259    3.3115  -17.7561 H   0  0  0  0  0  0  0  0  0  0  0  0
   -5.1189    4.5538  -18.5580 H   0  0  0  0  0  0  0  0  0  0  0  0
   -3.6525    2.7432  -19.7927 H   0  0  0  0  0  0  0  0  0  0  0  0
   -4.8302    3.5720  -20.5625 H   0  0  0  0  0  0  0  0  0  0  0  0
   -7.2950    4.2552  -13.5454 H   0  0  0  0  0  0  0  0  0  0  0  0
   -7.4290    7.7188  -15.6556 H   0  0  0  0  0  0  0  0  0  0  0  0
   -4.8632    0.8710  -19.7365 H   0  0  0  0  0  0  0  0  0  0  0  0
   -5.7488    1.5711  -20.9164 H   0  0  0  0  0  0  0  0  0  0  0  0
   -7.4134    2.9994  -15.5289 H   0  0  0  0  0  0  0  0  0  0  0  0
   -7.4890    6.4976  -17.6415 H   0  0  0  0  0  0  0  0  0  0  0  0
   -7.4520    1.8840  -19.5506 H   0  0  0  0  0  0  0  0  0  0  0  0
   -7.3912    4.6755  -18.8016 H   0  0  0  0  0  0  0  0  0  0  0  0
   -6.3144    2.6390  -17.2713 H   0  0  0  0  0  0  0  0  0  0  0  0
  1 17  1  0  0  0  0
  2 15  2  0  0  0  0
  3 15  1  0  0  0  0
  4 16  2  0  0  0  0
  5  7  1  0  0  0  0
  5 16  1  0  0  0  0
  6  8  1  0  0  0  0
  6 18  1  0  0  0  0
  6 19  1  0  0  0  0
  8  9  1  0  0  0  0
  9 12  1  0  0  0  0
 10 13  2  0  0  0  0
 10 17  1  0  0  0  0
 11 14  1  0  0  0  0
 11 17  2  0  0  0  0
 12 18  1  0  0  0  0
 13 20  1  0  0  0  0
 14 20  2  0  0  0  0
 15 18  1  0  0  0  0
 16 19  1  0  0  0  0
 19 20  1  0  0  0  0
 19 36  1  0  0  0  0
  5 21  1  0  0  0  0
  7 22  1  0  0  0  0
  7 23  1  0  0  0  0
  7 24  1  0  0  0  0
  8 25  1  0  0  0  0
  8 26  1  0  0  0  0
  9 27  1  0  0  0  0
  9 28  1  0  0  0  0
 10 29  1  0  0  0  0
 11 30  1  0  0  0  0
 12 31  1  0  0  0  0
 12 32  1  0  0  0  0
 13 33  1  0  0  0  0
 14 34  1  0  0  0  0
 18 35  1  0  0  0  0
  6 37  1  0  0  0  0
M  CHG  2   3  -1   6   1
M  END
$$$$
DMS_A_601
prProtoss 03122516353D 1   1.00000     0.00000     0
Protoss beta proteinsplus
 10  9  0  0  0  0            999 V2000
   -9.4980   24.6530  -15.7550 S   0  0  0  0  0  0  0  0  0  0  0  0
  -10.6420   25.1690  -14.8970 O   0  0  0  0  0  0  0  0  0  0  0  0
   -8.6380   26.1680  -16.2670 C   0  0  0  0  0  0  0  0  0  0  0  0
   -8.2000   24.1060  -14.6180 C   0  0  0  0  0  0  0  0  0  0  0  0
   -7.8574   25.9292  -16.8446 H   0  0  0  0  0  0  0  0  0  0  0  0
   -9.2672   26.7509  -16.7812 H   0  0  0  0  0  0  0  0  0  0  0  0
   -8.3159   26.6583  -15.4572 H   0  0  0  0  0  0  0  0  0  0  0  0
   -7.4233   23.7567  -15.1421 H   0  0  0  0  0  0  0  0  0  0  0  0
   -7.9027   24.8775  -14.0555 H   0  0  0  0  0  0  0  0  0  0  0  0
   -8.5570   23.3816  -14.0283 H   0  0  0  0  0  0  0  0  0  0  0  0
  1  2  2  0  0  0  0
  1  3  1  0  0  0  0
  1  4  1  0  0  0  0
  3  5  1  0  0  0  0
  3  6  1  0  0  0  0
  3  7  1  0  0  0  0
  4  8  1  0  0  0  0
  4  9  1  0  0  0  0
  4 10  1  0  0  0  0
M  END
$$$$
DMS_A_701
prProtoss 03122516353D 1   1.00000     0.00000     0
Protoss beta proteinsplus
 10  9  0  0  0  0            999 V2000
  -23.6360   20.7420  -32.3240 S   0  0  0  0  0  0  0  0  0  0  0  0
  -23.2800   21.6240  -33.5260 O   0  0  0  0  0  0  0  0  0  0  0  0
  -25.0210   19.6760  -32.7880 C   0  0  0  0  0  0  0  0  0  0  0  0
  -22.3860   19.4500  -32.1110 C   0  0  0  0  0  0  0  0  0  0  0  0
  -25.2667   19.0928  -32.0138 H   0  0  0  0  0  0  0  0  0  0  0  0
  -25.8060   20.2410  -33.0420 H   0  0  0  0  0  0  0  0  0  0  0  0
  -24.7562   19.1047  -33.5649 H   0  0  0  0  0  0  0  0  0  0  0  0
  -22.6263   18.8800  -31.3253 H   0  0  0  0  0  0  0  0  0  0  0  0
  -22.3482   18.8838  -32.9344 H   0  0  0  0  0  0  0  0  0  0  0  0
  -21.4930   19.8725  -31.9557 H   0  0  0  0  0  0  0  0  0  0  0  0
  1  2  2  0  0  0  0
  1  3  1  0  0  0  0
  1  4  1  0  0  0  0
  3  5  1  0  0  0  0
  3  6  1  0  0  0  0
  3  7  1  0  0  0  0
  4  8  1  0  0  0  0
  4  9  1  0  0  0  0
  4 10  1  0  0  0  0
M  END
$$$$
189_A_401
prProtoss 03122516363D 1   1.00000     0.00000     0
Protoss beta proteinsplus
 36 37  0  0  0  0            999 V2000
  -19.0580   -0.9890    0.7290 S   0  0  0  0  0  0  0  0  0  0  0  0
  -17.8310   -0.3840    0.2740 O   0  0  0  0  0  0  0  0  0  0  0  0
  -20.3040   -0.2870    0.5510 O   0  0  0  0  0  0  0  0  0  0  0  0
  -19.8760   -3.6510   -2.7020 O   0  0  0  0  0  0  0  0  0  0  0  0
  -23.0980   -2.8190   -0.0240 O   0  0  0  0  0  0  0  0  0  0  0  0
  -20.6010   -5.1560   -0.2520 O   0  0  0  0  0  0  0  0  0  0  0  0
  -19.4100   -2.3460   -0.1820 N   0  0  0  0  0  0  0  0  0  0  0  0
  -18.6160   -2.9440    6.3700 C   0  0  0  0  0  0  0  0  0  0  0  0
  -21.0540   -4.4270   -2.5700 C   0  0  0  0  0  0  0  0  0  0  0  0
  -20.4690   -4.3180    0.9040 C   0  0  0  0  0  0  0  0  0  0  0  0
  -17.7210   -1.9070    2.8870 C   0  0  0  0  0  0  0  0  0  0  0  0
  -20.0210   -1.6470    3.1760 C   0  0  0  0  0  0  0  0  0  0  0  0
  -17.6160   -2.3500    4.1660 C   0  0  0  0  0  0  0  0  0  0  0  0
  -19.9230   -2.1130    4.4380 C   0  0  0  0  0  0  0  0  0  0  0  0
  -18.9270   -1.5620    2.3830 C   0  0  0  0  0  0  0  0  0  0  0  0
  -21.7980   -3.0300   -0.6120 C   0  0  2  0  0  0  0  0  0  0  0  0
  -21.5450   -4.4490   -1.1300 C   0  0  2  0  0  0  0  0  0  0  0  0
  -20.6580   -2.9020    0.4010 C   0  0  2  0  0  0  0  0  0  0  0  0
  -18.7190   -2.4640    4.9500 C   0  0  0  0  0  0  0  0  0  0  0  0
  -19.6188   -3.2810   -1.8093 H   0  0  0  0  0  0  0  0  0  0  0  0
  -23.8061   -3.0060   -0.7049 H   0  0  0  0  0  0  0  0  0  0  0  0
  -18.6671   -3.0124   -0.1180 H   0  0  0  0  0  0  0  0  0  0  0  0
  -19.5266   -2.9611    6.7830 H   0  0  0  0  0  0  0  0  0  0  0  0
  -18.2267   -3.8650    6.3831 H   0  0  0  0  0  0  0  0  0  0  0  0
  -18.0262   -2.3253    6.8890 H   0  0  0  0  0  0  0  0  0  0  0  0
  -20.8612   -5.3636   -2.8625 H   0  0  0  0  0  0  0  0  0  0  0  0
  -21.7678   -4.0365   -3.1513 H   0  0  0  0  0  0  0  0  0  0  0  0
  -19.5625   -4.4258    1.3121 H   0  0  0  0  0  0  0  0  0  0  0  0
  -21.1687   -4.5445    1.5816 H   0  0  0  0  0  0  0  0  0  0  0  0
  -16.9034   -1.8356    2.3157 H   0  0  0  0  0  0  0  0  0  0  0  0
  -20.9116   -1.3611    2.8222 H   0  0  0  0  0  0  0  0  0  0  0  0
  -16.7188   -2.5944    4.5339 H   0  0  0  0  0  0  0  0  0  0  0  0
  -20.7455   -2.2000    5.0000 H   0  0  0  0  0  0  0  0  0  0  0  0
  -21.6584   -2.3749   -1.3545 H   0  0  0  0  0  0  0  0  0  0  0  0
  -22.4139   -4.9435   -1.1089 H   0  0  0  0  0  0  0  0  0  0  0  0
  -20.9548   -2.3206    1.1586 H   0  0  0  0  0  0  0  0  0  0  0  0
  1  2  2  0  0  0  0
  1  3  2  0  0  0  0
  1  7  1  0  0  0  0
  1 15  1  0  0  0  0
  4  9  1  0  0  0  0
  5 16  1  0  0  0  0
  6 10  1  0  0  0  0
  6 17  1  0  0  0  0
  7 18  1  0  0  0  0
  8 19  1  0  0  0  0
  9 17  1  0  0  0  0
 10 18  1  0  0  0  0
 11 13  1  0  0  0  0
 11 15  2  0  0  0  0
 12 14  2  0  0  0  0
 12 15  1  0  0  0  0
 13 19  2  0  0  0  0
 14 19  1  0  0  0  0
 16 17  1  0  0  0  0
 16 18  1  0  0  0  0
  4 20  1  0  0  0  0
  5 21  1  0  0  0  0
  7 22  1  0  0  0  0
  8 23  1  0  0  0  0
  8 24  1  0  0  0  0
  8 25  1  0  0  0  0
  9 26  1  0  0  0  0
  9 27  1  0  0  0  0
 10 28  1  0  0  0  0
 10 29  1  0  0  0  0
 11 30  1  0  0  0  0
 12 31  1  0  0  0  0
 13 32  1  0  0  0  0
 14 33  1  0  0  0  0
 16 34  1  0  0  0  0
 17 35  1  0  0  0  0
 18 36  1  0  0  0  0
M  END
$$$$
DMS_A_402
prProtoss 03122516363D 1   1.00000     0.00000     0
Protoss beta proteinsplus
 10  9  0  0  0  0            999 V2000
  -16.2030   24.6670  -33.0530 S   0  0  0  0  0  0  0  0  0  0  0  0
  -15.1340   25.2430  -33.9630 O   0  0  0  0  0  0  0  0  0  0  0  0
  -17.4870   23.9910  -34.1070 C   0  0  0  0  0  0  0  0  0  0  0  0
  -17.1510   26.1030  -32.4920 C   0  0  0  0  0  0  0  0  0  0  0  0
  -18.2124   23.6005  -33.5401 H   0  0  0  0  0  0  0  0  0  0  0  0
  -17.8661   24.7184  -34.6790 H   0  0  0  0  0  0  0  0  0  0  0  0
  -17.0985   23.2771  -34.6896 H   0  0  0  0  0  0  0  0  0  0  0  0
  -17.8827   25.8013  -31.8808 H   0  0  0  0  0  0  0  0  0  0  0  0
  -16.5461   26.7314  -32.0029 H   0  0  0  0  0  0  0  0  0  0  0  0
  -17.5480   26.5698  -33.2823 H   0  0  0  0  0  0  0  0  0  0  0  0
  1  2  2  0  0  0  0
  1  3  1  0  0  0  0
  1  4  1  0  0  0  0
  3  5  1  0  0  0  0
  3  6  1  0  0  0  0
  3  7  1  0  0  0  0
  4  8  1  0  0  0  0
  4  9  1  0  0  0  0
  4 10  1  0  0  0  0
M  END
$$$$
189_A_501
prProtoss 03122516363D 1   1.00000     0.00000     0
Protoss beta proteinsplus
 23 23  0  0  0  0            999 V2000
   -5.9620   16.8870   -7.4260 S   0  0  0  0  0  0  0  0  0  0  0  0
   -5.4730   18.1000   -6.7940 O   0  0  0  0  0  0  0  0  0  0  0  0
   -5.0480   15.8190   -7.7880 O   0  0  0  0  0  0  0  0  0  0  0  0
   -7.0150   16.2250   -6.2630 N   0  0  0  0  0  0  0  0  0  0  0  0
   -8.4090   16.7100   -6.0760 C   0  0  0  0  0  0  0  0  0  0  0  0
   -9.3150   18.3790  -12.1220 C   0  0  0  0  0  0  0  0  0  0  0  0
   -7.9270   18.2100   -8.6790 C   0  0  0  0  0  0  0  0  0  0  0  0
   -6.6670   16.7700  -10.0220 C   0  0  0  0  0  0  0  0  0  0  0  0
   -8.6840   18.5470   -9.7360 C   0  0  0  0  0  0  0  0  0  0  0  0
   -7.4290   17.1180  -11.0770 C   0  0  0  0  0  0  0  0  0  0  0  0
   -6.9260   17.3200   -8.8160 C   0  0  0  0  0  0  0  0  0  0  0  0
   -8.4470   18.0040  -10.9480 C   0  0  0  0  0  0  0  0  0  0  0  0
   -6.5604   16.3402   -5.3798 H   0  0  0  0  0  0  0  0  0  0  0  0
   -8.8487   16.1872   -5.3456 H   0  0  0  0  0  0  0  0  0  0  0  0
   -8.3946   17.6792   -5.8300 H   0  0  0  0  0  0  0  0  0  0  0  0
   -8.9208   16.5896   -6.9266 H   0  0  0  0  0  0  0  0  0  0  0  0
   -9.0038   17.8894  -12.9365 H   0  0  0  0  0  0  0  0  0  0  0  0
  -10.2642   18.1321  -11.9270 H   0  0  0  0  0  0  0  0  0  0  0  0
   -9.2528   19.3643  -12.2813 H   0  0  0  0  0  0  0  0  0  0  0  0
   -8.1077   18.6221   -7.7859 H   0  0  0  0  0  0  0  0  0  0  0  0
   -5.9202   16.1138  -10.1303 H   0  0  0  0  0  0  0  0  0  0  0  0
   -9.4286   19.2051   -9.6238 H   0  0  0  0  0  0  0  0  0  0  0  0
   -7.2401   16.7150  -11.9725 H   0  0  0  0  0  0  0  0  0  0  0  0
  1  2  2  0  0  0  0
  1  3  2  0  0  0  0
  1  4  1  0  0  0  0
  1 11  1  0  0  0  0
  4  5  1  0  0  0  0
  6 12  1  0  0  0  0
  7  9  1  0  0  0  0
  7 11  2  0  0  0  0
  8 10  2  0  0  0  0
  8 11  1  0  0  0  0
  9 12  2  0  0  0  0
 10 12  1  0  0  0  0
  4 13  1  0  0  0  0
  5 14  1  0  0  0  0
  5 15  1  0  0  0  0
  5 16  1  0  0  0  0
  6 17  1  0  0  0  0
  6 18  1  0  0  0  0
  6 19  1  0  0  0  0
  7 20  1  0  0  0  0
  8 21  1  0  0  0  0
  9 22  1  0  0  0  0
 10 23  1  0  0  0  0
M  END
$$$$
DMS_A_601
prProtoss 03122516363D 1   1.00000     0.00000     0
Protoss beta proteinsplus
 10  9  0  0  0  0            999 V2000
  -11.0300  -11.2010  -22.8710 S   0  0  0  0  0  0  0  0  0  0  0  0
  -11.2870  -12.2250  -21.7910 O   0  0  0  0  0  0  0  0  0  0  0  0
   -9.4350  -11.4200  -23.6990 C   0  0  0  0  0  0  0  0  0  0  0  0
  -12.1730  -11.3660  -24.2580 C   0  0  0  0  0  0  0  0  0  0  0  0
   -9.3238  -10.7155  -24.3999 H   0  0  0  0  0  0  0  0  0  0  0  0
   -8.6976  -11.3420  -23.0280 H   0  0  0  0  0  0  0  0  0  0  0  0
   -9.4026  -12.3235  -24.1264 H   0  0  0  0  0  0  0  0  0  0  0  0
  -11.9655  -10.6701  -24.9455 H   0  0  0  0  0  0  0  0  0  0  0  0
  -12.0758  -12.2748  -24.6637 H   0  0  0  0  0  0  0  0  0  0  0  0
  -13.1110  -11.2445  -23.9332 H   0  0  0  0  0  0  0  0  0  0  0  0
  1  2  2  0  0  0  0
  1  3  1  0  0  0  0
  1  4  1  0  0  0  0
  3  5  1  0  0  0  0
  3  6  1  0  0  0  0
  3  7  1  0  0  0  0
  4  8  1  0  0  0  0
  4  9  1  0  0  0  0
  4 10  1  0  0  0  0
M  END
$$$$
PG4_A_401
prProtoss 03122516363D 1   1.00000     0.00000     0
Protoss beta proteinsplus
 31 30  0  0  0  0            999 V2000
  -15.8330   29.0650  -13.0600 O   0  0  0  0  0  0  0  0  0  0  0  0
   -8.2280   29.6560  -16.3800 O   0  0  0  0  0  0  0  0  0  0  0  0
  -12.8730   29.0800  -12.5460 O   0  0  0  0  0  0  0  0  0  0  0  0
   -8.5090   31.2500  -14.0290 O   0  0  0  0  0  0  0  0  0  0  0  0
  -10.7650   30.7960  -12.1240 O   0  0  0  0  0  0  0  0  0  0  0  0
  -14.7990   28.5130  -13.8430 C   0  0  0  0  0  0  0  0  0  0  0  0
   -7.3940   30.7620  -16.0860 C   0  0  0  0  0  0  0  0  0  0  0  0
  -13.6840   28.0120  -12.9590 C   0  0  0  0  0  0  0  0  0  0  0  0
   -8.1530   31.7860  -15.2790 C   0  0  0  0  0  0  0  0  0  0  0  0
  -11.8420   28.7110  -11.6640 C   0  0  0  0  0  0  0  0  0  0  0  0
   -9.1300   32.1620  -13.1600 C   0  0  0  0  0  0  0  0  0  0  0  0
  -11.1660   29.9350  -11.0870 C   0  0  0  0  0  0  0  0  0  0  0  0
   -9.5510   31.4600  -11.8900 C   0  0  0  0  0  0  0  0  0  0  0  0
  -16.5648   29.3929  -13.6575 H   0  0  0  0  0  0  0  0  0  0  0  0
   -9.1337   29.8069  -15.9838 H   0  0  0  0  0  0  0  0  0  0  0  0
  -14.4415   29.2145  -14.4595 H   0  0  0  0  0  0  0  0  0  0  0  0
  -15.1622   27.7514  -14.3797 H   0  0  0  0  0  0  0  0  0  0  0  0
   -7.0840   31.1785  -16.9407 H   0  0  0  0  0  0  0  0  0  0  0  0
   -6.6023   30.4487  -15.5615 H   0  0  0  0  0  0  0  0  0  0  0  0
  -14.0760   27.5652  -12.1548 H   0  0  0  0  0  0  0  0  0  0  0  0
  -13.1292   27.3543  -13.4685 H   0  0  0  0  0  0  0  0  0  0  0  0
   -7.5768   32.5916  -15.1413 H   0  0  0  0  0  0  0  0  0  0  0  0
   -8.9812   32.0492  -15.7738 H   0  0  0  0  0  0  0  0  0  0  0  0
  -11.1658   28.1659  -12.1596 H   0  0  0  0  0  0  0  0  0  0  0  0
  -12.2271   28.1670  -10.9185 H   0  0  0  0  0  0  0  0  0  0  0  0
   -9.9362   32.5494  -13.6072 H   0  0  0  0  0  0  0  0  0  0  0  0
   -8.4884   32.8956  -12.9359 H   0  0  0  0  0  0  0  0  0  0  0  0
  -11.8059   30.4149  -10.4868 H   0  0  0  0  0  0  0  0  0  0  0  0
  -10.3633   29.6533  -10.5613 H   0  0  0  0  0  0  0  0  0  0  0  0
   -8.8509   30.7974  -11.6239 H   0  0  0  0  0  0  0  0  0  0  0  0
   -9.6701   32.1311  -11.1582 H   0  0  0  0  0  0  0  0  0  0  0  0
  1  6  1  0  0  0  0
  2  7  1  0  0  0  0
  3  8  1  0  0  0  0
  3 10  1  0  0  0  0
  4  9  1  0  0  0  0
  4 11  1  0  0  0  0
  5 12  1  0  0  0  0
  5 13  1  0  0  0  0
  6  8  1  0  0  0  0
  7  9  1  0  0  0  0
 10 12  1  0  0  0  0
 11 13  1  0  0  0  0
  1 14  1  0  0  0  0
  2 15  1  0  0  0  0
  6 16  1  0  0  0  0
  6 17  1  0  0  0  0
  7 18  1  0  0  0  0
  7 19  1  0  0  0  0
  8 20  1  0  0  0  0
  8 21  1  0  0  0  0
  9 22  1  0  0  0  0
  9 23  1  0  0  0  0
 10 24  1  0  0  0  0
 10 25  1  0  0  0  0
 11 26  1  0  0  0  0
 11 27  1  0  0  0  0
 12 28  1  0  0  0  0
 12 29  1  0  0  0  0
 13 30  1  0  0  0  0
 13 31  1  0  0  0  0
M  END
$$$$
203_B_1
prProtoss 03122516363D 1   1.00000     0.00000     0
Protoss beta proteinsplus
 34 35  0  0  0  0            999 V2000
  -16.5320    2.1050  -20.3640 F   0  0  0  0  0  0  0  0  0  0  0  0
  -11.6520    5.9590  -19.4360 O   0  0  0  0  0  0  0  0  0  0  0  0
   -7.3600    6.8100  -16.8010 O   0  0  0  0  0  0  0  0  0  0  0  0
   -8.7580    3.6310  -16.4110 O   0  0  0  0  0  0  0  0  0  0  0  0
   -5.6770    3.6560  -16.6500 N   0  3  0  0  0  0  0  0  0  0  0  0
  -10.5980    4.0340  -18.8510 N   0  0  0  0  0  0  0  0  0  0  0  0
   -7.8240    3.9040  -15.3530 C   0  0  0  0  0  0  0  0  0  0  0  0
   -9.2820    4.6660  -18.6490 C   0  0  0  0  0  0  0  0  0  0  0  0
  -15.3570    4.1260  -20.0360 C   0  0  0  0  0  0  0  0  0  0  0  0
  -14.2810    2.0260  -19.8330 C   0  0  0  0  0  0  0  0  0  0  0  0
  -14.1690    4.7730  -19.7570 C   0  0  0  0  0  0  0  0  0  0  0  0
  -13.0990    2.6640  -19.5600 C   0  0  0  0  0  0  0  0  0  0  0  0
  -15.3860    2.7650  -20.0780 C   0  0  0  0  0  0  0  0  0  0  0  0
  -11.7220    4.7580  -19.2490 C   0  0  0  0  0  0  0  0  0  0  0  0
   -7.3680    5.4310  -17.1430 C   0  0  2  0  0  0  0  0  0  0  0  0
   -8.7830    4.8540  -17.2140 C   0  0  2  0  0  0  0  0  0  0  0  0
   -6.6690    4.5700  -16.0770 C   0  0  2  0  0  0  0  0  0  0  0  0
  -13.0270    4.0370  -19.5180 C   0  0  0  0  0  0  0  0  0  0  0  0
   -6.9277    7.3331  -17.5355 H   0  0  0  0  0  0  0  0  0  0  0  0
   -4.9595    4.1846  -17.1036 H   0  0  0  0  0  0  0  0  0  0  0  0
   -5.2734    3.1028  -15.9213 H   0  0  0  0  0  0  0  0  0  0  0  0
  -10.6885    3.0501  -18.6971 H   0  0  0  0  0  0  0  0  0  0  0  0
   -7.5289    3.0587  -14.9076 H   0  0  0  0  0  0  0  0  0  0  0  0
   -8.2226    4.5181  -14.6718 H   0  0  0  0  0  0  0  0  0  0  0  0
   -9.3201    5.5719  -19.0708 H   0  0  0  0  0  0  0  0  0  0  0  0
   -8.6067    4.1041  -19.1266 H   0  0  0  0  0  0  0  0  0  0  0  0
  -16.1897    4.6530  -20.2059 H   0  0  0  0  0  0  0  0  0  0  0  0
  -14.3253    1.0271  -19.8507 H   0  0  0  0  0  0  0  0  0  0  0  0
  -14.1368    5.7721  -19.7283 H   0  0  0  0  0  0  0  0  0  0  0  0
  -12.2758    2.1227  -19.3886 H   0  0  0  0  0  0  0  0  0  0  0  0
   -6.9125    5.3042  -18.0241 H   0  0  0  0  0  0  0  0  0  0  0  0
   -9.3971    5.5009  -16.7619 H   0  0  0  0  0  0  0  0  0  0  0  0
   -6.2033    5.1791  -15.4350 H   0  0  0  0  0  0  0  0  0  0  0  0
   -6.1213    3.0569  -17.3161 H   0  0  0  0  0  0  0  0  0  0  0  0
  1 13  1  0  0  0  0
  2 14  2  0  0  0  0
  3 15  1  0  0  0  0
  4  7  1  0  0  0  0
  4 16  1  0  0  0  0
  5 17  1  0  0  0  0
  6  8  1  0  0  0  0
  6 14  1  0  0  0  0
  7 17  1  0  0  0  0
  8 16  1  0  0  0  0
  9 11  1  0  0  0  0
  9 13  2  0  0  0  0
 10 12  2  0  0  0  0
 10 13  1  0  0  0  0
 11 18  2  0  0  0  0
 12 18  1  0  0  0  0
 14 18  1  0  0  0  0
 15 16  1  0  0  0  0
 15 17  1  0  0  0  0
  3 19  1  0  0  0  0
  5 20  1  0  0  0  0
  5 21  1  0  0  0  0
  6 22  1  0  0  0  0
  7 23  1  0  0  0  0
  7 24  1  0  0  0  0
  8 25  1  0  0  0  0
  8 26  1  0  0  0  0
  9 27  1  0  0  0  0
 10 28  1  0  0  0  0
 11 29  1  0  0  0  0
 12 30  1  0  0  0  0
 15 31  1  0  0  0  0
 16 32  1  0  0  0  0
 17 33  1  0  0  0  0
  5 34  1  0  0  0  0
M  CHG  1   5   1
M  END
$$$$
DMS_E_1
prProtoss 03122516363D 1   1.00000     0.00000     0
Protoss beta proteinsplus
 10  9  0  0  0  0            999 V2000
   -9.5360   24.9470  -15.9880 S   0  0  0  0  0  0  0  0  0  0  0  0
  -10.7250   25.4640  -15.2020 O   0  0  0  0  0  0  0  0  0  0  0  0
   -8.7310   26.4050  -16.6980 C   0  0  0  0  0  0  0  0  0  0  0  0
   -8.2570   24.5840  -14.7620 C   0  0  0  0  0  0  0  0  0  0  0  0
   -7.9343   26.1196  -17.2307 H   0  0  0  0  0  0  0  0  0  0  0  0
   -9.3755   26.8849  -17.2933 H   0  0  0  0  0  0  0  0  0  0  0  0
   -8.4386   27.0158  -15.9622 H   0  0  0  0  0  0  0  0  0  0  0  0
   -7.4412   24.2365  -15.2243 H   0  0  0  0  0  0  0  0  0  0  0  0
   -8.0269   25.4195  -14.2630 H   0  0  0  0  0  0  0  0  0  0  0  0
   -8.5957   23.8953  -14.1209 H   0  0  0  0  0  0  0  0  0  0  0  0
  1  2  2  0  0  0  0
  1  3  1  0  0  0  0
  1  4  1  0  0  0  0
  3  5  1  0  0  0  0
  3  6  1  0  0  0  0
  3  7  1  0  0  0  0
  4  8  1  0  0  0  0
  4  9  1  0  0  0  0
  4 10  1  0  0  0  0
M  END
$$$$
DMS_E_2
prProtoss 03122516363D 1   1.00000     0.00000     0
Protoss beta proteinsplus
 10  9  0  0  0  0            999 V2000
  -18.9880   17.3040  -39.2270 S   0  0  0  0  0  0  0  0  0  0  0  0
  -18.8210   17.5310  -37.7470 O   0  0  0  0  0  0  0  0  0  0  0  0
  -20.6200   17.9450  -39.6590 C   0  0  0  0  0  0  0  0  0  0  0  0
  -18.0120   18.5890  -40.0310 C   0  0  0  0  0  0  0  0  0  0  0  0
  -20.7800   17.8170  -40.6378 H   0  0  0  0  0  0  0  0  0  0  0  0
  -21.3193   17.4536  -39.1399 H   0  0  0  0  0  0  0  0  0  0  0  0
  -20.6645   18.9194  -39.4386 H   0  0  0  0  0  0  0  0  0  0  0  0
  -18.0836   18.4901  -41.0235 H   0  0  0  0  0  0  0  0  0  0  0  0
  -18.3564   19.4878  -39.7599 H   0  0  0  0  0  0  0  0  0  0  0  0
  -17.0546   18.5019  -39.7556 H   0  0  0  0  0  0  0  0  0  0  0  0
  1  2  2  0  0  0  0
  1  3  1  0  0  0  0
  1  4  1  0  0  0  0
  3  5  1  0  0  0  0
  3  6  1  0  0  0  0
  3  7  1  0  0  0  0
  4  8  1  0  0  0  0
  4  9  1  0  0  0  0
  4 10  1  0  0  0  0
M  END
$$$$
DMS_E_3
prProtoss 03122516363D 1   1.00000     0.00000     0
Protoss beta proteinsplus
 10  9  0  0  0  0            999 V2000
    0.6830    2.6800  -26.8550 S   0  0  0  0  0  0  0  0  0  0  0  0
    2.1100    2.9750  -27.2840 O   0  0  0  0  0  0  0  0  0  0  0  0
    0.1980    1.0340  -27.4030 C   0  0  0  0  0  0  0  0  0  0  0  0
    0.7490    2.3960  -25.0740 C   0  0  0  0  0  0  0  0  0  0  0  0
   -0.7420    0.8505  -27.1155 H   0  0  0  0  0  0  0  0  0  0  0  0
    0.2576    0.9836  -28.3999 H   0  0  0  0  0  0  0  0  0  0  0  0
    0.8092    0.3542  -26.9977 H   0  0  0  0  0  0  0  0  0  0  0  0
   -0.1699    2.1955  -24.7341 H   0  0  0  0  0  0  0  0  0  0  0  0
    1.3517    1.6215  -24.8821 H   0  0  0  0  0  0  0  0  0  0  0  0
    1.1017    3.2136  -24.6189 H   0  0  0  0  0  0  0  0  0  0  0  0
  1  2  2  0  0  0  0
  1  3  1  0  0  0  0
  1  4  1  0  0  0  0
  3  5  1  0  0  0  0
  3  6  1  0  0  0  0
  3  7  1  0  0  0  0
  4  8  1  0  0  0  0
  4  9  1  0  0  0  0
  4 10  1  0  0  0  0
M  END
$$$$
DMS_E_4
prProtoss 03122516363D 1   1.00000     0.00000     0
Protoss beta proteinsplus
 10  9  0  0  0  0            999 V2000
  -14.9420  -12.1910  -25.6160 S   0  0  0  0  0  0  0  0  0  0  0  0
  -16.0970  -11.2160  -25.5320 O   0  0  0  0  0  0  0  0  0  0  0  0
  -13.9680  -11.7190  -27.0620 C   0  0  0  0  0  0  0  0  0  0  0  0
  -13.7270  -11.7110  -24.3710 C   0  0  0  0  0  0  0  0  0  0  0  0
  -13.1898  -12.3399  -27.1569 H   0  0  0  0  0  0  0  0  0  0  0  0
  -14.5394  -11.7731  -27.8809 H   0  0  0  0  0  0  0  0  0  0  0  0
  -13.6355  -10.7827  -26.9488 H   0  0  0  0  0  0  0  0  0  0  0  0
  -12.9501  -12.3398  -24.4036 H   0  0  0  0  0  0  0  0  0  0  0  0
  -13.4106  -10.7805  -24.5554 H   0  0  0  0  0  0  0  0  0  0  0  0
  -14.1470  -11.7468  -23.4642 H   0  0  0  0  0  0  0  0  0  0  0  0
  1  2  2  0  0  0  0
  1  3  1  0  0  0  0
  1  4  1  0  0  0  0
  3  5  1  0  0  0  0
  3  6  1  0  0  0  0
  3  7  1  0  0  0  0
  4  8  1  0  0  0  0
  4  9  1  0  0  0  0
  4 10  1  0  0  0  0
M  END
$$$$
DMS_E_6
prProtoss 03122516363D 1   1.00000     0.00000     0
Protoss beta proteinsplus
 10  9  0  0  0  0            999 V2000
  -19.1390    2.3470   -3.0710 S   0  0  0  0  0  0  0  0  0  0  0  0
  -18.1730    1.2070   -3.3010 O   0  0  0  0  0  0  0  0  0  0  0  0
  -20.1070    2.4980   -4.5870 C   0  0  0  0  0  0  0  0  0  0  0  0
  -20.4770    1.6900   -2.0490 C   0  0  0  0  0  0  0  0  0  0  0  0
  -20.7666    3.2432   -4.4885 H   0  0  0  0  0  0  0  0  0  0  0  0
  -19.4962    2.6927   -5.3545 H   0  0  0  0  0  0  0  0  0  0  0  0
  -20.5945    1.6418   -4.7579 H   0  0  0  0  0  0  0  0  0  0  0  0
  -21.1448    2.4124   -1.8694 H   0  0  0  0  0  0  0  0  0  0  0  0
  -20.9236    0.9352   -2.5295 H   0  0  0  0  0  0  0  0  0  0  0  0
  -20.1030    1.3589   -1.1827 H   0  0  0  0  0  0  0  0  0  0  0  0
  1  2  2  0  0  0  0
  1  3  1  0  0  0  0
  1  4  1  0  0  0  0
  3  5  1  0  0  0  0
  3  6  1  0  0  0  0
  3  7  1  0  0  0  0
  4  8  1  0  0  0  0
  4  9  1  0  0  0  0
  4 10  1  0  0  0  0
M  END
$$$$
DMS_E_7
prProtoss 03122516363D 1   1.00000     0.00000     0
Protoss beta proteinsplus
 10  9  0  0  0  0            999 V2000
   16.4050   13.4220  -27.4960 S   0  0  0  0  0  0  0  0  0  0  0  0
   15.6520   13.0420  -28.7420 O   0  0  0  0  0  0  0  0  0  0  0  0
   16.4920   15.2240  -27.4400 C   0  0  0  0  0  0  0  0  0  0  0  0
   15.2980   13.2010  -26.0920 C   0  0  0  0  0  0  0  0  0  0  0  0
   16.9886   15.5084  -26.6199 H   0  0  0  0  0  0  0  0  0  0  0  0
   16.9692   15.5601  -28.2520 H   0  0  0  0  0  0  0  0  0  0  0  0
   15.5664   15.6019  -27.4170 H   0  0  0  0  0  0  0  0  0  0  0  0
   15.7757   13.4476  -25.2488 H   0  0  0  0  0  0  0  0  0  0  0  0
   14.4959   13.7875  -26.2044 H   0  0  0  0  0  0  0  0  0  0  0  0
   15.0079   12.2452  -26.0435 H   0  0  0  0  0  0  0  0  0  0  0  0
  1  2  2  0  0  0  0
  1  3  1  0  0  0  0
  1  4  1  0  0  0  0
  3  5  1  0  0  0  0
  3  6  1  0  0  0  0
  3  7  1  0  0  0  0
  4  8  1  0  0  0  0
  4  9  1  0  0  0  0
  4 10  1  0  0  0  0
M  END
$$$$
DMS_E_8
prProtoss 03122516363D 1   1.00000     0.00000     0
Protoss beta proteinsplus
 10  9  0  0  0  0            999 V2000
  -27.0400   15.5820   -6.0990 S   0  0  0  0  0  0  0  0  0  0  0  0
  -26.1060   14.9140   -5.1210 O   0  0  0  0  0  0  0  0  0  0  0  0
  -28.4000   14.4310   -6.3930 C   0  0  0  0  0  0  0  0  0  0  0  0
  -27.9680   16.8170   -5.1690 C   0  0  0  0  0  0  0  0  0  0  0  0
  -29.0461   14.8366   -7.0395 H   0  0  0  0  0  0  0  0  0  0  0  0
  -28.0394   13.5789   -6.7724 H   0  0  0  0  0  0  0  0  0  0  0  0
  -28.8676   14.2401   -5.5299 H   0  0  0  0  0  0  0  0  0  0  0  0
  -28.6034   17.2874   -5.7814 H   0  0  0  0  0  0  0  0  0  0  0  0
  -28.4810   16.3675   -4.4377 H   0  0  0  0  0  0  0  0  0  0  0  0
  -27.3343   17.4810   -4.7722 H   0  0  0  0  0  0  0  0  0  0  0  0
  1  2  2  0  0  0  0
  1  3  1  0  0  0  0
  1  4  1  0  0  0  0
  3  5  1  0  0  0  0
  3  6  1  0  0  0  0
  3  7  1  0  0  0  0
  4  8  1  0  0  0  0
  4  9  1  0  0  0  0
  4 10  1  0  0  0  0
M  END
$$$$
DMS_E_9
prProtoss 03122516363D 1   1.00000     0.00000     0
Protoss beta proteinsplus
 10  9  0  0  0  0            999 V2000
   11.5940   13.7750  -22.7140 S   0  0  0  0  0  0  0  0  0  0  0  0
   11.6240   15.2650  -22.4580 O   0  0  0  0  0  0  0  0  0  0  0  0
   13.2720   13.2990  -23.1780 C   0  0  0  0  0  0  0  0  0  0  0  0
   11.5920   12.9600  -21.1030 C   0  0  0  0  0  0  0  0  0  0  0  0
   13.3018   12.3158  -23.3582 H   0  0  0  0  0  0  0  0  0  0  0  0
   13.5442   13.7971  -24.0013 H   0  0  0  0  0  0  0  0  0  0  0  0
   13.8997   13.5203  -22.4317 H   0  0  0  0  0  0  0  0  0  0  0  0
   11.5724   11.9684  -21.2311 H   0  0  0  0  0  0  0  0  0  0  0  0
   12.4176   13.2148  -20.5995 H   0  0  0  0  0  0  0  0  0  0  0  0
   10.7849   13.2454  -20.5861 H   0  0  0  0  0  0  0  0  0  0  0  0
  1  2  2  0  0  0  0
  1  3  1  0  0  0  0
  1  4  1  0  0  0  0
  3  5  1  0  0  0  0
  3  6  1  0  0  0  0
  3  7  1  0  0  0  0
  4  8  1  0  0  0  0
  4  9  1  0  0  0  0
  4 10  1  0  0  0  0
M  END
$$$$
DMS_E_10
prProtoss 03122516363D 1   1.00000     0.00000     0
Protoss beta proteinsplus
 10  9  0  0  0  0            999 V2000
  -28.4220   10.1210   -9.1610 S   0  0  0  0  0  0  0  0  0  0  0  0
  -27.2860   10.3950   -8.2120 O   0  0  0  0  0  0  0  0  0  0  0  0
  -30.0260    9.9500   -8.3400 C   0  0  0  0  0  0  0  0  0  0  0  0
  -28.7950   11.7310   -9.8990 C   0  0  0  0  0  0  0  0  0  0  0  0
  -30.7330    9.7701   -9.0239 H   0  0  0  0  0  0  0  0  0  0  0  0
  -29.9890    9.1901   -7.6911 H   0  0  0  0  0  0  0  0  0  0  0  0
  -30.2422   10.7953   -7.8514 H   0  0  0  0  0  0  0  0  0  0  0  0
  -29.5483   11.6331  -10.5493 H   0  0  0  0  0  0  0  0  0  0  0  0
  -29.0569   12.3747   -9.1799 H   0  0  0  0  0  0  0  0  0  0  0  0
  -27.9858   12.0748  -10.3755 H   0  0  0  0  0  0  0  0  0  0  0  0
  1  2  2  0  0  0  0
  1  3  1  0  0  0  0
  1  4  1  0  0  0  0
  3  5  1  0  0  0  0
  3  6  1  0  0  0  0
  3  7  1  0  0  0  0
  4  8  1  0  0  0  0
  4  9  1  0  0  0  0
  4 10  1  0  0  0  0
M  END
$$$$
225_L_401
prProtoss 03122516373D 1   1.00000     0.00000     0
Protoss beta proteinsplus
 36 37  0  0  0  0            999 V2000
  -14.3030    5.6000  -29.6440 O   0  0  0  0  0  0  0  0  0  0  0  0
  -17.8410    6.0870  -34.2660 O   0  0  0  0  0  0  0  0  0  0  0  0
  -17.3770    3.6740  -32.3470 O   0  0  0  0  0  0  0  0  0  0  0  0
  -19.7580    5.1070  -31.2810 N   0  3  0  0  0  0  0  0  0  0  0  0
  -15.7730    3.8710  -29.9400 N   0  0  0  0  0  0  0  0  0  0  0  0
  -13.5460    3.4210  -29.4890 N   0  0  0  0  0  0  0  0  0  0  0  0
  -18.1400    3.8440  -33.5500 C   0  0  0  0  0  0  0  0  0  0  0  0
  -16.9700    4.7230  -30.1600 C   0  0  0  0  0  0  0  0  0  0  0  0
   -9.4740    3.6970  -28.5140 C   0  0  0  0  0  0  0  0  0  0  0  0
  -10.1850    4.8330  -28.8600 C   0  0  0  0  0  0  0  0  0  0  0  0
  -10.1020    2.4770  -28.5360 C   0  0  0  0  0  0  0  0  0  0  0  0
  -11.5280    4.7670  -29.1880 C   0  0  0  0  0  0  0  0  0  0  0  0
  -11.4270    2.4060  -28.8740 C   0  0  0  0  0  0  0  0  0  0  0  0
  -14.5090    4.3840  -29.6640 C   0  0  0  0  0  0  0  0  0  0  0  0
  -18.6980    5.2360  -33.4840 C   0  0  1  0  0  0  0  0  0  0  0  0
  -17.2520    4.9660  -31.6490 C   0  0  2  0  0  0  0  0  0  0  0  0
  -18.5960    5.6060  -31.9950 C   0  0  2  0  0  0  0  0  0  0  0  0
  -12.1780    3.5400  -29.1920 C   0  0  0  0  0  0  0  0  0  0  0  0
  -18.3779    6.8381  -34.6503 H   0  0  0  0  0  0  0  0  0  0  0  0
  -19.6852    5.3510  -30.3140 H   0  0  0  0  0  0  0  0  0  0  0  0
  -20.5861    5.5143  -31.6661 H   0  0  0  0  0  0  0  0  0  0  0  0
  -13.8718    2.4809  -29.5894 H   0  0  0  0  0  0  0  0  0  0  0  0
  -18.8805    3.1731  -33.5909 H   0  0  0  0  0  0  0  0  0  0  0  0
  -17.5526    3.7416  -34.3528 H   0  0  0  0  0  0  0  0  0  0  0  0
  -16.8222    5.6054  -29.7133 H   0  0  0  0  0  0  0  0  0  0  0  0
  -17.7641    4.2720  -29.7525 H   0  0  0  0  0  0  0  0  0  0  0  0
   -8.5117    3.7646  -28.2505 H   0  0  0  0  0  0  0  0  0  0  0  0
   -9.7196    5.7180  -28.8732 H   0  0  0  0  0  0  0  0  0  0  0  0
   -9.5955    1.6457  -28.3068 H   0  0  0  0  0  0  0  0  0  0  0  0
  -12.0288    5.6005  -29.4214 H   0  0  0  0  0  0  0  0  0  0  0  0
  -11.8726    1.5110  -28.8939 H   0  0  0  0  0  0  0  0  0  0  0  0
  -19.6437    5.2690  -33.8074 H   0  0  0  0  0  0  0  0  0  0  0  0
  -16.5084    5.4991  -32.0526 H   0  0  0  0  0  0  0  0  0  0  0  0
  -18.5357    6.5991  -31.8946 H   0  0  0  0  0  0  0  0  0  0  0  0
  -19.8028    4.1121  -31.3713 H   0  0  0  0  0  0  0  0  0  0  0  0
  -15.0515    6.2370  -29.8282 H   0  0  0  0  0  0  0  0  0  0  0  0
  1 14  1  0  0  0  0
  2 15  1  0  0  0  0
  3  7  1  0  0  0  0
  3 16  1  0  0  0  0
  4 17  1  0  0  0  0
  5  8  1  0  0  0  0
  5 14  2  0  0  0  0
  6 14  1  0  0  0  0
  6 18  1  0  0  0  0
  7 15  1  0  0  0  0
  8 16  1  0  0  0  0
  9 10  2  0  0  0  0
  9 11  1  0  0  0  0
 10 12  1  0  0  0  0
 11 13  2  0  0  0  0
 12 18  2  0  0  0  0
 13 18  1  0  0  0  0
 15 17  1  0  0  0  0
 16 17  1  0  0  0  0
  2 19  1  0  0  0  0
  4 20  1  0  0  0  0
  4 21  1  0  0  0  0
  1 36  1  0  0  0  0
  6 22  1  0  0  0  0
  7 23  1  0  0  0  0
  7 24  1  0  0  0  0
  8 25  1  0  0  0  0
  8 26  1  0  0  0  0
  9 27  1  0  0  0  0
 10 28  1  0  0  0  0
 11 29  1  0  0  0  0
 12 30  1  0  0  0  0
 13 31  1  0  0  0  0
 15 32  1  0  0  0  0
 16 33  1  0  0  0  0
 17 34  1  0  0  0  0
  4 35  1  0  0  0  0
M  CHG  1   4   1
M  END
$$$$
225_L_501
prProtoss 03122516373D 1   1.00000     0.00000     0
Protoss beta proteinsplus
 36 37  0  0  0  0            999 V2000
   -8.3690   -4.1920   -5.5530 O   0  0  0  0  0  0  0  0  0  0  0  0
   -5.6990   -6.6530   -9.9370 O   0  0  0  0  0  0  0  0  0  0  0  0
   -5.2610   -7.2630   -6.7130 O   0  0  0  0  0  0  0  0  0  0  0  0
   -8.0290   -6.2180   -7.1570 N   0  3  0  0  0  0  0  0  0  0  0  0
   -6.1380   -3.7900   -5.5670 N   0  0  0  0  0  0  0  0  0  0  0  0
   -7.5530   -1.9920   -5.5060 N   0  0  0  0  0  0  0  0  0  0  0  0
   -5.5480   -8.0100   -7.9220 C   0  0  0  0  0  0  0  0  0  0  0  0
   -5.7200   -5.2130   -5.5680 C   0  0  0  0  0  0  0  0  0  0  0  0
  -10.9070    0.4760   -5.2510 C   0  0  0  0  0  0  0  0  0  0  0  0
  -11.0230   -0.8700   -5.1980 C   0  0  0  0  0  0  0  0  0  0  0  0
   -9.6580    1.0010   -5.3880 C   0  0  0  0  0  0  0  0  0  0  0  0
   -9.9080   -1.6630   -5.3030 C   0  0  0  0  0  0  0  0  0  0  0  0
   -8.5540    0.2110   -5.4630 C   0  0  0  0  0  0  0  0  0  0  0  0
   -7.4500   -3.3880   -5.5220 C   0  0  0  0  0  0  0  0  0  0  0  0
   -6.4210   -7.1230   -8.7890 C   0  0  1  0  0  0  0  0  0  0  0  0
   -5.5410   -5.8670   -6.9530 C   0  0  2  0  0  0  0  0  0  0  0  0
   -6.7760   -5.9630   -7.8560 C   0  0  2  0  0  0  0  0  0  0  0  0
   -8.6510   -1.1430   -5.4420 C   0  0  0  0  0  0  0  0  0  0  0  0
   -5.0114   -7.3303  -10.1986 H   0  0  0  0  0  0  0  0  0  0  0  0
   -8.2379   -5.4471   -6.5553 H   0  0  0  0  0  0  0  0  0  0  0  0
   -8.7659   -6.3297   -7.8237 H   0  0  0  0  0  0  0  0  0  0  0  0
   -5.4276   -3.0871   -5.6008 H   0  0  0  0  0  0  0  0  0  0  0  0
   -6.6735   -1.5181   -5.5485 H   0  0  0  0  0  0  0  0  0  0  0  0
   -6.0323   -8.8556   -7.6973 H   0  0  0  0  0  0  0  0  0  0  0  0
   -4.6980   -8.2298   -8.4007 H   0  0  0  0  0  0  0  0  0  0  0  0
   -6.4129   -5.7352   -5.0709 H   0  0  0  0  0  0  0  0  0  0  0  0
   -4.8462   -5.2750   -5.0857 H   0  0  0  0  0  0  0  0  0  0  0  0
  -11.7118    1.0665   -5.1916 H   0  0  0  0  0  0  0  0  0  0  0  0
  -11.9237   -1.2887   -5.0820 H   0  0  0  0  0  0  0  0  0  0  0  0
   -9.5499    1.9940   -5.4347 H   0  0  0  0  0  0  0  0  0  0  0  0
  -10.0187   -2.6565   -5.2769 H   0  0  0  0  0  0  0  0  0  0  0  0
   -7.6517    0.6361   -5.5351 H   0  0  0  0  0  0  0  0  0  0  0  0
   -7.2468   -7.6117   -9.0704 H   0  0  0  0  0  0  0  0  0  0  0  0
   -4.7825   -5.4392   -7.4447 H   0  0  0  0  0  0  0  0  0  0  0  0
   -6.8608   -5.1223   -8.3909 H   0  0  0  0  0  0  0  0  0  0  0  0
   -7.9430   -7.0522   -6.6123 H   0  0  0  0  0  0  0  0  0  0  0  0
  1 14  2  0  0  0  0
  2 15  1  0  0  0  0
  3  7  1  0  0  0  0
  3 16  1  0  0  0  0
  4 17  1  0  0  0  0
  5  8  1  0  0  0  0
  5 14  1  0  0  0  0
  6 14  1  0  0  0  0
  6 18  1  0  0  0  0
  7 15  1  0  0  0  0
  8 16  1  0  0  0  0
  9 10  2  0  0  0  0
  9 11  1  0  0  0  0
 10 12  1  0  0  0  0
 11 13  2  0  0  0  0
 12 18  2  0  0  0  0
 13 18  1  0  0  0  0
 15 17  1  0  0  0  0
 16 17  1  0  0  0  0
  2 19  1  0  0  0  0
  4 20  1  0  0  0  0
  4 21  1  0  0  0  0
  5 22  1  0  0  0  0
  6 23  1  0  0  0  0
  7 24  1  0  0  0  0
  7 25  1  0  0  0  0
  8 26  1  0  0  0  0
  8 27  1  0  0  0  0
  9 28  1  0  0  0  0
 10 29  1  0  0  0  0
 11 30  1  0  0  0  0
 12 31  1  0  0  0  0
 13 32  1  0  0  0  0
 15 33  1  0  0  0  0
 16 34  1  0  0  0  0
 17 35  1  0  0  0  0
  4 36  1  0  0  0  0
M  CHG  1   4   1
M  END
$$$$
DMS_B_401
prProtoss 03122516373D 1   1.00000     0.00000     0
Protoss beta proteinsplus
 10  9  0  0  0  0            999 V2000
  -11.5350  -12.0310  -23.1190 S   0  0  0  0  0  0  0  0  0  0  0  0
  -11.8020  -10.6350  -22.6250 O   0  0  0  0  0  0  0  0  0  0  0  0
  -12.1670  -12.0850  -24.8060 C   0  0  0  0  0  0  0  0  0  0  0  0
   -9.7780  -12.0740  -23.5400 C   0  0  0  0  0  0  0  0  0  0  0  0
  -12.0162  -12.9962  -25.1894 H   0  0  0  0  0  0  0  0  0  0  0  0
  -13.1464  -11.8831  -24.8017 H   0  0  0  0  0  0  0  0  0  0  0  0
  -11.6891  -11.4057  -25.3629 H   0  0  0  0  0  0  0  0  0  0  0  0
   -9.5383  -12.9843  -23.8774 H   0  0  0  0  0  0  0  0  0  0  0  0
   -9.5885  -11.3951  -24.2493 H   0  0  0  0  0  0  0  0  0  0  0  0
   -9.2351  -11.8664  -22.7263 H   0  0  0  0  0  0  0  0  0  0  0  0
  1  2  2  0  0  0  0
  1  3  1  0  0  0  0
  1  4  1  0  0  0  0
  3  5  1  0  0  0  0
  3  6  1  0  0  0  0
  3  7  1  0  0  0  0
  4  8  1  0  0  0  0
  4  9  1  0  0  0  0
  4 10  1  0  0  0  0
M  END
$$$$
DMS_B_502
prProtoss 03122516373D 1   1.00000     0.00000     0
Protoss beta proteinsplus
 10  9  0  0  0  0            999 V2000
   -7.0770   17.9460   -9.7650 S   0  0  0  0  0  0  0  0  0  0  0  0
   -7.4970   17.5110  -11.1440 O   0  0  0  0  0  0  0  0  0  0  0  0
   -5.3940   18.6010   -9.8900 C   0  0  0  0  0  0  0  0  0  0  0  0
   -7.9260   19.5070   -9.5020 C   0  0  0  0  0  0  0  0  0  0  0  0
   -5.0846   18.8997   -8.9872 H   0  0  0  0  0  0  0  0  0  0  0  0
   -4.7831   17.8872  -10.2324 H   0  0  0  0  0  0  0  0  0  0  0  0
   -5.3846   19.3780  -10.5195 H   0  0  0  0  0  0  0  0  0  0  0  0
   -7.6950   19.8637   -8.5968 H   0  0  0  0  0  0  0  0  0  0  0  0
   -7.6418   20.1630  -10.2012 H   0  0  0  0  0  0  0  0  0  0  0  0
   -8.9138   19.3634   -9.5616 H   0  0  0  0  0  0  0  0  0  0  0  0
  1  2  2  0  0  0  0
  1  3  1  0  0  0  0
  1  4  1  0  0  0  0
  3  5  1  0  0  0  0
  3  6  1  0  0  0  0
  3  7  1  0  0  0  0
  4  8  1  0  0  0  0
  4  9  1  0  0  0  0
  4 10  1  0  0  0  0
M  END
$$$$
DMS_B_504
prProtoss 03122516373D 1   1.00000     0.00000     0
Protoss beta proteinsplus
 10  9  0  0  0  0            999 V2000
  -37.8350   13.7320  -26.5510 S   0  0  0  0  0  0  0  0  0  0  0  0
  -37.9490   15.2320  -26.7080 O   0  0  0  0  0  0  0  0  0  0  0  0
  -39.4730   13.1280  -26.0830 C   0  0  0  0  0  0  0  0  0  0  0  0
  -37.7660   13.0540  -28.2220 C   0  0  0  0  0  0  0  0  0  0  0  0
  -39.4419   12.1351  -25.9684 H   0  0  0  0  0  0  0  0  0  0  0  0
  -39.7522   13.5543  -25.2226 H   0  0  0  0  0  0  0  0  0  0  0  0
  -40.1311   13.3605  -26.7991 H   0  0  0  0  0  0  0  0  0  0  0  0
  -37.6897   12.0580  -28.1747 H   0  0  0  0  0  0  0  0  0  0  0  0
  -38.5991   13.3014  -28.7168 H   0  0  0  0  0  0  0  0  0  0  0  0
  -36.9710   13.4269  -28.7004 H   0  0  0  0  0  0  0  0  0  0  0  0
  1  2  2  0  0  0  0
  1  3  1  0  0  0  0
  1  4  1  0  0  0  0
  3  5  1  0  0  0  0
  3  6  1  0  0  0  0
  3  7  1  0  0  0  0
  4  8  1  0  0  0  0
  4  9  1  0  0  0  0
  4 10  1  0  0  0  0
M  END
$$$$
DMS_B_505
prProtoss 03122516373D 1   1.00000     0.00000     0
Protoss beta proteinsplus
 10  9  0  0  0  0            999 V2000
   -6.2260    1.8590  -45.1430 S   0  0  0  0  0  0  0  0  0  0  0  0
   -5.0840    2.8000  -45.4470 O   0  0  0  0  0  0  0  0  0  0  0  0
   -6.7860    2.2550  -43.4760 C   0  0  0  0  0  0  0  0  0  0  0  0
   -7.6470    2.3080  -46.1450 C   0  0  0  0  0  0  0  0  0  0  0  0
   -7.5461    1.6543  -43.2282 H   0  0  0  0  0  0  0  0  0  0  0  0
   -6.0331    2.1231  -42.8313 H   0  0  0  0  0  0  0  0  0  0  0  0
   -7.0895    3.2073  -43.4437 H   0  0  0  0  0  0  0  0  0  0  0  0
   -8.4049    1.6867  -45.9460 H   0  0  0  0  0  0  0  0  0  0  0  0
   -7.9208    3.2463  -45.9336 H   0  0  0  0  0  0  0  0  0  0  0  0
   -7.4066    2.2410  -47.1134 H   0  0  0  0  0  0  0  0  0  0  0  0
  1  2  2  0  0  0  0
  1  3  1  0  0  0  0
  1  4  1  0  0  0  0
  3  5  1  0  0  0  0
  3  6  1  0  0  0  0
  3  7  1  0  0  0  0
  4  8  1  0  0  0  0
  4  9  1  0  0  0  0
  4 10  1  0  0  0  0
M  END
$$$$
DMS_B_506
prProtoss 03122516373D 1   1.00000     0.00000     0
Protoss beta proteinsplus
 10  9  0  0  0  0            999 V2000
  -31.9610   11.2090  -28.4770 S   0  0  0  0  0  0  0  0  0  0  0  0
  -31.8560   11.4910  -29.9540 O   0  0  0  0  0  0  0  0  0  0  0  0
  -33.6950   11.4980  -28.0550 C   0  0  0  0  0  0  0  0  0  0  0  0
  -31.9610    9.4080  -28.3390 C   0  0  0  0  0  0  0  0  0  0  0  0
  -33.8337   11.3268  -27.0796 H   0  0  0  0  0  0  0  0  0  0  0  0
  -33.9356   12.4457  -28.2646 H   0  0  0  0  0  0  0  0  0  0  0  0
  -34.2749   10.8813  -28.5874 H   0  0  0  0  0  0  0  0  0  0  0  0
  -32.0290    9.1475  -27.3759 H   0  0  0  0  0  0  0  0  0  0  0  0
  -32.7413    9.0352  -28.8411 H   0  0  0  0  0  0  0  0  0  0  0  0
  -31.1126    9.0442  -28.7236 H   0  0  0  0  0  0  0  0  0  0  0  0
  1  2  2  0  0  0  0
  1  3  1  0  0  0  0
  1  4  1  0  0  0  0
  3  5  1  0  0  0  0
  3  6  1  0  0  0  0
  3  7  1  0  0  0  0
  4  8  1  0  0  0  0
  4  9  1  0  0  0  0
  4 10  1  0  0  0  0
M  END
$$$$
DMS_B_507
prProtoss 03122516373D 1   1.00000     0.00000     0
Protoss beta proteinsplus
 10  9  0  0  0  0            999 V2000
    0.7410   15.3970  -43.0590 S   0  0  0  0  0  0  0  0  0  0  0  0
    1.1100   13.9530  -43.3420 O   0  0  0  0  0  0  0  0  0  0  0  0
   -0.5920   15.7420  -44.2130 C   0  0  0  0  0  0  0  0  0  0  0  0
    1.9790   16.4260  -43.8600 C   0  0  0  0  0  0  0  0  0  0  0  0
   -0.9002   16.6858  -44.0938 H   0  0  0  0  0  0  0  0  0  0  0  0
   -0.2640   15.6142  -45.1490 H   0  0  0  0  0  0  0  0  0  0  0  0
   -1.3538   15.1181  -44.0386 H   0  0  0  0  0  0  0  0  0  0  0  0
    1.7688   17.3897  -43.6952 H   0  0  0  0  0  0  0  0  0  0  0  0
    2.8818   16.2131  -43.4863 H   0  0  0  0  0  0  0  0  0  0  0  0
    1.9749   16.2475  -44.8439 H   0  0  0  0  0  0  0  0  0  0  0  0
  1  2  2  0  0  0  0
  1  3  1  0  0  0  0
  1  4  1  0  0  0  0
  3  5  1  0  0  0  0
  3  6  1  0  0  0  0
  3  7  1  0  0  0  0
  4  8  1  0  0  0  0
  4  9  1  0  0  0  0
  4 10  1  0  0  0  0
M  END
$$$$
DMS_B_508
prProtoss 03122516373D 1   1.00000     0.00000     0
Protoss beta proteinsplus
 10  9  0  0  0  0            999 V2000
  -16.5860   24.4030  -33.5980 S   0  0  0  0  0  0  0  0  0  0  0  0
  -15.4680   25.1230  -34.3170 O   0  0  0  0  0  0  0  0  0  0  0  0
  -17.9300   24.3420  -34.7730 C   0  0  0  0  0  0  0  0  0  0  0  0
  -17.3010   25.7590  -32.6500 C   0  0  0  0  0  0  0  0  0  0  0  0
  -18.7120   23.8743  -34.3610 H   0  0  0  0  0  0  0  0  0  0  0  0
  -18.1939   25.2727  -35.0262 H   0  0  0  0  0  0  0  0  0  0  0  0
  -17.6366   23.8449  -35.5896 H   0  0  0  0  0  0  0  0  0  0  0  0
  -18.0723   25.4191  -32.1118 H   0  0  0  0  0  0  0  0  0  0  0  0
  -16.6083   26.1387  -32.0368 H   0  0  0  0  0  0  0  0  0  0  0  0
  -17.6191   26.4715  -33.2754 H   0  0  0  0  0  0  0  0  0  0  0  0
  1  2  2  0  0  0  0
  1  3  1  0  0  0  0
  1  4  1  0  0  0  0
  3  5  1  0  0  0  0
  3  6  1  0  0  0  0
  3  7  1  0  0  0  0
  4  8  1  0  0  0  0
  4  9  1  0  0  0  0
  4 10  1  0  0  0  0
M  END
$$$$
DMS_B_509
prProtoss 03122516373D 1   1.00000     0.00000     0
Protoss beta proteinsplus
 10  9  0  0  0  0            999 V2000
   -8.5280    5.0850   -3.3570 S   0  0  0  0  0  0  0  0  0  0  0  0
   -9.0110    6.4720   -3.6630 O   0  0  0  0  0  0  0  0  0  0  0  0
   -9.7550    4.2540   -2.3280 C   0  0  0  0  0  0  0  0  0  0  0  0
   -7.3430    5.3520   -2.0200 C   0  0  0  0  0  0  0  0  0  0  0  0
   -9.4419    3.3277   -2.1183 H   0  0  0  0  0  0  0  0  0  0  0  0
   -9.8777    4.7650   -1.4772 H   0  0  0  0  0  0  0  0  0  0  0  0
  -10.6255    4.2087   -2.8181 H   0  0  0  0  0  0  0  0  0  0  0  0
   -6.9559    4.4743   -1.7374 H   0  0  0  0  0  0  0  0  0  0  0  0
   -6.6098    5.9523   -2.3394 H   0  0  0  0  0  0  0  0  0  0  0  0
   -7.8073    5.7772   -1.2430 H   0  0  0  0  0  0  0  0  0  0  0  0
  1  2  2  0  0  0  0
  1  3  1  0  0  0  0
  1  4  1  0  0  0  0
  3  5  1  0  0  0  0
  3  6  1  0  0  0  0
  3  7  1  0  0  0  0
  4  8  1  0  0  0  0
  4  9  1  0  0  0  0
  4 10  1  0  0  0  0
M  END
$$$$
DMS_B_2
prProtoss 03122516373D 1   1.00000     0.00000     0
Protoss beta proteinsplus
 10  9  0  0  0  0            999 V2000
   -9.3360   25.1210  -15.8010 S   0  0  0  0  0  0  0  0  0  0  0  0
  -10.6050   25.4820  -15.0660 O   0  0  0  0  0  0  0  0  0  0  0  0
   -8.7960   26.6420  -16.6230 C   0  0  0  0  0  0  0  0  0  0  0  0
   -8.0240   25.0930  -14.5560 C   0  0  0  0  0  0  0  0  0  0  0  0
   -7.9527   26.4652  -17.1306 H   0  0  0  0  0  0  0  0  0  0  0  0
   -9.5072   26.9499  -17.2550 H   0  0  0  0  0  0  0  0  0  0  0  0
   -8.6299   27.3506  -15.9372 H   0  0  0  0  0  0  0  0  0  0  0  0
   -7.1555   24.8574  -14.9922 H   0  0  0  0  0  0  0  0  0  0  0  0
   -7.9493   25.9947  -14.1301 H   0  0  0  0  0  0  0  0  0  0  0  0
   -8.2418   24.4114  -13.8575 H   0  0  0  0  0  0  0  0  0  0  0  0
  1  2  2  0  0  0  0
  1  3  1  0  0  0  0
  1  4  1  0  0  0  0
  3  5  1  0  0  0  0
  3  6  1  0  0  0  0
  3  7  1  0  0  0  0
  4  8  1  0  0  0  0
  4  9  1  0  0  0  0
  4 10  1  0  0  0  0
M  END
$$$$
DMS_B_3
prProtoss 03122516373D 1   1.00000     0.00000     0
Protoss beta proteinsplus
 10  9  0  0  0  0            999 V2000
   12.2710   14.0220  -22.1350 S   0  0  0  0  0  0  0  0  0  0  0  0
   10.9240   14.1020  -22.8060 O   0  0  0  0  0  0  0  0  0  0  0  0
   12.2930   12.5020  -21.1590 C   0  0  0  0  0  0  0  0  0  0  0  0
   13.4690   13.5140  -23.3880 C   0  0  0  0  0  0  0  0  0  0  0  0
   13.1758   12.4151  -20.6973 H   0  0  0  0  0  0  0  0  0  0  0  0
   11.5620   12.5329  -20.4774 H   0  0  0  0  0  0  0  0  0  0  0  0
   12.1534   11.7166  -21.7620 H   0  0  0  0  0  0  0  0  0  0  0  0
   14.3773   13.4508  -22.9745 H   0  0  0  0  0  0  0  0  0  0  0  0
   13.2078   12.6219  -23.7566 H   0  0  0  0  0  0  0  0  0  0  0  0
   13.4851   14.1881  -24.1265 H   0  0  0  0  0  0  0  0  0  0  0  0
  1  2  2  0  0  0  0
  1  3  1  0  0  0  0
  1  4  1  0  0  0  0
  3  5  1  0  0  0  0
  3  6  1  0  0  0  0
  3  7  1  0  0  0  0
  4  8  1  0  0  0  0
  4  9  1  0  0  0  0
  4 10  1  0  0  0  0
M  END
$$$$
DMS_B_5
prProtoss 03122516373D 1   1.00000     0.00000     0
Protoss beta proteinsplus
 10  9  0  0  0  0            999 V2000
   14.5860   24.0960  -23.1680 S   0  0  0  0  0  0  0  0  0  0  0  0
   13.5690   24.1240  -24.2880 O   0  0  0  0  0  0  0  0  0  0  0  0
   14.3150   22.6160  -22.1750 C   0  0  0  0  0  0  0  0  0  0  0  0
   16.1740   23.6370  -23.8940 C   0  0  0  0  0  0  0  0  0  0  0  0
   14.9824   22.5871  -21.4308 H   0  0  0  0  0  0  0  0  0  0  0  0
   13.3909   22.6352  -21.7934 H   0  0  0  0  0  0  0  0  0  0  0  0
   14.4214   21.8047  -22.7499 H   0  0  0  0  0  0  0  0  0  0  0  0
   16.8720   23.6089  -23.1784 H   0  0  0  0  0  0  0  0  0  0  0  0
   16.0975   22.7358  -24.3206 H   0  0  0  0  0  0  0  0  0  0  0  0
   16.4321   24.3121  -24.5851 H   0  0  0  0  0  0  0  0  0  0  0  0
  1  2  2  0  0  0  0
  1  3  1  0  0  0  0
  1  4  1  0  0  0  0
  3  5  1  0  0  0  0
  3  6  1  0  0  0  0
  3  7  1  0  0  0  0
  4  8  1  0  0  0  0
  4  9  1  0  0  0  0
  4 10  1  0  0  0  0
M  END
$$$$
DMS_B_6
prProtoss 03122516373D 1   1.00000     0.00000     0
Protoss beta proteinsplus
 10  9  0  0  0  0            999 V2000
  -18.8680   17.8350  -39.5280 S   0  0  0  0  0  0  0  0  0  0  0  0
  -18.7980   17.4530  -38.0660 O   0  0  0  0  0  0  0  0  0  0  0  0
  -19.5510   16.4180  -40.4210 C   0  0  0  0  0  0  0  0  0  0  0  0
  -20.2950   18.9220  -39.7270 C   0  0  0  0  0  0  0  0  0  0  0  0
  -19.6119   16.6357  -41.3951 H   0  0  0  0  0  0  0  0  0  0  0  0
  -18.9554   15.6249  -40.2933 H   0  0  0  0  0  0  0  0  0  0  0  0
  -20.4633   16.2099  -40.0683 H   0  0  0  0  0  0  0  0  0  0  0  0
  -20.3739   19.1965  -40.6854 H   0  0  0  0  0  0  0  0  0  0  0  0
  -21.1245   18.4372  -39.4498 H   0  0  0  0  0  0  0  0  0  0  0  0
  -20.1772   19.7346  -39.1561 H   0  0  0  0  0  0  0  0  0  0  0  0
  1  2  2  0  0  0  0
  1  3  1  0  0  0  0
  1  4  1  0  0  0  0
  3  5  1  0  0  0  0
  3  6  1  0  0  0  0
  3  7  1  0  0  0  0
  4  8  1  0  0  0  0
  4  9  1  0  0  0  0
  4 10  1  0  0  0  0
M  END
$$$$
DMS_B_7
prProtoss 03122516373D 1   1.00000     0.00000     0
Protoss beta proteinsplus
 10  9  0  0  0  0            999 V2000
    6.0770   11.2010  -20.1540 S   0  0  0  0  0  0  0  0  0  0  0  0
    5.0380   11.7570  -19.2140 O   0  0  0  0  0  0  0  0  0  0  0  0
    5.5760    9.5120  -20.5480 C   0  0  0  0  0  0  0  0  0  0  0  0
    5.7470   11.9920  -21.7350 C   0  0  0  0  0  0  0  0  0  0  0  0
    6.2418    9.1040  -21.1727 H   0  0  0  0  0  0  0  0  0  0  0  0
    5.5334    8.9722  -19.7073 H   0  0  0  0  0  0  0  0  0  0  0  0
    4.6753    9.5242  -20.9823 H   0  0  0  0  0  0  0  0  0  0  0  0
    6.4052   11.6671  -22.4141 H   0  0  0  0  0  0  0  0  0  0  0  0
    4.8201   11.7653  -22.0341 H   0  0  0  0  0  0  0  0  0  0  0  0
    5.8322   12.9834  -21.6359 H   0  0  0  0  0  0  0  0  0  0  0  0
  1  2  2  0  0  0  0
  1  3  1  0  0  0  0
  1  4  1  0  0  0  0
  3  5  1  0  0  0  0
  3  6  1  0  0  0  0
  3  7  1  0  0  0  0
  4  8  1  0  0  0  0
  4  9  1  0  0  0  0
  4 10  1  0  0  0  0
M  END
$$$$
DMS_B_10
prProtoss 03122516373D 1   1.00000     0.00000     0
Protoss beta proteinsplus
 10  9  0  0  0  0            999 V2000
   -5.3220    4.6770   -6.6930 S   0  0  0  0  0  0  0  0  0  0  0  0
   -3.8170    4.6680   -6.5410 O   0  0  0  0  0  0  0  0  0  0  0  0
   -5.8230    2.9630   -6.9570 C   0  0  0  0  0  0  0  0  0  0  0  0
   -6.0500    4.8530   -5.0470 C   0  0  0  0  0  0  0  0  0  0  0  0
   -6.8163    2.9187   -7.0636 H   0  0  0  0  0  0  0  0  0  0  0  0
   -5.3831    2.6106   -7.7830 H   0  0  0  0  0  0  0  0  0  0  0  0
   -5.5471    2.4102   -6.1707 H   0  0  0  0  0  0  0  0  0  0  0  0
   -7.0471    4.8615   -5.1227 H   0  0  0  0  0  0  0  0  0  0  0  0
   -5.7658    4.0851   -4.4730 H   0  0  0  0  0  0  0  0  0  0  0  0
   -5.7397    5.7098   -4.6351 H   0  0  0  0  0  0  0  0  0  0  0  0
  1  2  2  0  0  0  0
  1  3  1  0  0  0  0
  1  4  1  0  0  0  0
  3  5  1  0  0  0  0
  3  6  1  0  0  0  0
  3  7  1  0  0  0  0
  4  8  1  0  0  0  0
  4  9  1  0  0  0  0
  4 10  1  0  0  0  0
M  END
$$$$
DMS_B_11
prProtoss 03122516373D 1   1.00000     0.00000     0
Protoss beta proteinsplus
 10  9  0  0  0  0            999 V2000
    1.4040   -8.0400  -36.9430 S   0  0  0  0  0  0  0  0  0  0  0  0
    1.2300   -7.5720  -35.5090 O   0  0  0  0  0  0  0  0  0  0  0  0
    1.2300   -9.8350  -36.9470 C   0  0  0  0  0  0  0  0  0  0  0  0
   -0.1730   -7.7540  -37.7470 C   0  0  0  0  0  0  0  0  0  0  0  0
    1.3394  -10.1784  -37.8798 H   0  0  0  0  0  0  0  0  0  0  0  0
    1.9305  -10.2391  -36.3587 H   0  0  0  0  0  0  0  0  0  0  0  0
    0.3237  -10.0828  -36.6047 H   0  0  0  0  0  0  0  0  0  0  0  0
   -0.1181   -8.0457  -38.7019 H   0  0  0  0  0  0  0  0  0  0  0  0
   -0.8854   -8.2771  -37.2791 H   0  0  0  0  0  0  0  0  0  0  0  0
   -0.3950   -6.7797  -37.7083 H   0  0  0  0  0  0  0  0  0  0  0  0
  1  2  2  0  0  0  0
  1  3  1  0  0  0  0
  1  4  1  0  0  0  0
  3  5  1  0  0  0  0
  3  6  1  0  0  0  0
  3  7  1  0  0  0  0
  4  8  1  0  0  0  0
  4  9  1  0  0  0  0
  4 10  1  0  0  0  0
M  END
$$$$
DMS_B_12
prProtoss 03122516373D 1   1.00000     0.00000     0
Protoss beta proteinsplus
 10  9  0  0  0  0            999 V2000
   15.8640   13.4040  -27.6600 S   0  0  0  0  0  0  0  0  0  0  0  0
   16.5190   12.0870  -27.3070 O   0  0  0  0  0  0  0  0  0  0  0  0
   15.8340   14.3770  -26.1370 C   0  0  0  0  0  0  0  0  0  0  0  0
   17.1280   14.3720  -28.5130 C   0  0  0  0  0  0  0  0  0  0  0  0
   15.4079   15.2637  -26.3163 H   0  0  0  0  0  0  0  0  0  0  0  0
   15.3082   13.8893  -25.4401 H   0  0  0  0  0  0  0  0  0  0  0  0
   16.7694   14.5163  -25.8120 H   0  0  0  0  0  0  0  0  0  0  0  0
   16.7490   15.2603  -28.7724 H   0  0  0  0  0  0  0  0  0  0  0  0
   17.9103   14.5081  -27.9052 H   0  0  0  0  0  0  0  0  0  0  0  0
   17.4245   13.8836  -29.3337 H   0  0  0  0  0  0  0  0  0  0  0  0
  1  2  2  0  0  0  0
  1  3  1  0  0  0  0
  1  4  1  0  0  0  0
  3  5  1  0  0  0  0
  3  6  1  0  0  0  0
  3  7  1  0  0  0  0
  4  8  1  0  0  0  0
  4  9  1  0  0  0  0
  4 10  1  0  0  0  0
M  END
$$$$
DMS_B_13
prProtoss 03122516373D 1   1.00000     0.00000     0
Protoss beta proteinsplus
 10  9  0  0  0  0            999 V2000
   -4.8940   -9.0230  -15.8990 S   0  0  0  0  0  0  0  0  0  0  0  0
   -6.2800   -9.4500  -16.2000 O   0  0  0  0  0  0  0  0  0  0  0  0
   -3.9180   -9.8600  -17.1580 C   0  0  0  0  0  0  0  0  0  0  0  0
   -4.6820   -7.3340  -16.4670 C   0  0  0  0  0  0  0  0  0  0  0  0
   -2.9520   -9.6314  -17.0375 H   0  0  0  0  0  0  0  0  0  0  0  0
   -4.0399  -10.8488  -17.0716 H   0  0  0  0  0  0  0  0  0  0  0  0
   -4.2198   -9.5649  -18.0646 H   0  0  0  0  0  0  0  0  0  0  0  0
   -3.7495   -7.0308  -16.2705 H   0  0  0  0  0  0  0  0  0  0  0  0
   -4.8459   -7.2907  -17.4525 H   0  0  0  0  0  0  0  0  0  0  0  0
   -5.3324   -6.7393  -15.9945 H   0  0  0  0  0  0  0  0  0  0  0  0
  1  2  2  0  0  0  0
  1  3  1  0  0  0  0
  1  4  1  0  0  0  0
  3  5  1  0  0  0  0
  3  6  1  0  0  0  0
  3  7  1  0  0  0  0
  4  8  1  0  0  0  0
  4  9  1  0  0  0  0
  4 10  1  0  0  0  0
M  END
$$$$
236_L_401
prProtoss 03122516373D 1   1.00000     0.00000     0
Protoss beta proteinsplus
 36 37  0  0  0  0            999 V2000
   -5.7100    7.1270  -13.2520 S   0  0  0  0  0  0  0  0  0  0  0  0
   -4.4640    6.7870  -12.5330 O   0  0  0  0  0  0  0  0  0  0  0  0
   -6.9190    7.3820  -12.4820 O   0  0  0  0  0  0  0  0  0  0  0  0
   -5.6890    0.1250  -16.9420 O   0  0  0  0  0  0  0  0  0  0  0  0
   -7.0840    2.7890  -16.8310 O   0  0  0  0  0  0  0  0  0  0  0  0
   -6.7940    0.5080  -19.6500 N   0  3  0  0  0  0  0  0  0  0  0  0
   -5.4080    8.5160  -14.2960 C   0  0  0  0  0  0  0  0  0  0  0  0
   -5.6340   -0.8780  -17.9290 C   0  0  0  0  0  0  0  0  0  0  0  0
   -5.1670    1.3850  -17.3380 C   0  0  0  0  0  0  0  0  0  0  0  0
   -6.7680   -0.7680  -18.9420 C   0  0  0  0  0  0  0  0  0  0  0  0
   -7.2620    1.5750  -18.8020 C   0  0  0  0  0  0  0  0  0  0  0  0
   -7.2420    5.1870  -14.2310 C   0  0  0  0  0  0  0  0  0  0  0  0
   -5.1750    5.4640  -15.3480 C   0  0  0  0  0  0  0  0  0  0  0  0
   -7.5560    4.1860  -15.0520 C   0  0  0  0  0  0  0  0  0  0  0  0
   -5.5060    4.4480  -16.2000 C   0  0  0  0  0  0  0  0  0  0  0  0
   -6.0600    5.8260  -14.3650 C   0  0  0  0  0  0  0  0  0  0  0  0
   -6.2660    2.3210  -17.8910 C   0  0  1  0  0  0  0  0  0  0  0  0
   -6.7090    3.8120  -16.0210 C   0  0  0  0  0  0  0  0  0  0  0  0
   -7.4035    0.4292  -20.4389 H   0  0  0  0  0  0  0  0  0  0  0  0
   -6.2466    8.7529  -14.7866 H   0  0  0  0  0  0  0  0  0  0  0  0
   -5.1162    9.2940  -13.7396 H   0  0  0  0  0  0  0  0  0  0  0  0
   -4.6899    8.2887  -14.9538 H   0  0  0  0  0  0  0  0  0  0  0  0
   -5.6898   -1.7706  -17.4817 H   0  0  0  0  0  0  0  0  0  0  0  0
   -4.7629   -0.8022  -18.4142 H   0  0  0  0  0  0  0  0  0  0  0  0
   -4.4789    1.2401  -18.0490 H   0  0  0  0  0  0  0  0  0  0  0  0
   -4.7407    1.8210  -16.5455 H   0  0  0  0  0  0  0  0  0  0  0  0
   -6.6642   -1.5010  -19.6143 H   0  0  0  0  0  0  0  0  0  0  0  0
   -7.6363   -0.8796  -18.4586 H   0  0  0  0  0  0  0  0  0  0  0  0
   -7.9638    1.1849  -18.2059 H   0  0  0  0  0  0  0  0  0  0  0  0
   -7.6765    2.2604  -19.4007 H   0  0  0  0  0  0  0  0  0  0  0  0
   -7.8821    5.4654  -13.5149 H   0  0  0  0  0  0  0  0  0  0  0  0
   -4.2989    5.9373  -15.4402 H   0  0  0  0  0  0  0  0  0  0  0  0
   -8.4292    3.7106  -14.9446 H   0  0  0  0  0  0  0  0  0  0  0  0
   -4.8867    4.1746  -16.9360 H   0  0  0  0  0  0  0  0  0  0  0  0
   -5.8551    3.0904  -18.3801 H   0  0  0  0  0  0  0  0  0  0  0  0
   -5.8693    0.7242  -19.9635 H   0  0  0  0  0  0  0  0  0  0  0  0
  1  2  2  0  0  0  0
  1  3  2  0  0  0  0
  1  7  1  0  0  0  0
  1 16  1  0  0  0  0
  4  8  1  0  0  0  0
  4  9  1  0  0  0  0
  5 17  1  0  0  0  0
  5 18  1  0  0  0  0
  6 10  1  0  0  0  0
  6 11  1  0  0  0  0
  8 10  1  0  0  0  0
  9 17  1  0  0  0  0
 11 17  1  0  0  0  0
 12 14  2  0  0  0  0
 12 16  1  0  0  0  0
 13 15  1  0  0  0  0
 13 16  2  0  0  0  0
 14 18  1  0  0  0  0
 15 18  2  0  0  0  0
  6 19  1  0  0  0  0
  7 20  1  0  0  0  0
  7 21  1  0  0  0  0
  7 22  1  0  0  0  0
  8 23  1  0  0  0  0
  8 24  1  0  0  0  0
  9 25  1  0  0  0  0
  9 26  1  0  0  0  0
 10 27  1  0  0  0  0
 10 28  1  0  0  0  0
 11 29  1  0  0  0  0
 11 30  1  0  0  0  0
 12 31  1  0  0  0  0
 13 32  1  0  0  0  0
 14 33  1  0  0  0  0
 15 34  1  0  0  0  0
 17 35  1  0  0  0  0
  6 36  1  0  0  0  0
M  CHG  1   6   1
M  END
$$$$
248_B_1
prProtoss 03122516373D 1   1.00000     0.00000     0
Protoss beta proteinsplus
 32 34  0  0  0  0            999 V2000
   -4.4170    3.1610  -21.0990 O   0  0  0  0  0  0  0  0  0  0  0  0
  -10.7800    5.4760  -18.8810 O   0  0  0  0  0  0  0  0  0  0  0  0
   -4.6210    5.2950  -20.2960 O   0  0  0  0  0  0  0  0  0  0  0  0
   -9.1880    4.3630  -20.1010 N   0  0  0  0  0  0  0  0  0  0  0  0
   -6.4050    3.9570  -20.1840 N   0  0  0  0  0  0  0  0  0  0  0  0
   -5.7760    6.1190  -20.1050 C   0  0  0  0  0  0  0  0  0  0  0  0
   -8.6450    3.1820  -20.8110 C   0  0  0  0  0  0  0  0  0  0  0  0
   -7.2560    2.7920  -20.2940 C   0  0  0  0  0  0  0  0  0  0  0  0
  -12.9820    1.1240  -19.0920 C   0  0  0  0  0  0  0  0  0  0  0  0
  -13.4250    2.2430  -19.7070 C   0  0  0  0  0  0  0  0  0  0  0  0
  -11.7270    1.0740  -18.6070 C   0  0  0  0  0  0  0  0  0  0  0  0
   -8.3030    5.5460  -20.1200 C   0  0  0  0  0  0  0  0  0  0  0  0
  -12.6200    3.3280  -19.8240 C   0  0  0  0  0  0  0  0  0  0  0  0
  -10.9230    2.1530  -18.7180 C   0  0  0  0  0  0  0  0  0  0  0  0
   -5.0850    4.0400  -20.5800 C   0  0  0  0  0  0  0  0  0  0  0  0
  -10.4210    4.4450  -19.4340 C   0  0  0  0  0  0  0  0  0  0  0  0
   -6.8730    5.1930  -19.6180 C   0  0  1  0  0  0  0  0  0  0  0  0
  -11.3560    3.2740  -19.3480 C   0  0  0  0  0  0  0  0  0  0  0  0
   -6.0421    6.5498  -20.9673 H   0  0  0  0  0  0  0  0  0  0  0  0
   -5.5896    6.8260  -19.4228 H   0  0  0  0  0  0  0  0  0  0  0  0
   -8.5792    3.3933  -21.7862 H   0  0  0  0  0  0  0  0  0  0  0  0
   -9.2675    2.4107  -20.6783 H   0  0  0  0  0  0  0  0  0  0  0  0
   -7.3484    2.3669  -19.3936 H   0  0  0  0  0  0  0  0  0  0  0  0
   -6.8404    2.1408  -20.9290 H   0  0  0  0  0  0  0  0  0  0  0  0
  -13.5865    0.3330  -18.9972 H   0  0  0  0  0  0  0  0  0  0  0  0
  -14.3530    2.2710  -20.0784 H   0  0  0  0  0  0  0  0  0  0  0  0
  -11.3918    0.2412  -18.1664 H   0  0  0  0  0  0  0  0  0  0  0  0
   -8.6908    6.2521  -19.5275 H   0  0  0  0  0  0  0  0  0  0  0  0
   -8.2430    5.8925  -21.0561 H   0  0  0  0  0  0  0  0  0  0  0  0
  -12.9590    4.1620  -20.2593 H   0  0  0  0  0  0  0  0  0  0  0  0
  -10.0006    2.1257  -18.3327 H   0  0  0  0  0  0  0  0  0  0  0  0
   -6.8616    5.1407  -18.6194 H   0  0  0  0  0  0  0  0  0  0  0  0
  1 15  2  0  0  0  0
  2 16  2  0  0  0  0
  3  6  1  0  0  0  0
  3 15  1  0  0  0  0
  4  7  1  0  0  0  0
  4 12  1  0  0  0  0
  4 16  1  0  0  0  0
  5  8  1  0  0  0  0
  5 15  1  0  0  0  0
  5 17  1  0  0  0  0
  6 17  1  0  0  0  0
  7  8  1  0  0  0  0
  9 10  2  0  0  0  0
  9 11  1  0  0  0  0
 10 13  1  0  0  0  0
 11 14  2  0  0  0  0
 12 17  1  0  0  0  0
 13 18  2  0  0  0  0
 14 18  1  0  0  0  0
 16 18  1  0  0  0  0
  6 19  1  0  0  0  0
  6 20  1  0  0  0  0
  7 21  1  0  0  0  0
  7 22  1  0  0  0  0
  8 23  1  0  0  0  0
  8 24  1  0  0  0  0
  9 25  1  0  0  0  0
 10 26  1  0  0  0  0
 11 27  1  0  0  0  0
 12 28  1  0  0  0  0
 12 29  1  0  0  0  0
 13 30  1  0  0  0  0
 14 31  1  0  0  0  0
 17 32  1  0  0  0  0
M  END
$$$$
248_B_2
prProtoss 03122516373D 1   1.00000     0.00000     0
Protoss beta proteinsplus
 21 22  0  0  0  0            999 V2000
  -22.4770    1.0100  -26.6410 O   0  0  0  0  0  0  0  0  0  0  0  0
  -21.9750    3.0750  -25.7230 O   0  0  0  0  0  0  0  0  0  0  0  0
  -25.8110    2.4610  -23.2840 N   0  3  0  0  0  0  0  0  0  0  0  0
  -23.4810    1.8130  -24.6890 N   0  0  0  0  0  0  0  0  0  0  0  0
  -22.6210    3.9400  -24.7700 C   0  0  0  0  0  0  0  0  0  0  0  0
  -25.7760    1.2140  -24.0810 C   0  0  0  0  0  0  0  0  0  0  0  0
  -24.8890    3.5310  -23.7010 C   0  0  0  0  0  0  0  0  0  0  0  0
  -24.3510    0.7050  -24.3400 C   0  0  0  0  0  0  0  0  0  0  0  0
  -22.6310    1.8700  -25.7720 C   0  0  0  0  0  0  0  0  0  0  0  0
  -23.4490    3.0140  -23.9010 C   0  0  1  0  0  0  0  0  0  0  0  0
  -25.5929    2.2233  -22.3375 H   0  0  0  0  0  0  0  0  0  0  0  0
  -23.2073    4.6021  -25.2368 H   0  0  0  0  0  0  0  0  0  0  0  0
  -21.9423    4.4258  -24.2193 H   0  0  0  0  0  0  0  0  0  0  0  0
  -26.2173    1.3866  -24.9616 H   0  0  0  0  0  0  0  0  0  0  0  0
  -26.2819    0.5065  -23.5875 H   0  0  0  0  0  0  0  0  0  0  0  0
  -24.8813    4.2418  -22.9976 H   0  0  0  0  0  0  0  0  0  0  0  0
  -25.2146    3.9189  -24.5633 H   0  0  0  0  0  0  0  0  0  0  0  0
  -24.0040    0.2593  -23.5148 H   0  0  0  0  0  0  0  0  0  0  0  0
  -24.3666    0.0470  -25.0928 H   0  0  0  0  0  0  0  0  0  0  0  0
  -23.0012    2.8531  -23.0215 H   0  0  0  0  0  0  0  0  0  0  0  0
  -26.7410    2.8256  -23.3303 H   0  0  0  0  0  0  0  0  0  0  0  0
  1  9  2  0  0  0  0
  2  5  1  0  0  0  0
  2  9  1  0  0  0  0
  3  6  1  0  0  0  0
  3  7  1  0  0  0  0
  4  8  1  0  0  0  0
  4  9  1  0  0  0  0
  4 10  1  0  0  0  0
  5 10  1  0  0  0  0
  6  8  1  0  0  0  0
  7 10  1  0  0  0  0
  3 11  1  0  0  0  0
  5 12  1  0  0  0  0
  5 13  1  0  0  0  0
  6 14  1  0  0  0  0
  6 15  1  0  0  0  0
  7 16  1  0  0  0  0
  7 17  1  0  0  0  0
  8 18  1  0  0  0  0
  8 19  1  0  0  0  0
 10 20  1  0  0  0  0
  3 21  1  0  0  0  0
M  CHG  1   3   1
M  END
$$$$
DMS_D_1
prProtoss 03122516373D 1   1.00000     0.00000     0
Protoss beta proteinsplus
 10  9  0  0  0  0            999 V2000
  -17.7510    4.9010  -45.9630 S   0  0  0  0  0  0  0  0  0  0  0  0
  -17.2820    6.2990  -45.6280 O   0  0  0  0  0  0  0  0  0  0  0  0
  -19.0050    5.0730  -47.2490 C   0  0  0  0  0  0  0  0  0  0  0  0
  -16.4840    4.1640  -47.0150 C   0  0  0  0  0  0  0  0  0  0  0  0
  -19.3467    4.1686  -47.5045 H   0  0  0  0  0  0  0  0  0  0  0  0
  -19.7609    5.6300  -46.9051 H   0  0  0  0  0  0  0  0  0  0  0  0
  -18.6023    5.5157  -48.0502 H   0  0  0  0  0  0  0  0  0  0  0  0
  -16.7553    3.2336  -47.2616 H   0  0  0  0  0  0  0  0  0  0  0  0
  -16.3798    4.7119  -47.8450 H   0  0  0  0  0  0  0  0  0  0  0  0
  -15.6147    4.1380  -46.5215 H   0  0  0  0  0  0  0  0  0  0  0  0
  1  2  2  0  0  0  0
  1  3  1  0  0  0  0
  1  4  1  0  0  0  0
  3  5  1  0  0  0  0
  3  6  1  0  0  0  0
  3  7  1  0  0  0  0
  4  8  1  0  0  0  0
  4  9  1  0  0  0  0
  4 10  1  0  0  0  0
M  END
$$$$
DMS_D_2
prProtoss 03122516373D 1   1.00000     0.00000     0
Protoss beta proteinsplus
 10  9  0  0  0  0            999 V2000
   -9.6470   25.1790  -15.7170 S   0  0  0  0  0  0  0  0  0  0  0  0
  -10.8310   25.7720  -14.9860 O   0  0  0  0  0  0  0  0  0  0  0  0
   -9.0240   26.4550  -16.8370 C   0  0  0  0  0  0  0  0  0  0  0  0
   -8.2650   25.2420  -14.5560 C   0  0  0  0  0  0  0  0  0  0  0  0
   -8.2367   26.1003  -17.3414 H   0  0  0  0  0  0  0  0  0  0  0  0
   -9.7438   26.7134  -17.4813 H   0  0  0  0  0  0  0  0  0  0  0  0
   -8.7470   27.2569  -16.3076 H   0  0  0  0  0  0  0  0  0  0  0  0
   -7.4485   24.8598  -14.9887 H   0  0  0  0  0  0  0  0  0  0  0  0
   -8.0910   26.1918  -14.2962 H   0  0  0  0  0  0  0  0  0  0  0  0
   -8.4904   24.7092  -13.7403 H   0  0  0  0  0  0  0  0  0  0  0  0
  1  2  2  0  0  0  0
  1  3  1  0  0  0  0
  1  4  1  0  0  0  0
  3  5  1  0  0  0  0
  3  6  1  0  0  0  0
  3  7  1  0  0  0  0
  4  8  1  0  0  0  0
  4  9  1  0  0  0  0
  4 10  1  0  0  0  0
M  END
$$$$
DMS_D_3
prProtoss 03122516373D 1   1.00000     0.00000     0
Protoss beta proteinsplus
 10  9  0  0  0  0            999 V2000
   14.9280   24.0700  -23.7510 S   0  0  0  0  0  0  0  0  0  0  0  0
   15.9020   25.2120  -23.5860 O   0  0  0  0  0  0  0  0  0  0  0  0
   13.9400   24.0080  -22.2410 C   0  0  0  0  0  0  0  0  0  0  0  0
   13.6160   24.6580  -24.8390 C   0  0  0  0  0  0  0  0  0  0  0  0
   13.2775   23.2618  -22.3065 H   0  0  0  0  0  0  0  0  0  0  0  0
   14.5400   23.8531  -21.4562 H   0  0  0  0  0  0  0  0  0  0  0  0
   13.4552   24.8748  -22.1240 H   0  0  0  0  0  0  0  0  0  0  0  0
   12.9451   23.9293  -24.9762 H   0  0  0  0  0  0  0  0  0  0  0  0
   13.1680   25.4496  -24.4234 H   0  0  0  0  0  0  0  0  0  0  0  0
   14.0072   24.9213  -25.7208 H   0  0  0  0  0  0  0  0  0  0  0  0
  1  2  2  0  0  0  0
  1  3  1  0  0  0  0
  1  4  1  0  0  0  0
  3  5  1  0  0  0  0
  3  6  1  0  0  0  0
  3  7  1  0  0  0  0
  4  8  1  0  0  0  0
  4  9  1  0  0  0  0
  4 10  1  0  0  0  0
M  END
$$$$
DMS_D_6
prProtoss 03122516373D 1   1.00000     0.00000     0
Protoss beta proteinsplus
 10  9  0  0  0  0            999 V2000
  -26.9580   15.6500   -5.6230 S   0  0  0  0  0  0  0  0  0  0  0  0
  -26.3060   14.9770   -4.4380 O   0  0  0  0  0  0  0  0  0  0  0  0
  -28.3200   14.5820   -6.1360 C   0  0  0  0  0  0  0  0  0  0  0  0
  -27.9670   16.9960   -4.9670 C   0  0  0  0  0  0  0  0  0  0  0  0
  -28.7845   14.9888   -6.9226 H   0  0  0  0  0  0  0  0  0  0  0  0
  -27.9618   13.6832   -6.3886 H   0  0  0  0  0  0  0  0  0  0  0  0
  -28.9681   14.4824   -5.3810 H   0  0  0  0  0  0  0  0  0  0  0  0
  -28.4196   17.4715   -5.7213 H   0  0  0  0  0  0  0  0  0  0  0  0
  -28.6567   16.6235   -4.3461 H   0  0  0  0  0  0  0  0  0  0  0  0
  -27.3835   17.6384   -4.4702 H   0  0  0  0  0  0  0  0  0  0  0  0
  1  2  2  0  0  0  0
  1  3  1  0  0  0  0
  1  4  1  0  0  0  0
  3  5  1  0  0  0  0
  3  6  1  0  0  0  0
  3  7  1  0  0  0  0
  4  8  1  0  0  0  0
  4  9  1  0  0  0  0
  4 10  1  0  0  0  0
M  END
$$$$
DMS_D_7
prProtoss 03122516373D 1   1.00000     0.00000     0
Protoss beta proteinsplus
 10  9  0  0  0  0            999 V2000
  -22.2960    9.8770    0.4560 S   0  0  0  0  0  0  0  0  0  0  0  0
  -22.8950    8.8910   -0.5170 O   0  0  0  0  0  0  0  0  0  0  0  0
  -23.4330   11.2740    0.5580 C   0  0  0  0  0  0  0  0  0  0  0  0
  -22.5910    9.2430    2.1200 C   0  0  0  0  0  0  0  0  0  0  0  0
  -23.0703   11.9531    1.1961 H   0  0  0  0  0  0  0  0  0  0  0  0
  -23.5348   11.6877   -0.3467 H   0  0  0  0  0  0  0  0  0  0  0  0
  -24.3242   10.9556    0.8811 H   0  0  0  0  0  0  0  0  0  0  0  0
  -22.2048    9.8758    2.7911 H   0  0  0  0  0  0  0  0  0  0  0  0
  -23.5752    9.1544    2.2733 H   0  0  0  0  0  0  0  0  0  0  0  0
  -22.1565    8.3476    2.2175 H   0  0  0  0  0  0  0  0  0  0  0  0
  1  2  2  0  0  0  0
  1  3  1  0  0  0  0
  1  4  1  0  0  0  0
  3  5  1  0  0  0  0
  3  6  1  0  0  0  0
  3  7  1  0  0  0  0
  4  8  1  0  0  0  0
  4  9  1  0  0  0  0
  4 10  1  0  0  0  0
M  END
$$$$
DMS_D_8
prProtoss 03122516373D 1   1.00000     0.00000     0
Protoss beta proteinsplus
 10  9  0  0  0  0            999 V2000
   15.8910   14.0970  -27.3600 S   0  0  0  0  0  0  0  0  0  0  0  0
   16.2200   12.6720  -26.9870 O   0  0  0  0  0  0  0  0  0  0  0  0
   15.9870   15.0630  -25.8380 C   0  0  0  0  0  0  0  0  0  0  0  0
   17.3590   14.7830  -28.1560 C   0  0  0  0  0  0  0  0  0  0  0  0
   15.7754   16.0199  -26.0367 H   0  0  0  0  0  0  0  0  0  0  0  0
   15.3286   14.7067  -25.1750 H   0  0  0  0  0  0  0  0  0  0  0  0
   16.9102   14.9974  -25.4593 H   0  0  0  0  0  0  0  0  0  0  0  0
   17.1825   15.7312  -28.4203 H   0  0  0  0  0  0  0  0  0  0  0  0
   18.1289   14.7524  -27.5185 H   0  0  0  0  0  0  0  0  0  0  0  0
   17.5787   14.2454  -28.9701 H   0  0  0  0  0  0  0  0  0  0  0  0
  1  2  2  0  0  0  0
  1  3  1  0  0  0  0
  1  4  1  0  0  0  0
  3  5  1  0  0  0  0
  3  6  1  0  0  0  0
  3  7  1  0  0  0  0
  4  8  1  0  0  0  0
  4  9  1  0  0  0  0
  4 10  1  0  0  0  0
M  END
$$$$
DMS_D_9
prProtoss 03122516373D 1   1.00000     0.00000     0
Protoss beta proteinsplus
 10  9  0  0  0  0            999 V2000
   -7.9660   -9.1790   -1.5500 S   0  0  0  0  0  0  0  0  0  0  0  0
   -8.8180   -8.8300   -2.7540 O   0  0  0  0  0  0  0  0  0  0  0  0
   -8.2290  -10.9390   -1.2590 C   0  0  0  0  0  0  0  0  0  0  0  0
   -6.2950   -9.3300   -2.2200 C   0  0  0  0  0  0  0  0  0  0  0  0
   -7.6883  -11.2308   -0.4700 H   0  0  0  0  0  0  0  0  0  0  0  0
   -9.1984  -11.1059   -1.0789 H   0  0  0  0  0  0  0  0  0  0  0  0
   -7.9461  -11.4563   -2.0667 H   0  0  0  0  0  0  0  0  0  0  0  0
   -5.6601   -9.5619   -1.4830 H   0  0  0  0  0  0  0  0  0  0  0  0
   -6.2778  -10.0501   -2.9137 H   0  0  0  0  0  0  0  0  0  0  0  0
   -6.0222   -8.4616   -2.6341 H   0  0  0  0  0  0  0  0  0  0  0  0
  1  2  2  0  0  0  0
  1  3  1  0  0  0  0
  1  4  1  0  0  0  0
  3  5  1  0  0  0  0
  3  6  1  0  0  0  0
  3  7  1  0  0  0  0
  4  8  1  0  0  0  0
  4  9  1  0  0  0  0
  4 10  1  0  0  0  0
M  END
$$$$
DMS_D_10
prProtoss 03122516373D 1   1.00000     0.00000     0
Protoss beta proteinsplus
 10  9  0  0  0  0            999 V2000
   12.0190   14.4970  -22.5030 S   0  0  0  0  0  0  0  0  0  0  0  0
   12.0960   13.6650  -21.2430 O   0  0  0  0  0  0  0  0  0  0  0  0
   13.2500   13.8260  -23.6390 C   0  0  0  0  0  0  0  0  0  0  0  0
   10.5480   13.9570  -23.3950 C   0  0  0  0  0  0  0  0  0  0  0  0
   13.2359   14.3477  -24.4920 H   0  0  0  0  0  0  0  0  0  0  0  0
   14.1573   13.8909  -23.2236 H   0  0  0  0  0  0  0  0  0  0  0  0
   13.0390   12.8675  -23.8310 H   0  0  0  0  0  0  0  0  0  0  0  0
   10.4581   14.4844  -24.2399 H   0  0  0  0  0  0  0  0  0  0  0  0
   10.6301   12.9852  -23.6159 H   0  0  0  0  0  0  0  0  0  0  0  0
    9.7400   14.1020  -22.8240 H   0  0  0  0  0  0  0  0  0  0  0  0
  1  2  2  0  0  0  0
  1  3  1  0  0  0  0
  1  4  1  0  0  0  0
  3  5  1  0  0  0  0
  3  6  1  0  0  0  0
  3  7  1  0  0  0  0
  4  8  1  0  0  0  0
  4  9  1  0  0  0  0
  4 10  1  0  0  0  0
M  END
$$$$
DMS_A_601
prProtoss 03122516393D 1   1.00000     0.00000     0
Protoss beta proteinsplus
 10  9  0  0  0  0            999 V2000
  -32.3080   11.1610  -28.2750 S   0  0  0  0  0  0  0  0  0  0  0  0
  -31.7020    9.7950  -28.0560 O   0  0  0  0  0  0  0  0  0  0  0  0
  -31.3900   12.2670  -27.1990 C   0  0  0  0  0  0  0  0  0  0  0  0
  -31.6270   11.7800  -29.8280 C   0  0  0  0  0  0  0  0  0  0  0  0
  -31.7444   13.1970  -27.2963 H   0  0  0  0  0  0  0  0  0  0  0  0
  -31.4918   11.9692  -26.2498 H   0  0  0  0  0  0  0  0  0  0  0  0
  -30.4226   12.2508  -27.4515 H   0  0  0  0  0  0  0  0  0  0  0  0
  -32.0009   12.6879  -30.0175 H   0  0  0  0  0  0  0  0  0  0  0  0
  -30.6313   11.8380  -29.7557 H   0  0  0  0  0  0  0  0  0  0  0  0
  -31.8716   11.1570  -30.5710 H   0  0  0  0  0  0  0  0  0  0  0  0
  1  2  2  0  0  0  0
  1  3  1  0  0  0  0
  1  4  1  0  0  0  0
  3  5  1  0  0  0  0
  3  6  1  0  0  0  0
  3  7  1  0  0  0  0
  4  8  1  0  0  0  0
  4  9  1  0  0  0  0
  4 10  1  0  0  0  0
M  END
$$$$
DMS_A_801
prProtoss 03122516393D 1   1.00000     0.00000     0
Protoss beta proteinsplus
 10  9  0  0  0  0            999 V2000
  -16.4620   24.9400  -33.0890 S   0  0  0  0  0  0  0  0  0  0  0  0
  -15.2830   25.2250  -33.9840 O   0  0  0  0  0  0  0  0  0  0  0  0
  -17.2830   26.5280  -32.7860 C   0  0  0  0  0  0  0  0  0  0  0  0
  -17.7800   24.2920  -34.1360 C   0  0  0  0  0  0  0  0  0  0  0  0
  -18.0756   26.3857  -32.1931 H   0  0  0  0  0  0  0  0  0  0  0  0
  -16.6428   27.1548  -32.3419 H   0  0  0  0  0  0  0  0  0  0  0  0
  -17.5834   26.9193  -33.6559 H   0  0  0  0  0  0  0  0  0  0  0  0
  -18.5827   24.0902  -33.5748 H   0  0  0  0  0  0  0  0  0  0  0  0
  -18.0200   24.9719  -34.8289 H   0  0  0  0  0  0  0  0  0  0  0  0
  -17.4680   23.4546  -34.5848 H   0  0  0  0  0  0  0  0  0  0  0  0
  1  2  2  0  0  0  0
  1  3  1  0  0  0  0
  1  4  1  0  0  0  0
  3  5  1  0  0  0  0
  3  6  1  0  0  0  0
  3  7  1  0  0  0  0
  4  8  1  0  0  0  0
  4  9  1  0  0  0  0
  4 10  1  0  0  0  0
M  END
$$$$
DMS_A_901
prProtoss 03122516393D 1   1.00000     0.00000     0
Protoss beta proteinsplus
 10  9  0  0  0  0            999 V2000
  -37.9580   13.8220  -26.6550 S   0  0  0  0  0  0  0  0  0  0  0  0
  -36.7960   12.9460  -26.2660 O   0  0  0  0  0  0  0  0  0  0  0  0
  -38.4770   13.3230  -28.3110 C   0  0  0  0  0  0  0  0  0  0  0  0
  -39.4090   13.2090  -25.7610 C   0  0  0  0  0  0  0  0  0  0  0  0
  -39.2501   13.8865  -28.6020 H   0  0  0  0  0  0  0  0  0  0  0  0
  -37.7169   13.4447  -28.9493 H   0  0  0  0  0  0  0  0  0  0  0  0
  -38.7513   12.3614  -28.2988 H   0  0  0  0  0  0  0  0  0  0  0  0
  -40.2048   13.7678  -25.9942 H   0  0  0  0  0  0  0  0  0  0  0  0
  -39.5822   12.2584  -26.0186 H   0  0  0  0  0  0  0  0  0  0  0  0
  -39.2411   13.2623  -24.7766 H   0  0  0  0  0  0  0  0  0  0  0  0
  1  2  2  0  0  0  0
  1  3  1  0  0  0  0
  1  4  1  0  0  0  0
  3  5  1  0  0  0  0
  3  6  1  0  0  0  0
  3  7  1  0  0  0  0
  4  8  1  0  0  0  0
  4  9  1  0  0  0  0
  4 10  1  0  0  0  0
M  END
$$$$
DMS_A_902
prProtoss 03122516393D 1   1.00000     0.00000     0
Protoss beta proteinsplus
 10  9  0  0  0  0            999 V2000
  -41.8920   13.6240  -21.0480 S   0  0  0  0  0  0  0  0  0  0  0  0
  -42.1980   12.2200  -20.5120 O   0  0  0  0  0  0  0  0  0  0  0  0
  -43.2580   14.7920  -20.7840 C   0  0  0  0  0  0  0  0  0  0  0  0
  -41.8250   13.5680  -22.8580 C   0  0  0  0  0  0  0  0  0  0  0  0
  -43.0063   15.6877  -21.1507 H   0  0  0  0  0  0  0  0  0  0  0  0
  -44.0767   14.4585  -21.2514 H   0  0  0  0  0  0  0  0  0  0  0  0
  -43.4429   14.8728  -19.8046 H   0  0  0  0  0  0  0  0  0  0  0  0
  -41.6256   14.4815  -23.2126 H   0  0  0  0  0  0  0  0  0  0  0  0
  -41.1065   12.9347  -23.1455 H   0  0  0  0  0  0  0  0  0  0  0  0
  -42.7059   13.2569  -23.2147 H   0  0  0  0  0  0  0  0  0  0  0  0
  1  2  2  0  0  0  0
  1  3  1  0  0  0  0
  1  4  1  0  0  0  0
  3  5  1  0  0  0  0
  3  6  1  0  0  0  0
  3  7  1  0  0  0  0
  4  8  1  0  0  0  0
  4  9  1  0  0  0  0
  4 10  1  0  0  0  0
M  END
$$$$
264_B_3
prProtoss 03122516393D 1   1.00000     0.00000     0
Protoss beta proteinsplus
 38 40  0  0  0  0            999 V2000
   -8.5780    2.1760  -40.9210 F   0  0  0  0  0  0  0  0  0  0  0  0
   -4.3300   -1.4660  -45.0100 O   0  0  0  0  0  0  0  0  0  0  0  0
   -6.3310    1.9550  -48.5710 O   0  0  0  0  0  0  0  0  0  0  0  0
   -5.9730   -2.2170  -46.4150 N   0  0  0  0  0  0  0  0  0  0  0  0
   -5.2470   -0.0600  -46.5280 N   0  0  0  0  0  0  0  0  0  0  0  0
   -8.6800    2.1280  -45.7500 N   0  0  0  0  0  0  0  0  0  0  0  0
   -6.3830    2.4290  -45.8580 N   0  0  0  0  0  0  0  0  0  0  0  0
   -6.7220   -4.4900  -46.7150 C   0  0  0  0  0  0  0  0  0  0  0  0
   -5.9260   -3.5590  -45.8530 C   0  0  0  0  0  0  0  0  0  0  0  0
   -7.6860    2.2210  -48.1090 C   0  0  0  0  0  0  0  0  0  0  0  0
   -5.3310    2.8090  -47.9780 C   0  0  0  0  0  0  0  0  0  0  0  0
   -4.4180    1.0920  -46.1800 C   0  0  0  0  0  0  0  0  0  0  0  0
   -6.6580    2.4120  -42.1970 C   0  0  0  0  0  0  0  0  0  0  0  0
   -6.0240    2.4640  -43.3840 C   0  0  0  0  0  0  0  0  0  0  0  0
   -8.7870    2.1410  -43.2570 C   0  0  0  0  0  0  0  0  0  0  0  0
   -5.1160   -1.2730  -45.9250 C   0  0  0  0  0  0  0  0  0  0  0  0
   -8.0180    2.2460  -42.1650 C   0  0  0  0  0  0  0  0  0  0  0  0
   -7.6400    2.2250  -46.6200 C   0  0  0  0  0  0  0  0  0  0  0  0
   -8.1450    2.1840  -44.4520 C   0  0  0  0  0  0  0  0  0  0  0  0
   -5.0690    2.4820  -46.4800 C   0  0  2  0  0  0  0  0  0  0  0  0
   -6.7870    2.3420  -44.4720 C   0  0  0  0  0  0  0  0  0  0  0  0
   -6.6189   -1.9910  -47.1442 H   0  0  0  0  0  0  0  0  0  0  0  0
   -5.9407    0.0476  -47.2402 H   0  0  0  0  0  0  0  0  0  0  0  0
   -6.6895   -5.4118  -46.3286 H   0  0  0  0  0  0  0  0  0  0  0  0
   -7.6714   -4.1783  -46.7542 H   0  0  0  0  0  0  0  0  0  0  0  0
   -6.3366   -4.5015  -47.6377 H   0  0  0  0  0  0  0  0  0  0  0  0
   -6.3115   -3.5476  -44.9303 H   0  0  0  0  0  0  0  0  0  0  0  0
   -4.9767   -3.8708  -45.8138 H   0  0  0  0  0  0  0  0  0  0  0  0
   -8.3065    1.5065  -48.4323 H   0  0  0  0  0  0  0  0  0  0  0  0
   -7.9965    3.1098  -48.4462 H   0  0  0  0  0  0  0  0  0  0  0  0
   -5.6388    3.7578  -48.0486 H   0  0  0  0  0  0  0  0  0  0  0  0
   -4.4754    2.6976  -48.4835 H   0  0  0  0  0  0  0  0  0  0  0  0
   -3.5650    1.0295  -46.6982 H   0  0  0  0  0  0  0  0  0  0  0  0
   -4.2176    1.0469  -45.2013 H   0  0  0  0  0  0  0  0  0  0  0  0
   -6.1403    2.4939  -41.3454 H   0  0  0  0  0  0  0  0  0  0  0  0
   -5.0336    2.5875  -43.4468 H   0  0  0  0  0  0  0  0  0  0  0  0
   -9.7796    2.0367  -43.1950 H   0  0  0  0  0  0  0  0  0  0  0  0
   -4.5244    3.2098  -46.0631 H   0  0  0  0  0  0  0  0  0  0  0  0
  1 17  1  0  0  0  0
  2 16  2  0  0  0  0
  3 10  1  0  0  0  0
  3 11  1  0  0  0  0
  4  9  1  0  0  0  0
  4 16  1  0  0  0  0
  5 12  1  0  0  0  0
  5 16  1  0  0  0  0
  6 18  2  0  0  0  0
  6 19  1  0  0  0  0
  7 18  1  0  0  0  0
  7 20  1  0  0  0  0
  7 21  1  0  0  0  0
  8  9  1  0  0  0  0
 10 18  1  0  0  0  0
 11 20  1  0  0  0  0
 12 20  1  0  0  0  0
 13 14  1  0  0  0  0
 13 17  2  0  0  0  0
 14 21  2  0  0  0  0
 15 17  1  0  0  0  0
 15 19  2  0  0  0  0
 19 21  1  0  0  0  0
  4 22  1  0  0  0  0
  5 23  1  0  0  0  0
  8 24  1  0  0  0  0
  8 25  1  0  0  0  0
  8 26  1  0  0  0  0
  9 27  1  0  0  0  0
  9 28  1  0  0  0  0
 10 29  1  0  0  0  0
 10 30  1  0  0  0  0
 11 31  1  0  0  0  0
 11 32  1  0  0  0  0
 12 33  1  0  0  0  0
 12 34  1  0  0  0  0
 13 35  1  0  0  0  0
 14 36  1  0  0  0  0
 15 37  1  0  0  0  0
 20 38  1  0  0  0  0
M  END
$$$$
264_B_4
prProtoss 03122516393D 1   1.00000     0.00000     0
Protoss beta proteinsplus
 35 37  0  0  0  0            999 V2000
  -11.5540    0.4850  -29.5530 F   0  0  0  0  0  0  0  0  0  0  0  0
  -18.8600    1.8750  -28.8240 O   0  0  0  0  0  0  0  0  0  0  0  0
  -16.3730    6.7710  -29.4910 O   0  0  0  0  0  0  0  0  0  0  0  0
  -20.8050    2.9700  -28.3110 N   0  0  0  0  0  0  0  0  0  0  0  0
  -18.8030    4.0680  -28.0980 N   0  0  0  0  0  0  0  0  0  0  0  0
  -13.2420    4.9160  -29.6980 N   0  0  0  0  0  0  0  0  0  0  0  0
  -15.4460    4.2220  -29.6860 N   0  0  0  0  0  0  0  0  0  0  0  0
  -21.6630    1.8520  -28.6070 C   0  0  0  0  0  0  0  0  0  0  0  0
  -14.9740    6.8050  -29.7990 C   0  0  0  0  0  0  0  0  0  0  0  0
  -17.1440    5.7760  -30.2160 C   0  0  0  0  0  0  0  0  0  0  0  0
  -17.3400    4.2010  -28.1930 C   0  0  0  0  0  0  0  0  0  0  0  0
  -13.7860    0.9560  -29.5850 C   0  0  0  0  0  0  0  0  0  0  0  0
  -14.8420    1.7650  -29.6240 C   0  0  0  0  0  0  0  0  0  0  0  0
  -12.1930    2.7090  -29.6020 C   0  0  0  0  0  0  0  0  0  0  0  0
  -19.4350    2.8870  -28.4480 C   0  0  0  0  0  0  0  0  0  0  0  0
  -12.5170    1.4170  -29.5650 C   0  0  0  0  0  0  0  0  0  0  0  0
  -14.5080    5.4100  -29.7340 C   0  0  0  0  0  0  0  0  0  0  0  0
  -13.2670    3.5470  -29.6450 C   0  0  0  0  0  0  0  0  0  0  0  0
  -16.8830    4.3550  -29.6760 C   0  0  2  0  0  0  0  0  0  0  0  0
  -14.5360    3.0660  -29.6670 C   0  0  0  0  0  0  0  0  0  0  0  0
  -21.2126    3.8280  -27.9983 H   0  0  0  0  0  0  0  0  0  0  0  0
  -19.3482    4.8420  -27.7760 H   0  0  0  0  0  0  0  0  0  0  0  0
  -22.6154    2.1110  -28.4461 H   0  0  0  0  0  0  0  0  0  0  0  0
  -21.5468    1.5869  -29.5642 H   0  0  0  0  0  0  0  0  0  0  0  0
  -21.4226    1.0818  -28.0163 H   0  0  0  0  0  0  0  0  0  0  0  0
  -14.4850    7.3658  -29.1309 H   0  0  0  0  0  0  0  0  0  0  0  0
  -14.8294    7.1769  -30.7159 H   0  0  0  0  0  0  0  0  0  0  0  0
  -16.8891    5.8083  -31.1824 H   0  0  0  0  0  0  0  0  0  0  0  0
  -18.1170    5.9862  -30.1207 H   0  0  0  0  0  0  0  0  0  0  0  0
  -16.9123    3.3856  -27.8029 H   0  0  0  0  0  0  0  0  0  0  0  0
  -17.0516    5.0078  -27.6773 H   0  0  0  0  0  0  0  0  0  0  0  0
  -13.9383   -0.0322  -29.5699 H   0  0  0  0  0  0  0  0  0  0  0  0
  -15.7838    1.4287  -29.6214 H   0  0  0  0  0  0  0  0  0  0  0  0
  -11.2474    3.0343  -29.5985 H   0  0  0  0  0  0  0  0  0  0  0  0
  -17.3122    3.6645  -30.2582 H   0  0  0  0  0  0  0  0  0  0  0  0
  1 16  1  0  0  0  0
  2 15  2  0  0  0  0
  3  9  1  0  0  0  0
  3 10  1  0  0  0  0
  4  8  1  0  0  0  0
  4 15  1  0  0  0  0
  5 11  1  0  0  0  0
  5 15  1  0  0  0  0
  6 17  2  0  0  0  0
  6 18  1  0  0  0  0
  7 17  1  0  0  0  0
  7 19  1  0  0  0  0
  7 20  1  0  0  0  0
  9 17  1  0  0  0  0
 10 19  1  0  0  0  0
 11 19  1  0  0  0  0
 12 13  1  0  0  0  0
 12 16  2  0  0  0  0
 13 20  2  0  0  0  0
 14 16  1  0  0  0  0
 14 18  2  0  0  0  0
 18 20  1  0  0  0  0
  4 21  1  0  0  0  0
  5 22  1  0  0  0  0
  8 23  1  0  0  0  0
  8 24  1  0  0  0  0
  8 25  1  0  0  0  0
  9 26  1  0  0  0  0
  9 27  1  0  0  0  0
 10 28  1  0  0  0  0
 10 29  1  0  0  0  0
 11 30  1  0  0  0  0
 11 31  1  0  0  0  0
 12 32  1  0  0  0  0
 13 33  1  0  0  0  0
 14 34  1  0  0  0  0
 19 35  1  0  0  0  0
M  END
$$$$
264_B_5
prProtoss 03122516393D 1   1.00000     0.00000     0
Protoss beta proteinsplus
 35 37  0  0  0  0            999 V2000
  -10.0960   18.9410  -12.0960 F   0  0  0  0  0  0  0  0  0  0  0  0
   -0.5020   19.4270   -8.1340 O   0  0  0  0  0  0  0  0  0  0  0  0
   -4.4450   16.7870   -6.9460 O   0  0  0  0  0  0  0  0  0  0  0  0
   -1.1740   18.9090  -10.2480 N   0  0  0  0  0  0  0  0  0  0  0  0
   -2.6910   18.9290   -8.5220 N   0  0  0  0  0  0  0  0  0  0  0  0
   -7.8680   17.3610   -8.1760 N   0  0  0  0  0  0  0  0  0  0  0  0
   -5.7940   17.3400   -9.2580 N   0  0  0  0  0  0  0  0  0  0  0  0
    0.1510   19.0690  -10.8240 C   0  0  0  0  0  0  0  0  0  0  0  0
   -5.8600   16.5790   -6.7600 C   0  0  0  0  0  0  0  0  0  0  0  0
   -3.8650   16.3640   -8.1950 C   0  0  0  0  0  0  0  0  0  0  0  0
   -3.7220   18.5700   -9.4830 C   0  0  0  0  0  0  0  0  0  0  0  0
   -7.8770   18.5550  -12.0100 C   0  0  0  0  0  0  0  0  0  0  0  0
   -6.7500   18.1620  -11.4020 C   0  0  0  0  0  0  0  0  0  0  0  0
   -9.1500   18.1730  -10.0880 C   0  0  0  0  0  0  0  0  0  0  0  0
   -1.3800   19.1180   -8.9080 C   0  0  0  0  0  0  0  0  0  0  0  0
   -9.0480   18.5510  -11.3700 C   0  0  0  0  0  0  0  0  0  0  0  0
   -6.5470   17.0680   -7.9660 C   0  0  0  0  0  0  0  0  0  0  0  0
   -8.0180   17.7980   -9.4730 C   0  0  0  0  0  0  0  0  0  0  0  0
   -4.3610   17.1680   -9.4220 C   0  0  2  0  0  0  0  0  0  0  0  0
   -6.8520   17.8060  -10.1400 C   0  0  0  0  0  0  0  0  0  0  0  0
   -2.9380   19.0414   -7.5595 H   0  0  0  0  0  0  0  0  0  0  0  0
    0.1134   18.8779  -11.8049 H   0  0  0  0  0  0  0  0  0  0  0  0
    0.4665   20.0068  -10.6789 H   0  0  0  0  0  0  0  0  0  0  0  0
    0.7846   18.4324  -10.3845 H   0  0  0  0  0  0  0  0  0  0  0  0
   -6.1763   17.0866   -5.9585 H   0  0  0  0  0  0  0  0  0  0  0  0
   -6.0471   15.6049   -6.6329 H   0  0  0  0  0  0  0  0  0  0  0  0
   -4.0921   15.4006   -8.3372 H   0  0  0  0  0  0  0  0  0  0  0  0
   -2.8723   16.4666   -8.1318 H   0  0  0  0  0  0  0  0  0  0  0  0
   -3.3181   18.6663  -10.3927 H   0  0  0  0  0  0  0  0  0  0  0  0
   -4.4633   19.2325   -9.3756 H   0  0  0  0  0  0  0  0  0  0  0  0
   -7.8401   18.8574  -12.9625 H   0  0  0  0  0  0  0  0  0  0  0  0
   -5.8741   18.1403  -11.8840 H   0  0  0  0  0  0  0  0  0  0  0  0
  -10.0294   18.1706   -9.6118 H   0  0  0  0  0  0  0  0  0  0  0  0
   -4.1686   16.6647  -10.2644 H   0  0  0  0  0  0  0  0  0  0  0  0
   -0.7142   19.5659   -7.1667 H   0  0  0  0  0  0  0  0  0  0  0  0
  1 16  1  0  0  0  0
  2 15  1  0  0  0  0
  3  9  1  0  0  0  0
  3 10  1  0  0  0  0
  4  8  1  0  0  0  0
  4 15  2  0  0  0  0
  5 11  1  0  0  0  0
  5 15  1  0  0  0  0
  6 17  2  0  0  0  0
  6 18  1  0  0  0  0
  7 17  1  0  0  0  0
  7 19  1  0  0  0  0
  7 20  1  0  0  0  0
  9 17  1  0  0  0  0
 10 19  1  0  0  0  0
 11 19  1  0  0  0  0
 12 13  1  0  0  0  0
 12 16  2  0  0  0  0
 13 20  2  0  0  0  0
 14 16  1  0  0  0  0
 14 18  2  0  0  0  0
 18 20  1  0  0  0  0
  2 35  1  0  0  0  0
  5 21  1  0  0  0  0
  8 22  1  0  0  0  0
  8 23  1  0  0  0  0
  8 24  1  0  0  0  0
  9 25  1  0  0  0  0
  9 26  1  0  0  0  0
 10 27  1  0  0  0  0
 10 28  1  0  0  0  0
 11 29  1  0  0  0  0
 11 30  1  0  0  0  0
 12 31  1  0  0  0  0
 13 32  1  0  0  0  0
 14 33  1  0  0  0  0
 19 34  1  0  0  0  0
M  END
$$$$
274_A_401
prProtoss 03122516393D 1   1.00000     0.00000     0
Protoss beta proteinsplus
 36 37  0  0  0  0            999 V2000
   -9.4060    6.5080  -18.0830 O   0  0  0  0  0  0  0  0  0  0  0  0
   -7.4500    1.4060  -19.4840 N   0  3  0  0  0  0  0  0  0  0  0  0
  -11.8760    2.9020  -19.3170 N   0  0  0  0  0  0  0  0  0  0  0  0
   -9.8070    4.0180  -19.4550 N   0  0  0  0  0  0  0  0  0  0  0  0
  -10.3420    4.7950  -20.5620 C   0  0  0  0  0  0  0  0  0  0  0  0
  -14.1560    1.9290  -19.3420 C   0  0  0  0  0  0  0  0  0  0  0  0
   -8.4180    5.9760  -18.9760 C   0  0  0  0  0  0  0  0  0  0  0  0
   -7.5790    2.4970  -20.4540 C   0  0  0  0  0  0  0  0  0  0  0  0
   -8.4420    1.3450  -18.3820 C   0  0  0  0  0  0  0  0  0  0  0  0
   -7.3400    3.8710  -19.8450 C   0  0  0  0  0  0  0  0  0  0  0  0
  -12.0980    0.6920  -18.6390 C   0  0  0  0  0  0  0  0  0  0  0  0
  -10.7630    0.6440  -18.4630 C   0  0  0  0  0  0  0  0  0  0  0  0
  -10.5010    2.8140  -19.1070 C   0  0  0  0  0  0  0  0  0  0  0  0
  -12.6820    1.8110  -19.0990 C   0  0  0  0  0  0  0  0  0  0  0  0
   -8.4960    4.4550  -19.0150 C   0  0  2  0  0  0  0  0  0  0  0  0
   -9.9070    1.6790  -18.6520 C   0  0  0  0  0  0  0  0  0  0  0  0
   -9.3406    7.5058  -18.0697 H   0  0  0  0  0  0  0  0  0  0  0  0
   -6.5442    1.4819  -19.0672 H   0  0  0  0  0  0  0  0  0  0  0  0
   -9.7740    5.6054  -20.7057 H   0  0  0  0  0  0  0  0  0  0  0  0
  -10.3422    4.2368  -21.3917 H   0  0  0  0  0  0  0  0  0  0  0  0
  -11.2776    5.0771  -20.3498 H   0  0  0  0  0  0  0  0  0  0  0  0
  -14.5983    1.0554  -19.1389 H   0  0  0  0  0  0  0  0  0  0  0  0
  -14.5355    2.6403  -18.7503 H   0  0  0  0  0  0  0  0  0  0  0  0
  -14.3178    2.1700  -20.2989 H   0  0  0  0  0  0  0  0  0  0  0  0
   -7.5091    6.2508  -18.6623 H   0  0  0  0  0  0  0  0  0  0  0  0
   -8.5767    6.3371  -19.8949 H   0  0  0  0  0  0  0  0  0  0  0  0
   -8.5028    2.4750  -20.8363 H   0  0  0  0  0  0  0  0  0  0  0  0
   -6.9122    2.3529  -21.1851 H   0  0  0  0  0  0  0  0  0  0  0  0
   -8.1273    1.9787  -17.6753 H   0  0  0  0  0  0  0  0  0  0  0  0
   -8.4201    0.4109  -18.0257 H   0  0  0  0  0  0  0  0  0  0  0  0
   -7.1490    4.5072  -20.5925 H   0  0  0  0  0  0  0  0  0  0  0  0
   -6.5391    3.8060  -19.2497 H   0  0  0  0  0  0  0  0  0  0  0  0
  -12.6569   -0.1094  -18.4261 H   0  0  0  0  0  0  0  0  0  0  0  0
  -10.3706   -0.2274  -18.1685 H   0  0  0  0  0  0  0  0  0  0  0  0
   -8.3775    4.1304  -18.0766 H   0  0  0  0  0  0  0  0  0  0  0  0
   -7.5127    0.5462  -19.9908 H   0  0  0  0  0  0  0  0  0  0  0  0
  1  7  1  0  0  0  0
  2  8  1  0  0  0  0
  2  9  1  0  0  0  0
  3 13  2  0  0  0  0
  3 14  1  0  0  0  0
  4  5  1  0  0  0  0
  4 13  1  0  0  0  0
  4 15  1  0  0  0  0
  6 14  1  0  0  0  0
  7 15  1  0  0  0  0
  8 10  1  0  0  0  0
  9 16  1  0  0  0  0
 10 15  1  0  0  0  0
 11 12  1  0  0  0  0
 11 14  2  0  0  0  0
 12 16  2  0  0  0  0
 13 16  1  0  0  0  0
  1 17  1  0  0  0  0
  2 18  1  0  0  0  0
  5 19  1  0  0  0  0
  5 20  1  0  0  0  0
  5 21  1  0  0  0  0
  6 22  1  0  0  0  0
  6 23  1  0  0  0  0
  6 24  1  0  0  0  0
  7 25  1  0  0  0  0
  7 26  1  0  0  0  0
  8 27  1  0  0  0  0
  8 28  1  0  0  0  0
  9 29  1  0  0  0  0
  9 30  1  0  0  0  0
 10 31  1  0  0  0  0
 10 32  1  0  0  0  0
 11 33  1  0  0  0  0
 12 34  1  0  0  0  0
 15 35  1  0  0  0  0
  2 36  1  0  0  0  0
M  CHG  1   2   1
M  END
$$$$
274_A_501
prProtoss 03122516393D 1   1.00000     0.00000     0
Protoss beta proteinsplus
 36 37  0  0  0  0            999 V2000
  -17.9240   17.4440  -39.6980 O   0  0  0  0  0  0  0  0  0  0  0  0
  -23.1380   18.4640  -41.2980 N   0  3  0  0  0  0  0  0  0  0  0  0
  -19.5100   17.0150  -43.7000 N   0  0  0  0  0  0  0  0  0  0  0  0
  -20.0280   16.8320  -41.4150 N   0  0  0  0  0  0  0  0  0  0  0  0
  -19.6420   15.3980  -41.4740 C   0  0  0  0  0  0  0  0  0  0  0  0
  -18.7370   16.9280  -46.0460 C   0  0  0  0  0  0  0  0  0  0  0  0
  -19.1750   17.1580  -39.0880 C   0  0  0  0  0  0  0  0  0  0  0  0
  -22.7530   17.2020  -40.6700 C   0  0  0  0  0  0  0  0  0  0  0  0
  -22.1030   19.2770  -41.9430 C   0  0  0  0  0  0  0  0  0  0  0  0
  -21.6880   17.3920  -39.5810 C   0  0  0  0  0  0  0  0  0  0  0  0
  -20.4610   18.5500  -45.2070 C   0  0  0  0  0  0  0  0  0  0  0  0
  -21.2130   19.0250  -44.1910 C   0  0  0  0  0  0  0  0  0  0  0  0
  -20.2720   17.5310  -42.6670 C   0  0  0  0  0  0  0  0  0  0  0  0
  -19.6040   17.5340  -44.9760 C   0  0  0  0  0  0  0  0  0  0  0  0
  -20.2570   17.4880  -40.1190 C   0  0  2  0  0  0  0  0  0  0  0  0
  -21.1480   18.5670  -42.8930 C   0  0  0  0  0  0  0  0  0  0  0  0
  -17.1855   17.2412  -39.0550 H   0  0  0  0  0  0  0  0  0  0  0  0
  -23.5560   19.0302  -40.5876 H   0  0  0  0  0  0  0  0  0  0  0  0
  -19.5074   15.0506  -40.5460 H   0  0  0  0  0  0  0  0  0  0  0  0
  -20.3668   14.8759  -41.9235 H   0  0  0  0  0  0  0  0  0  0  0  0
  -18.7921   15.3026  -41.9922 H   0  0  0  0  0  0  0  0  0  0  0  0
  -18.9041   17.3948  -46.9145 H   0  0  0  0  0  0  0  0  0  0  0  0
  -17.7750   17.0295  -45.7927 H   0  0  0  0  0  0  0  0  0  0  0  0
  -18.9557   15.9569  -46.1420 H   0  0  0  0  0  0  0  0  0  0  0  0
  -19.2958   17.7209  -38.2704 H   0  0  0  0  0  0  0  0  0  0  0  0
  -19.2223   16.1912  -38.8370 H   0  0  0  0  0  0  0  0  0  0  0  0
  -22.3883   16.5915  -41.3730 H   0  0  0  0  0  0  0  0  0  0  0  0
  -23.5643   16.7880  -40.2572 H   0  0  0  0  0  0  0  0  0  0  0  0
  -21.5526   19.6924  -41.2187 H   0  0  0  0  0  0  0  0  0  0  0  0
  -22.5657   19.9948  -42.4632 H   0  0  0  0  0  0  0  0  0  0  0  0
  -21.7368   16.6142  -38.9543 H   0  0  0  0  0  0  0  0  0  0  0  0
  -21.8940   18.2345  -39.0833 H   0  0  0  0  0  0  0  0  0  0  0  0
  -20.5386   18.9473  -46.1214 H   0  0  0  0  0  0  0  0  0  0  0  0
  -21.8610   19.7589  -44.3944 H   0  0  0  0  0  0  0  0  0  0  0  0
  -20.1290   18.4615  -40.3087 H   0  0  0  0  0  0  0  0  0  0  0  0
  -23.8201   18.2484  -41.9967 H   0  0  0  0  0  0  0  0  0  0  0  0
  1  7  1  0  0  0  0
  2  8  1  0  0  0  0
  2  9  1  0  0  0  0
  3 13  2  0  0  0  0
  3 14  1  0  0  0  0
  4  5  1  0  0  0  0
  4 13  1  0  0  0  0
  4 15  1  0  0  0  0
  6 14  1  0  0  0  0
  7 15  1  0  0  0  0
  8 10  1  0  0  0  0
  9 16  1  0  0  0  0
 10 15  1  0  0  0  0
 11 12  1  0  0  0  0
 11 14  2  0  0  0  0
 12 16  2  0  0  0  0
 13 16  1  0  0  0  0
  1 17  1  0  0  0  0
  2 18  1  0  0  0  0
  5 19  1  0  0  0  0
  5 20  1  0  0  0  0
  5 21  1  0  0  0  0
  6 22  1  0  0  0  0
  6 23  1  0  0  0  0
  6 24  1  0  0  0  0
  7 25  1  0  0  0  0
  7 26  1  0  0  0  0
  8 27  1  0  0  0  0
  8 28  1  0  0  0  0
  9 29  1  0  0  0  0
  9 30  1  0  0  0  0
 10 31  1  0  0  0  0
 10 32  1  0  0  0  0
 11 33  1  0  0  0  0
 12 34  1  0  0  0  0
 15 35  1  0  0  0  0
  2 36  1  0  0  0  0
M  CHG  1   2   1
M  END
$$$$
274_A_601
prProtoss 03122516393D 1   1.00000     0.00000     0
Protoss beta proteinsplus
 36 37  0  0  0  0            999 V2000
   -4.5390    5.6890    4.8590 O   0  0  0  0  0  0  0  0  0  0  0  0
   -9.0430    7.3650    6.8190 N   0  3  0  0  0  0  0  0  0  0  0  0
   -9.2070    3.0020    5.0530 N   0  0  0  0  0  0  0  0  0  0  0  0
   -7.5550    4.5790    5.4050 N   0  0  0  0  0  0  0  0  0  0  0  0
   -6.7020    3.4610    5.7880 C   0  0  0  0  0  0  0  0  0  0  0  0
  -10.6930    1.0930    4.6070 C   0  0  0  0  0  0  0  0  0  0  0  0
   -5.7460    5.8090    4.1160 C   0  0  0  0  0  0  0  0  0  0  0  0
   -7.8410    6.6980    7.3060 C   0  0  0  0  0  0  0  0  0  0  0  0
  -10.0570    6.6560    6.0460 C   0  0  0  0  0  0  0  0  0  0  0  0
   -6.7180    6.7970    6.2960 C   0  0  0  0  0  0  0  0  0  0  0  0
  -11.4940    3.3710    5.2320 C   0  0  0  0  0  0  0  0  0  0  0  0
  -11.2550    4.6580    5.5530 C   0  0  0  0  0  0  0  0  0  0  0  0
   -8.9760    4.3300    5.3850 C   0  0  0  0  0  0  0  0  0  0  0  0
  -10.4910    2.5280    4.9760 C   0  0  0  0  0  0  0  0  0  0  0  0
   -6.9400    5.8760    5.0940 C   0  0  2  0  0  0  0  0  0  0  0  0
  -10.0040    5.1880    5.6470 C   0  0  0  0  0  0  0  0  0  0  0  0
   -3.7631    5.6453    4.2297 H   0  0  0  0  0  0  0  0  0  0  0  0
   -8.7308    8.1219    6.2449 H   0  0  0  0  0  0  0  0  0  0  0  0
   -5.7447    3.7493    5.7662 H   0  0  0  0  0  0  0  0  0  0  0  0
   -6.9391    3.1622    6.7124 H   0  0  0  0  0  0  0  0  0  0  0  0
   -6.8369    2.7044    5.1482 H   0  0  0  0  0  0  0  0  0  0  0  0
  -11.6716    0.8879    4.5893 H   0  0  0  0  0  0  0  0  0  0  0  0
  -10.3003    0.9228    3.7032 H   0  0  0  0  0  0  0  0  0  0  0  0
  -10.2421    0.5087    5.2817 H   0  0  0  0  0  0  0  0  0  0  0  0
   -5.8495    5.0160    3.5157 H   0  0  0  0  0  0  0  0  0  0  0  0
   -5.7179    6.6429    3.5648 H   0  0  0  0  0  0  0  0  0  0  0  0
   -8.0469    5.7337    7.4725 H   0  0  0  0  0  0  0  0  0  0  0  0
   -7.5512    7.1293    8.1604 H   0  0  0  0  0  0  0  0  0  0  0  0
  -10.1330    7.1603    5.1858 H   0  0  0  0  0  0  0  0  0  0  0  0
  -10.9043    6.7569    6.5675 H   0  0  0  0  0  0  0  0  0  0  0  0
   -5.8599    6.5431    6.7423 H   0  0  0  0  0  0  0  0  0  0  0  0
   -6.6585    7.7411    5.9719 H   0  0  0  0  0  0  0  0  0  0  0  0
  -12.4373    3.0425    5.1849 H   0  0  0  0  0  0  0  0  0  0  0  0
  -12.0372    5.2550    5.7315 H   0  0  0  0  0  0  0  0  0  0  0  0
   -7.6465    6.3480    4.5666 H   0  0  0  0  0  0  0  0  0  0  0  0
   -9.5086    7.7286    7.6258 H   0  0  0  0  0  0  0  0  0  0  0  0
  1  7  1  0  0  0  0
  2  8  1  0  0  0  0
  2  9  1  0  0  0  0
  3 13  2  0  0  0  0
  3 14  1  0  0  0  0
  4  5  1  0  0  0  0
  4 13  1  0  0  0  0
  4 15  1  0  0  0  0
  6 14  1  0  0  0  0
  7 15  1  0  0  0  0
  8 10  1  0  0  0  0
  9 16  1  0  0  0  0
 10 15  1  0  0  0  0
 11 12  1  0  0  0  0
 11 14  2  0  0  0  0
 12 16  2  0  0  0  0
 13 16  1  0  0  0  0
  1 17  1  0  0  0  0
  2 18  1  0  0  0  0
  5 19  1  0  0  0  0
  5 20  1  0  0  0  0
  5 21  1  0  0  0  0
  6 22  1  0  0  0  0
  6 23  1  0  0  0  0
  6 24  1  0  0  0  0
  7 25  1  0  0  0  0
  7 26  1  0  0  0  0
  8 27  1  0  0  0  0
  8 28  1  0  0  0  0
  9 29  1  0  0  0  0
  9 30  1  0  0  0  0
 10 31  1  0  0  0  0
 10 32  1  0  0  0  0
 11 33  1  0  0  0  0
 12 34  1  0  0  0  0
 15 35  1  0  0  0  0
  2 36  1  0  0  0  0
M  CHG  1   2   1
M  END
$$$$
274_A_701
prProtoss 03122516393D 1   1.00000     0.00000     0
Protoss beta proteinsplus
 36 37  0  0  0  0            999 V2000
    3.1860   21.4110  -15.2380 O   0  0  0  0  0  0  0  0  0  0  0  0
    0.5430   24.6790  -16.9710 N   0  3  0  0  0  0  0  0  0  0  0  0
   -0.0840   24.9500  -12.3680 N   0  0  0  0  0  0  0  0  0  0  0  0
    0.2470   22.9760  -13.5270 N   0  0  0  0  0  0  0  0  0  0  0  0
   -0.2040   22.2890  -12.3230 C   0  0  0  0  0  0  0  0  0  0  0  0
   -0.3170   26.8070  -10.7960 C   0  0  0  0  0  0  0  0  0  0  0  0
    2.5080   21.9640  -14.1050 C   0  0  0  0  0  0  0  0  0  0  0  0
    1.5460   23.7540  -16.4600 C   0  0  0  0  0  0  0  0  0  0  0  0
   -0.6660   24.7710  -16.1640 C   0  0  0  0  0  0  0  0  0  0  0  0
    0.9220   22.4500  -15.9910 C   0  0  0  0  0  0  0  0  0  0  0  0
   -0.7840   27.0160  -13.2390 C   0  0  0  0  0  0  0  0  0  0  0  0
   -0.8360   26.4420  -14.4540 C   0  0  0  0  0  0  0  0  0  0  0  0
   -0.1350   24.3770  -13.6270 C   0  0  0  0  0  0  0  0  0  0  0  0
   -0.4080   26.2740  -12.1870 C   0  0  0  0  0  0  0  0  0  0  0  0
    1.0220   22.1670  -14.4880 C   0  0  2  0  0  0  0  0  0  0  0  0
   -0.5300   25.1280  -14.6970 C   0  0  0  0  0  0  0  0  0  0  0  0
    4.1504   21.2708  -15.0136 H   0  0  0  0  0  0  0  0  0  0  0  0
    0.2828   24.3805  -17.8893 H   0  0  0  0  0  0  0  0  0  0  0  0
    0.1054   21.3383  -12.3460 H   0  0  0  0  0  0  0  0  0  0  0  0
    0.1760   22.7438  -11.5176 H   0  0  0  0  0  0  0  0  0  0  0  0
   -1.2028   22.3135  -12.2795 H   0  0  0  0  0  0  0  0  0  0  0  0
   -0.5749   27.7732  -10.7917 H   0  0  0  0  0  0  0  0  0  0  0  0
   -0.9361   26.2941  -10.2013 H   0  0  0  0  0  0  0  0  0  0  0  0
    0.6210   26.7109  -10.4629 H   0  0  0  0  0  0  0  0  0  0  0  0
    2.9181   22.8424  -13.8597 H   0  0  0  0  0  0  0  0  0  0  0  0
    2.5757   21.3363  -13.3295 H   0  0  0  0  0  0  0  0  0  0  0  0
    2.0191   24.1821  -15.6900 H   0  0  0  0  0  0  0  0  0  0  0  0
    2.2037   23.5555  -17.1866 H   0  0  0  0  0  0  0  0  0  0  0  0
   -1.1206   23.8815  -16.2106 H   0  0  0  0  0  0  0  0  0  0  0  0
   -1.2494   25.4660  -16.5842 H   0  0  0  0  0  0  0  0  0  0  0  0
    1.3748   21.7013  -16.4752 H   0  0  0  0  0  0  0  0  0  0  0  0
   -0.0473   22.4677  -16.2363 H   0  0  0  0  0  0  0  0  0  0  0  0
   -1.0218   27.9802  -13.1218 H   0  0  0  0  0  0  0  0  0  0  0  0
   -1.1154   27.0092  -15.2288 H   0  0  0  0  0  0  0  0  0  0  0  0
    0.6289   21.2522  -14.3950 H   0  0  0  0  0  0  0  0  0  0  0  0
    0.9547   25.5890  -17.0205 H   0  0  0  0  0  0  0  0  0  0  0  0
  1  7  1  0  0  0  0
  2  8  1  0  0  0  0
  2  9  1  0  0  0  0
  3 13  2  0  0  0  0
  3 14  1  0  0  0  0
  4  5  1  0  0  0  0
  4 13  1  0  0  0  0
  4 15  1  0  0  0  0
  6 14  1  0  0  0  0
  7 15  1  0  0  0  0
  8 10  1  0  0  0  0
  9 16  1  0  0  0  0
 10 15  1  0  0  0  0
 11 12  1  0  0  0  0
 11 14  2  0  0  0  0
 12 16  2  0  0  0  0
 13 16  1  0  0  0  0
  1 17  1  0  0  0  0
  2 18  1  0  0  0  0
  5 19  1  0  0  0  0
  5 20  1  0  0  0  0
  5 21  1  0  0  0  0
  6 22  1  0  0  0  0
  6 23  1  0  0  0  0
  6 24  1  0  0  0  0
  7 25  1  0  0  0  0
  7 26  1  0  0  0  0
  8 27  1  0  0  0  0
  8 28  1  0  0  0  0
  9 29  1  0  0  0  0
  9 30  1  0  0  0  0
 10 31  1  0  0  0  0
 10 32  1  0  0  0  0
 11 33  1  0  0  0  0
 12 34  1  0  0  0  0
 15 35  1  0  0  0  0
  2 36  1  0  0  0  0
M  CHG  1   2   1
M  END
$$$$
DMS_D_1
prProtoss 03122516393D 1   1.00000     0.00000     0
Protoss beta proteinsplus
 10  9  0  0  0  0            999 V2000
  -14.6040  -11.7870  -25.4940 S   0  0  0  0  0  0  0  0  0  0  0  0
  -14.2090  -10.5340  -26.2300 O   0  0  0  0  0  0  0  0  0  0  0  0
  -13.6740  -11.7880  -23.9530 C   0  0  0  0  0  0  0  0  0  0  0  0
  -16.2690  -11.5180  -24.8530 C   0  0  0  0  0  0  0  0  0  0  0  0
  -13.9036  -12.6060  -23.4256 H   0  0  0  0  0  0  0  0  0  0  0  0
  -12.6946  -11.7855  -24.1548 H   0  0  0  0  0  0  0  0  0  0  0  0
  -13.9071  -10.9731  -23.4224 H   0  0  0  0  0  0  0  0  0  0  0  0
  -16.5699  -12.3313  -24.3550 H   0  0  0  0  0  0  0  0  0  0  0  0
  -16.2654  -10.7314  -24.2356 H   0  0  0  0  0  0  0  0  0  0  0  0
  -16.8945  -11.3423  -25.6132 H   0  0  0  0  0  0  0  0  0  0  0  0
  1  2  2  0  0  0  0
  1  3  1  0  0  0  0
  1  4  1  0  0  0  0
  3  5  1  0  0  0  0
  3  6  1  0  0  0  0
  3  7  1  0  0  0  0
  4  8  1  0  0  0  0
  4  9  1  0  0  0  0
  4 10  1  0  0  0  0
M  END
$$$$
DMS_D_7
prProtoss 03122516393D 1   1.00000     0.00000     0
Protoss beta proteinsplus
 10  9  0  0  0  0            999 V2000
   -0.4780   20.2150  -49.7620 S   0  0  0  0  0  0  0  0  0  0  0  0
    0.6440   19.2040  -49.8170 O   0  0  0  0  0  0  0  0  0  0  0  0
   -0.7930   20.7450  -51.4590 C   0  0  0  0  0  0  0  0  0  0  0  0
   -2.0130   19.2960  -49.5390 C   0  0  0  0  0  0  0  0  0  0  0  0
   -1.5328   21.4178  -51.4662 H   0  0  0  0  0  0  0  0  0  0  0  0
    0.0355   21.1564  -51.8389 H   0  0  0  0  0  0  0  0  0  0  0  0
   -1.0562   19.9543  -52.0117 H   0  0  0  0  0  0  0  0  0  0  0  0
   -2.7811   19.9350  -49.4979 H   0  0  0  0  0  0  0  0  0  0  0  0
   -2.1412   18.6696  -50.3079 H   0  0  0  0  0  0  0  0  0  0  0  0
   -1.9681   18.7736  -48.6875 H   0  0  0  0  0  0  0  0  0  0  0  0
  1  2  2  0  0  0  0
  1  3  1  0  0  0  0
  1  4  1  0  0  0  0
  3  5  1  0  0  0  0
  3  6  1  0  0  0  0
  3  7  1  0  0  0  0
  4  8  1  0  0  0  0
  4  9  1  0  0  0  0
  4 10  1  0  0  0  0
M  END
$$$$
DMS_D_9
prProtoss 03122516393D 1   1.00000     0.00000     0
Protoss beta proteinsplus
 10  9  0  0  0  0            999 V2000
  -26.9940   15.2700   -5.7800 S   0  0  0  0  0  0  0  0  0  0  0  0
  -25.7320   15.2380   -4.9480 O   0  0  0  0  0  0  0  0  0  0  0  0
  -28.3380   14.7790   -4.6720 C   0  0  0  0  0  0  0  0  0  0  0  0
  -27.4930   16.9950   -5.9660 C   0  0  0  0  0  0  0  0  0  0  0  0
  -29.2026   14.7831   -5.1745 H   0  0  0  0  0  0  0  0  0  0  0  0
  -28.1612   13.8597   -4.3205 H   0  0  0  0  0  0  0  0  0  0  0  0
  -28.3929   15.4229   -3.9088 H   0  0  0  0  0  0  0  0  0  0  0  0
  -28.3280   17.0432   -6.5142 H   0  0  0  0  0  0  0  0  0  0  0  0
  -27.6631   17.3919   -5.0640 H   0  0  0  0  0  0  0  0  0  0  0  0
  -26.7644   17.5054   -6.4228 H   0  0  0  0  0  0  0  0  0  0  0  0
  1  2  2  0  0  0  0
  1  3  1  0  0  0  0
  1  4  1  0  0  0  0
  3  5  1  0  0  0  0
  3  6  1  0  0  0  0
  3  7  1  0  0  0  0
  4  8  1  0  0  0  0
  4  9  1  0  0  0  0
  4 10  1  0  0  0  0
M  END
$$$$
DMS_D_13
prProtoss 03122516393D 1   1.00000     0.00000     0
Protoss beta proteinsplus
 10  9  0  0  0  0            999 V2000
   -9.5960   24.8820  -16.0040 S   0  0  0  0  0  0  0  0  0  0  0  0
  -10.4950   25.6580  -15.0700 O   0  0  0  0  0  0  0  0  0  0  0  0
   -9.0820   26.0780  -17.2590 C   0  0  0  0  0  0  0  0  0  0  0  0
   -8.0060   24.6820  -15.1740 C   0  0  0  0  0  0  0  0  0  0  0  0
   -8.4782   25.6303  -17.9186 H   0  0  0  0  0  0  0  0  0  0  0  0
   -9.8887   26.4320  -17.7323 H   0  0  0  0  0  0  0  0  0  0  0  0
   -8.5949   26.8331  -16.8202 H   0  0  0  0  0  0  0  0  0  0  0  0
   -7.3831   24.1704  -15.7658 H   0  0  0  0  0  0  0  0  0  0  0  0
   -7.6164   25.5820  -14.9787 H   0  0  0  0  0  0  0  0  0  0  0  0
   -8.1375   24.1827  -14.3176 H   0  0  0  0  0  0  0  0  0  0  0  0
  1  2  2  0  0  0  0
  1  3  1  0  0  0  0
  1  4  1  0  0  0  0
  3  5  1  0  0  0  0
  3  6  1  0  0  0  0
  3  7  1  0  0  0  0
  4  8  1  0  0  0  0
  4  9  1  0  0  0  0
  4 10  1  0  0  0  0
M  END
$$$$
DMS_D_14
prProtoss 03122516393D 1   1.00000     0.00000     0
Protoss beta proteinsplus
 10  9  0  0  0  0            999 V2000
  -16.6670   -5.8880   -6.4700 S   0  0  0  0  0  0  0  0  0  0  0  0
  -15.5210   -6.7670   -6.0440 O   0  0  0  0  0  0  0  0  0  0  0  0
  -17.0610   -5.0400   -4.9320 C   0  0  0  0  0  0  0  0  0  0  0  0
  -15.8730   -4.5120   -7.3070 C   0  0  0  0  0  0  0  0  0  0  0  0
  -17.8242   -4.4119   -5.0837 H   0  0  0  0  0  0  0  0  0  0  0  0
  -17.3156   -5.7120   -4.2366 H   0  0  0  0  0  0  0  0  0  0  0  0
  -16.2621   -4.5250   -4.6212 H   0  0  0  0  0  0  0  0  0  0  0  0
  -16.5695   -3.8700   -7.6274 H   0  0  0  0  0  0  0  0  0  0  0  0
  -15.2571   -4.0460   -6.6718 H   0  0  0  0  0  0  0  0  0  0  0  0
  -15.3502   -4.8537   -8.0880 H   0  0  0  0  0  0  0  0  0  0  0  0
  1  2  2  0  0  0  0
  1  3  1  0  0  0  0
  1  4  1  0  0  0  0
  3  5  1  0  0  0  0
  3  6  1  0  0  0  0
  3  7  1  0  0  0  0
  4  8  1  0  0  0  0
  4  9  1  0  0  0  0
  4 10  1  0  0  0  0
M  END
$$$$
DMS_D_15
prProtoss 03122516393D 1   1.00000     0.00000     0
Protoss beta proteinsplus
 10  9  0  0  0  0            999 V2000
   -4.1160   25.1420  -30.3690 S   0  0  0  0  0  0  0  0  0  0  0  0
   -3.5120   24.5870  -31.6480 O   0  0  0  0  0  0  0  0  0  0  0  0
   -5.8570   24.6910  -30.2210 C   0  0  0  0  0  0  0  0  0  0  0  0
   -4.2900   26.9250  -30.6600 C   0  0  0  0  0  0  0  0  0  0  0  0
   -6.2281   25.0683  -29.3725 H   0  0  0  0  0  0  0  0  0  0  0  0
   -6.3643   25.0600  -30.9998 H   0  0  0  0  0  0  0  0  0  0  0  0
   -5.9434   23.6948  -30.2087 H   0  0  0  0  0  0  0  0  0  0  0  0
   -4.6858   27.3579  -29.8501 H   0  0  0  0  0  0  0  0  0  0  0  0
   -3.3909   27.3220  -30.8444 H   0  0  0  0  0  0  0  0  0  0  0  0
   -4.8892   27.0776  -31.4459 H   0  0  0  0  0  0  0  0  0  0  0  0
  1  2  2  0  0  0  0
  1  3  1  0  0  0  0
  1  4  1  0  0  0  0
  3  5  1  0  0  0  0
  3  6  1  0  0  0  0
  3  7  1  0  0  0  0
  4  8  1  0  0  0  0
  4  9  1  0  0  0  0
  4 10  1  0  0  0  0
M  END
$$$$
1PE_A_401
prProtoss 03122516393D 1   1.00000     0.00000     0
Protoss beta proteinsplus
 38 37  0  0  0  0            999 V2000
    6.0770   -6.0710  -33.6690 O   0  0  0  0  0  0  0  0  0  0  0  0
   19.7220   -6.7520  -37.4100 O   0  0  0  0  0  0  0  0  0  0  0  0
    8.3450   -4.9620  -36.2070 O   0  0  0  0  0  0  0  0  0  0  0  0
   17.1630   -6.8450  -36.5160 O   0  0  0  0  0  0  0  0  0  0  0  0
   10.5850   -5.7090  -37.9190 O   0  0  0  0  0  0  0  0  0  0  0  0
   13.5910   -7.2280  -36.6020 O   0  0  0  0  0  0  0  0  0  0  0  0
    6.9550   -6.0930  -34.7700 C   0  0  0  0  0  0  0  0  0  0  0  0
   18.7990   -5.7750  -37.8260 C   0  0  0  0  0  0  0  0  0  0  0  0
    7.8850   -4.9210  -34.8790 C   0  0  0  0  0  0  0  0  0  0  0  0
   17.7720   -5.5960  -36.7470 C   0  0  0  0  0  0  0  0  0  0  0  0
    9.3810   -4.1100  -36.5640 C   0  0  0  0  0  0  0  0  0  0  0  0
   15.8730   -6.7430  -36.0220 C   0  0  0  0  0  0  0  0  0  0  0  0
    9.8140   -4.5290  -37.9460 C   0  0  0  0  0  0  0  0  0  0  0  0
   14.9160   -7.2180  -37.0700 C   0  0  0  0  0  0  0  0  0  0  0  0
   11.7740   -5.7180  -37.1500 C   0  0  0  0  0  0  0  0  0  0  0  0
   12.6370   -6.8780  -37.5850 C   0  0  0  0  0  0  0  0  0  0  0  0
    5.2317   -6.5493  -33.9071 H   0  0  0  0  0  0  0  0  0  0  0  0
   20.4133   -6.8816  -38.1208 H   0  0  0  0  0  0  0  0  0  0  0  0
    6.4032   -6.1268  -35.6033 H   0  0  0  0  0  0  0  0  0  0  0  0
    7.5106   -6.9219  -34.7043 H   0  0  0  0  0  0  0  0  0  0  0  0
   18.3524   -6.0713  -38.6703 H   0  0  0  0  0  0  0  0  0  0  0  0
   19.2738   -4.9096  -37.9860 H   0  0  0  0  0  0  0  0  0  0  0  0
    7.3991   -4.0657  -34.6991 H   0  0  0  0  0  0  0  0  0  0  0  0
    8.6467   -5.0129  -34.2377 H   0  0  0  0  0  0  0  0  0  0  0  0
   18.2123   -5.2728  -35.9093 H   0  0  0  0  0  0  0  0  0  0  0  0
   17.0842   -4.9318  -37.0397 H   0  0  0  0  0  0  0  0  0  0  0  0
   10.1411   -4.2001  -35.9205 H   0  0  0  0  0  0  0  0  0  0  0  0
    9.0626   -3.1621  -36.5731 H   0  0  0  0  0  0  0  0  0  0  0  0
   15.6751   -5.7898  -35.7934 H   0  0  0  0  0  0  0  0  0  0  0  0
   15.7814   -7.3083  -35.2022 H   0  0  0  0  0  0  0  0  0  0  0  0
    9.0006   -4.6868  -38.5059 H   0  0  0  0  0  0  0  0  0  0  0  0
   10.3598   -3.7951  -38.3504 H   0  0  0  0  0  0  0  0  0  0  0  0
   14.9750   -6.6097  -37.8615 H   0  0  0  0  0  0  0  0  0  0  0  0
   15.1697   -8.1459  -37.3431 H   0  0  0  0  0  0  0  0  0  0  0  0
   11.5453   -5.8159  -36.1814 H   0  0  0  0  0  0  0  0  0  0  0  0
   12.2698   -4.8610  -37.2905 H   0  0  0  0  0  0  0  0  0  0  0  0
   12.0503   -7.6684  -37.7610 H   0  0  0  0  0  0  0  0  0  0  0  0
   13.1171   -6.6256  -38.4251 H   0  0  0  0  0  0  0  0  0  0  0  0
  1  7  1  0  0  0  0
  2  8  1  0  0  0  0
  3  9  1  0  0  0  0
  3 11  1  0  0  0  0
  4 10  1  0  0  0  0
  4 12  1  0  0  0  0
  5 13  1  0  0  0  0
  5 15  1  0  0  0  0
  6 14  1  0  0  0  0
  6 16  1  0  0  0  0
  7  9  1  0  0  0  0
  8 10  1  0  0  0  0
 11 13  1  0  0  0  0
 12 14  1  0  0  0  0
 15 16  1  0  0  0  0
  1 17  1  0  0  0  0
  2 18  1  0  0  0  0
  7 19  1  0  0  0  0
  7 20  1  0  0  0  0
  8 21  1  0  0  0  0
  8 22  1  0  0  0  0
  9 23  1  0  0  0  0
  9 24  1  0  0  0  0
 10 25  1  0  0  0  0
 10 26  1  0  0  0  0
 11 27  1  0  0  0  0
 11 28  1  0  0  0  0
 12 29  1  0  0  0  0
 12 30  1  0  0  0  0
 13 31  1  0  0  0  0
 13 32  1  0  0  0  0
 14 33  1  0  0  0  0
 14 34  1  0  0  0  0
 15 35  1  0  0  0  0
 15 36  1  0  0  0  0
 16 37  1  0  0  0  0
 16 38  1  0  0  0  0
M  END
$$$$
283_B_1
prProtoss 03122516393D 1   1.00000     0.00000     0
Protoss beta proteinsplus
 39 40  0  0  0  0            999 V2000
    4.2380   22.4810  -10.5350 S   0  0  0  0  0  0  0  0  0  0  0  0
    3.0430   21.4950  -14.8150 O   0  0  0  0  0  0  0  0  0  0  0  0
    0.6800   23.6250  -16.2480 N   0  3  0  0  0  0  0  0  0  0  0  0
    2.5600   23.8080  -11.9440 N   0  0  0  0  0  0  0  0  0  0  0  0
    3.9090   25.1790   -8.7080 N   0  3  0  0  0  0  0  0  0  0  0  0
    5.0980   25.7990   -9.3050 C   0  0  0  0  0  0  0  0  0  0  0  0
    1.6680   24.3620   -6.3150 C   0  0  0  0  0  0  0  0  0  0  0  0
    3.8750   21.8830  -12.1400 C   0  0  0  0  0  0  0  0  0  0  0  0
    0.4130   22.3100  -15.6260 C   0  0  0  0  0  0  0  0  0  0  0  0
    2.1420   23.9140  -16.2950 C   0  0  0  0  0  0  0  0  0  0  0  0
    3.4260   25.9560   -7.5510 C   0  0  0  0  0  0  0  0  0  0  0  0
    2.8530   24.9060   -9.6960 C   0  0  0  0  0  0  0  0  0  0  0  0
    2.4640   25.0950   -6.8450 C   0  0  0  0  0  0  0  0  0  0  0  0
    0.8790   22.3960  -14.1590 C   0  0  0  0  0  0  0  0  0  0  0  0
    2.7850   23.9170  -14.8890 C   0  0  0  0  0  0  0  0  0  0  0  0
    3.1510   23.8400  -10.7340 C   0  0  0  0  0  0  0  0  0  0  0  0
    2.9620   22.6990  -12.7110 C   0  0  0  0  0  0  0  0  0  0  0  0
    2.4120   22.6050  -14.1100 C   0  0  0  0  0  0  0  0  0  0  0  0
    4.0362   21.6095  -14.7959 H   0  0  0  0  0  0  0  0  0  0  0  0
    0.2241   24.3368  -15.7138 H   0  0  0  0  0  0  0  0  0  0  0  0
    5.4028   25.2525  -10.0850 H   0  0  0  0  0  0  0  0  0  0  0  0
    4.8728   26.7233   -9.6132 H   0  0  0  0  0  0  0  0  0  0  0  0
    5.8284   25.8436   -8.6235 H   0  0  0  0  0  0  0  0  0  0  0  0
    1.0074   23.7537   -5.8751 H   0  0  0  0  0  0  0  0  0  0  0  0
    4.2770   21.0715  -12.5641 H   0  0  0  0  0  0  0  0  0  0  0  0
    0.9214   21.5947  -16.1055 H   0  0  0  0  0  0  0  0  0  0  0  0
   -0.5652   22.1057  -15.6633 H   0  0  0  0  0  0  0  0  0  0  0  0
    2.2790   24.8120  -16.7132 H   0  0  0  0  0  0  0  0  0  0  0  0
    2.5902   23.2149  -16.8521 H   0  0  0  0  0  0  0  0  0  0  0  0
    2.9775   26.7945   -7.8604 H   0  0  0  0  0  0  0  0  0  0  0  0
    4.1890   26.1890   -6.9480 H   0  0  0  0  0  0  0  0  0  0  0  0
    2.6655   25.7591  -10.1828 H   0  0  0  0  0  0  0  0  0  0  0  0
    2.0356   24.6214   -9.1952 H   0  0  0  0  0  0  0  0  0  0  0  0
    0.6439   21.5473  -13.6852 H   0  0  0  0  0  0  0  0  0  0  0  0
    0.4241   23.1652  -13.7103 H   0  0  0  0  0  0  0  0  0  0  0  0
    2.4529   24.7092  -14.3771 H   0  0  0  0  0  0  0  0  0  0  0  0
    3.7791   23.9730  -14.9820 H   0  0  0  0  0  0  0  0  0  0  0  0
    0.3178   23.6242  -17.1801 H   0  0  0  0  0  0  0  0  0  0  0  0
    4.2006   24.2913   -8.3518 H   0  0  0  0  0  0  0  0  0  0  0  0
  1  8  1  0  0  0  0
  1 16  1  0  0  0  0
  2 18  1  0  0  0  0
  3  9  1  0  0  0  0
  3 10  1  0  0  0  0
  4 16  2  0  0  0  0
  4 17  1  0  0  0  0
  5  6  1  0  0  0  0
  5 11  1  0  0  0  0
  5 12  1  0  0  0  0
  7 13  3  0  0  0  0
  8 17  2  0  0  0  0
  9 14  1  0  0  0  0
 10 15  1  0  0  0  0
 11 13  1  0  0  0  0
 12 16  1  0  0  0  0
 14 18  1  0  0  0  0
 15 18  1  0  0  0  0
 17 18  1  0  0  0  0
  2 19  1  0  0  0  0
  3 20  1  0  0  0  0
  6 21  1  0  0  0  0
  6 22  1  0  0  0  0
  6 23  1  0  0  0  0
  7 24  1  0  0  0  0
  8 25  1  0  0  0  0
  9 26  1  0  0  0  0
  9 27  1  0  0  0  0
 10 28  1  0  0  0  0
 10 29  1  0  0  0  0
 11 30  1  0  0  0  0
 11 31  1  0  0  0  0
 12 32  1  0  0  0  0
 12 33  1  0  0  0  0
 14 34  1  0  0  0  0
 14 35  1  0  0  0  0
 15 36  1  0  0  0  0
 15 37  1  0  0  0  0
  3 38  1  0  0  0  0
  5 39  1  0  0  0  0
M  CHG  2   3   1   5   1
M  END
$$$$
283_B_2
prProtoss 03122516393D 1   1.00000     0.00000     0
Protoss beta proteinsplus
 39 40  0  0  0  0            999 V2000
    6.2470   -1.1880  -28.0850 S   0  0  0  0  0  0  0  0  0  0  0  0
    2.0740   -0.8430  -25.9690 O   0  0  0  0  0  0  0  0  0  0  0  0
    0.0650    1.7630  -26.9660 N   0  3  0  0  0  0  0  0  0  0  0  0
    3.7110   -1.5010  -28.7140 N   0  0  0  0  0  0  0  0  0  0  0  0
    6.1280   -4.0830  -29.9540 N   0  3  0  0  0  0  0  0  0  0  0  0
    7.5630   -3.8080  -30.0490 C   0  0  0  0  0  0  0  0  0  0  0  0
    3.2410   -5.2390  -31.6830 C   0  0  0  0  0  0  0  0  0  0  0  0
    4.9900   -0.3200  -27.2170 C   0  0  0  0  0  0  0  0  0  0  0  0
    1.2340    1.9890  -26.1030 C   0  0  0  0  0  0  0  0  0  0  0  0
   -0.0110    0.4820  -27.7080 C   0  0  0  0  0  0  0  0  0  0  0  0
    5.7920   -5.1950  -30.8520 C   0  0  0  0  0  0  0  0  0  0  0  0
    5.2580   -2.8970  -30.1890 C   0  0  0  0  0  0  0  0  0  0  0  0
    4.3890   -5.2180  -31.3070 C   0  0  0  0  0  0  0  0  0  0  0  0
    2.5600    1.4240  -26.6180 C   0  0  0  0  0  0  0  0  0  0  0  0
    1.3040   -0.1480  -28.1720 C   0  0  0  0  0  0  0  0  0  0  0  0
    4.9870   -1.9140  -29.0640 C   0  0  0  0  0  0  0  0  0  0  0  0
    3.7420   -0.5900  -27.6670 C   0  0  0  0  0  0  0  0  0  0  0  0
    2.4310   -0.0330  -27.1250 C   0  0  0  0  0  0  0  0  0  0  0  0
    1.9788   -1.7985  -26.2481 H   0  0  0  0  0  0  0  0  0  0  0  0
    0.0463    2.5001  -27.6415 H   0  0  0  0  0  0  0  0  0  0  0  0
    7.7984   -3.0511  -29.4393 H   0  0  0  0  0  0  0  0  0  0  0  0
    8.0770   -4.6232  -29.7821 H   0  0  0  0  0  0  0  0  0  0  0  0
    7.7936   -3.5619  -30.9904 H   0  0  0  0  0  0  0  0  0  0  0  0
    2.2908   -5.2564  -31.9942 H   0  0  0  0  0  0  0  0  0  0  0  0
    5.1779    0.3113  -26.4646 H   0  0  0  0  0  0  0  0  0  0  0  0
    1.0457    1.5694  -25.2150 H   0  0  0  0  0  0  0  0  0  0  0  0
    1.3448    2.9762  -25.9885 H   0  0  0  0  0  0  0  0  0  0  0  0
   -0.5701    0.6405  -28.5218 H   0  0  0  0  0  0  0  0  0  0  0  0
   -0.4670   -0.1809  -27.1142 H   0  0  0  0  0  0  0  0  0  0  0  0
    5.9771   -6.0514  -30.3700 H   0  0  0  0  0  0  0  0  0  0  0  0
    6.3799   -5.1326  -31.6585 H   0  0  0  0  0  0  0  0  0  0  0  0
    4.3694   -3.2462  -30.4864 H   0  0  0  0  0  0  0  0  0  0  0  0
    5.6769   -2.3755  -30.9323 H   0  0  0  0  0  0  0  0  0  0  0  0
    3.2278    1.4460  -25.8740 H   0  0  0  0  0  0  0  0  0  0  0  0
    2.8813    1.9978  -27.3714 H   0  0  0  0  0  0  0  0  0  0  0  0
    1.5993    0.3116  -29.0096 H   0  0  0  0  0  0  0  0  0  0  0  0
    1.1435   -1.1166  -28.3621 H   0  0  0  0  0  0  0  0  0  0  0  0
   -0.7483    1.8207  -26.3871 H   0  0  0  0  0  0  0  0  0  0  0  0
    5.9508   -4.3961  -29.0209 H   0  0  0  0  0  0  0  0  0  0  0  0
  1  8  1  0  0  0  0
  1 16  1  0  0  0  0
  2 18  1  0  0  0  0
  3  9  1  0  0  0  0
  3 10  1  0  0  0  0
  4 16  2  0  0  0  0
  4 17  1  0  0  0  0
  5  6  1  0  0  0  0
  5 11  1  0  0  0  0
  5 12  1  0  0  0  0
  7 13  3  0  0  0  0
  8 17  2  0  0  0  0
  9 14  1  0  0  0  0
 10 15  1  0  0  0  0
 11 13  1  0  0  0  0
 12 16  1  0  0  0  0
 14 18  1  0  0  0  0
 15 18  1  0  0  0  0
 17 18  1  0  0  0  0
  2 19  1  0  0  0  0
  3 20  1  0  0  0  0
  6 21  1  0  0  0  0
  6 22  1  0  0  0  0
  6 23  1  0  0  0  0
  7 24  1  0  0  0  0
  8 25  1  0  0  0  0
  9 26  1  0  0  0  0
  9 27  1  0  0  0  0
 10 28  1  0  0  0  0
 10 29  1  0  0  0  0
 11 30  1  0  0  0  0
 11 31  1  0  0  0  0
 12 32  1  0  0  0  0
 12 33  1  0  0  0  0
 14 34  1  0  0  0  0
 14 35  1  0  0  0  0
 15 36  1  0  0  0  0
 15 37  1  0  0  0  0
  3 38  1  0  0  0  0
  5 39  1  0  0  0  0
M  CHG  2   3   1   5   1
M  END
$$$$
DMS_D_1
prProtoss 03122516393D 1   1.00000     0.00000     0
Protoss beta proteinsplus
 10  9  0  0  0  0            999 V2000
  -19.3890   18.3240  -39.7910 S   0  0  0  0  0  0  0  0  0  0  0  0
  -19.3250   17.6350  -38.4440 O   0  0  0  0  0  0  0  0  0  0  0  0
  -17.8170   19.1780  -40.0200 C   0  0  0  0  0  0  0  0  0  0  0  0
  -19.1820   17.0100  -41.0110 C   0  0  0  0  0  0  0  0  0  0  0  0
  -17.8186   19.6482  -40.9025 H   0  0  0  0  0  0  0  0  0  0  0  0
  -17.6906   19.8460  -39.2866 H   0  0  0  0  0  0  0  0  0  0  0  0
  -17.0702   18.5133  -39.9978 H   0  0  0  0  0  0  0  0  0  0  0  0
  -19.2148   17.4010  -41.9308 H   0  0  0  0  0  0  0  0  0  0  0  0
  -18.2995   16.5611  -40.8709 H   0  0  0  0  0  0  0  0  0  0  0  0
  -19.9170   16.3399  -40.9072 H   0  0  0  0  0  0  0  0  0  0  0  0
  1  2  2  0  0  0  0
  1  3  1  0  0  0  0
  1  4  1  0  0  0  0
  3  5  1  0  0  0  0
  3  6  1  0  0  0  0
  3  7  1  0  0  0  0
  4  8  1  0  0  0  0
  4  9  1  0  0  0  0
  4 10  1  0  0  0  0
M  END
$$$$
DMS_D_2
prProtoss 03122516393D 1   1.00000     0.00000     0
Protoss beta proteinsplus
 10  9  0  0  0  0            999 V2000
  -27.0200   15.5950   -5.6500 S   0  0  0  0  0  0  0  0  0  0  0  0
  -27.9560   16.7560   -5.3660 O   0  0  0  0  0  0  0  0  0  0  0  0
  -25.5930   15.7700   -4.5580 C   0  0  0  0  0  0  0  0  0  0  0  0
  -27.7670   14.1880   -4.8050 C   0  0  0  0  0  0  0  0  0  0  0  0
  -24.9546   15.0177   -4.7206 H   0  0  0  0  0  0  0  0  0  0  0  0
  -25.1366   16.6404   -4.7428 H   0  0  0  0  0  0  0  0  0  0  0  0
  -25.8974   15.7488   -3.6057 H   0  0  0  0  0  0  0  0  0  0  0  0
  -27.2017   13.3754   -4.9470 H   0  0  0  0  0  0  0  0  0  0  0  0
  -27.8311   14.3826   -3.8262 H   0  0  0  0  0  0  0  0  0  0  0  0
  -28.6825   14.0257   -5.1732 H   0  0  0  0  0  0  0  0  0  0  0  0
  1  2  2  0  0  0  0
  1  3  1  0  0  0  0
  1  4  1  0  0  0  0
  3  5  1  0  0  0  0
  3  6  1  0  0  0  0
  3  7  1  0  0  0  0
  4  8  1  0  0  0  0
  4  9  1  0  0  0  0
  4 10  1  0  0  0  0
M  END
$$$$
DMS_D_3
prProtoss 03122516393D 1   1.00000     0.00000     0
Protoss beta proteinsplus
 10  9  0  0  0  0            999 V2000
  -14.9570  -12.2090  -25.7050 S   0  0  0  0  0  0  0  0  0  0  0  0
  -16.0420  -11.1580  -25.6370 O   0  0  0  0  0  0  0  0  0  0  0  0
  -14.1110  -11.9970  -27.2910 C   0  0  0  0  0  0  0  0  0  0  0  0
  -13.6080  -11.6820  -24.6220 C   0  0  0  0  0  0  0  0  0  0  0  0
  -13.3828  -12.6773  -27.3739 H   0  0  0  0  0  0  0  0  0  0  0  0
  -14.7661  -12.1173  -28.0369 H   0  0  0  0  0  0  0  0  0  0  0  0
  -13.7167  -11.0792  -27.3384 H   0  0  0  0  0  0  0  0  0  0  0  0
  -12.8747  -12.3614  -24.6482 H   0  0  0  0  0  0  0  0  0  0  0  0
  -13.2560  -10.7993  -24.9334 H   0  0  0  0  0  0  0  0  0  0  0  0
  -13.9474  -11.5939  -23.6855 H   0  0  0  0  0  0  0  0  0  0  0  0
  1  2  2  0  0  0  0
  1  3  1  0  0  0  0
  1  4  1  0  0  0  0
  3  5  1  0  0  0  0
  3  6  1  0  0  0  0
  3  7  1  0  0  0  0
  4  8  1  0  0  0  0
  4  9  1  0  0  0  0
  4 10  1  0  0  0  0
M  END
$$$$
DMS_D_4
prProtoss 03122516393D 1   1.00000     0.00000     0
Protoss beta proteinsplus
 10  9  0  0  0  0            999 V2000
   -9.7530   24.8180  -15.7400 S   0  0  0  0  0  0  0  0  0  0  0  0
  -10.8200   25.5320  -14.9050 O   0  0  0  0  0  0  0  0  0  0  0  0
   -8.8620   26.2490  -16.4160 C   0  0  0  0  0  0  0  0  0  0  0  0
   -8.3380   24.4550  -14.6840 C   0  0  0  0  0  0  0  0  0  0  0  0
   -8.1144   25.9311  -16.9991 H   0  0  0  0  0  0  0  0  0  0  0  0
   -9.4909   26.8087  -16.9557 H   0  0  0  0  0  0  0  0  0  0  0  0
   -8.4901   26.7951  -15.6654 H   0  0  0  0  0  0  0  0  0  0  0  0
   -7.6339   23.9881  -15.2190 H   0  0  0  0  0  0  0  0  0  0  0  0
   -7.9674   25.3087  -14.3182 H   0  0  0  0  0  0  0  0  0  0  0  0
   -8.6277   23.8668  -13.9290 H   0  0  0  0  0  0  0  0  0  0  0  0
  1  2  2  0  0  0  0
  1  3  1  0  0  0  0
  1  4  1  0  0  0  0
  3  5  1  0  0  0  0
  3  6  1  0  0  0  0
  3  7  1  0  0  0  0
  4  8  1  0  0  0  0
  4  9  1  0  0  0  0
  4 10  1  0  0  0  0
M  END
$$$$
DMS_D_5
prProtoss 03122516393D 1   1.00000     0.00000     0
Protoss beta proteinsplus
 10  9  0  0  0  0            999 V2000
  -17.7750    5.0130  -45.8580 S   0  0  0  0  0  0  0  0  0  0  0  0
  -17.2450    6.4000  -45.5820 O   0  0  0  0  0  0  0  0  0  0  0  0
  -18.9630    5.2940  -47.1880 C   0  0  0  0  0  0  0  0  0  0  0  0
  -16.6170    4.0340  -46.8210 C   0  0  0  0  0  0  0  0  0  0  0  0
  -19.3801    4.4242  -47.4517 H   0  0  0  0  0  0  0  0  0  0  0  0
  -19.6740    5.9225  -46.8726 H   0  0  0  0  0  0  0  0  0  0  0  0
  -18.4930    5.6909  -47.9764 H   0  0  0  0  0  0  0  0  0  0  0  0
  -17.0024    3.1255  -46.9826 H   0  0  0  0  0  0  0  0  0  0  0  0
  -16.4475    4.4849  -47.6973 H   0  0  0  0  0  0  0  0  0  0  0  0
  -15.7565    3.9466  -46.3191 H   0  0  0  0  0  0  0  0  0  0  0  0
  1  2  2  0  0  0  0
  1  3  1  0  0  0  0
  1  4  1  0  0  0  0
  3  5  1  0  0  0  0
  3  6  1  0  0  0  0
  3  7  1  0  0  0  0
  4  8  1  0  0  0  0
  4  9  1  0  0  0  0
  4 10  1  0  0  0  0
M  END
$$$$
294_L_401
prProtoss 03122516403D 1   1.00000     0.00000     0
Protoss beta proteinsplus
 42 44  0  0  0  0            999 V2000
  -30.3890   22.2010  -38.5890 S   0  0  0  0  0  0  0  0  0  0  0  0
  -32.6190   24.9420  -41.5020 O   0  0  0  0  0  0  0  0  0  0  0  0
  -29.1020   21.4000  -34.3770 O   0  0  0  0  0  0  0  0  0  0  0  0
  -26.8260   23.5180  -32.9660 N   0  3  0  0  0  0  0  0  0  0  0  0
  -28.6590   23.4890  -37.2140 N   0  0  0  0  0  0  0  0  0  0  0  0
  -29.8740   24.7330  -40.4530 N   0  3  0  0  0  0  0  0  0  0  0  0
  -30.0650   21.6540  -36.9590 C   0  0  0  0  0  0  0  0  0  0  0  0
  -28.2760   23.7220  -32.8500 C   0  0  0  0  0  0  0  0  0  0  0  0
  -26.5490   22.1740  -33.5140 C   0  0  0  0  0  0  0  0  0  0  0  0
  -29.4110   25.6760  -41.4900 C   0  0  0  0  0  0  0  0  0  0  0  0
  -28.8370   24.5060  -39.4530 C   0  0  0  0  0  0  0  0  0  0  0  0
  -30.9920   25.4230  -39.8040 C   0  0  0  0  0  0  0  0  0  0  0  0
  -30.6950   26.2820  -42.0480 C   0  0  0  0  0  0  0  0  0  0  0  0
  -28.9500   23.6860  -34.2360 C   0  0  0  0  0  0  0  0  0  0  0  0
  -27.0540   22.1490  -34.9500 C   0  0  0  0  0  0  0  0  0  0  0  0
  -29.2260   23.4860  -38.4180 C   0  0  0  0  0  0  0  0  0  0  0  0
  -31.7560   25.9690  -40.9970 C   0  0  1  0  0  0  0  0  0  0  0  0
  -29.1190   22.4420  -36.4210 C   0  0  0  0  0  0  0  0  0  0  0  0
  -28.4750   22.5530  -35.1160 C   0  0  0  0  0  0  0  0  0  0  0  0
  -33.1277   25.2912  -42.2890 H   0  0  0  0  0  0  0  0  0  0  0  0
  -30.0948   21.5181  -34.3556 H   0  0  0  0  0  0  0  0  0  0  0  0
  -26.4063   23.6004  -32.0621 H   0  0  0  0  0  0  0  0  0  0  0  0
  -30.5100   20.8830  -36.5035 H   0  0  0  0  0  0  0  0  0  0  0  0
  -28.4485   24.6107  -32.4252 H   0  0  0  0  0  0  0  0  0  0  0  0
  -28.6636   22.9986  -32.2787 H   0  0  0  0  0  0  0  0  0  0  0  0
  -27.0249   21.4805  -32.9731 H   0  0  0  0  0  0  0  0  0  0  0  0
  -25.5655   21.9942  -33.4953 H   0  0  0  0  0  0  0  0  0  0  0  0
  -28.9058   25.1948  -42.2064 H   0  0  0  0  0  0  0  0  0  0  0  0
  -28.8293   26.3845  -41.0904 H   0  0  0  0  0  0  0  0  0  0  0  0
  -28.6465   25.3718  -38.9903 H   0  0  0  0  0  0  0  0  0  0  0  0
  -28.0109   24.1879  -39.9182 H   0  0  0  0  0  0  0  0  0  0  0  0
  -30.6694   26.1600  -39.2101 H   0  0  0  0  0  0  0  0  0  0  0  0
  -31.5525   24.7879  -39.2726 H   0  0  0  0  0  0  0  0  0  0  0  0
  -30.9316   25.8626  -42.9244 H   0  0  0  0  0  0  0  0  0  0  0  0
  -30.5965   27.2700  -42.1670 H   0  0  0  0  0  0  0  0  0  0  0  0
  -28.7579   24.5494  -34.7025 H   0  0  0  0  0  0  0  0  0  0  0  0
  -29.9367   23.5906  -34.1044 H   0  0  0  0  0  0  0  0  0  0  0  0
  -26.9520   21.2178  -35.2999 H   0  0  0  0  0  0  0  0  0  0  0  0
  -26.4880   22.7718  -35.4901 H   0  0  0  0  0  0  0  0  0  0  0  0
  -32.2740   26.7882  -40.7508 H   0  0  0  0  0  0  0  0  0  0  0  0
  -26.4416   24.2106  -33.5764 H   0  0  0  0  0  0  0  0  0  0  0  0
  -30.1734   23.8705  -40.8609 H   0  0  0  0  0  0  0  0  0  0  0  0
  1  7  1  0  0  0  0
  1 16  1  0  0  0  0
  2 17  1  0  0  0  0
  3 19  1  0  0  0  0
  4  8  1  0  0  0  0
  4  9  1  0  0  0  0
  5 16  2  0  0  0  0
  5 18  1  0  0  0  0
  6 10  1  0  0  0  0
  6 11  1  0  0  0  0
  6 12  1  0  0  0  0
  7 18  2  0  0  0  0
  8 14  1  0  0  0  0
  9 15  1  0  0  0  0
 10 13  1  0  0  0  0
 11 16  1  0  0  0  0
 12 17  1  0  0  0  0
 13 17  1  0  0  0  0
 14 19  1  0  0  0  0
 15 19  1  0  0  0  0
 18 19  1  0  0  0  0
  2 20  1  0  0  0  0
  3 21  1  0  0  0  0
  4 22  1  0  0  0  0
  7 23  1  0  0  0  0
  8 24  1  0  0  0  0
  8 25  1  0  0  0  0
  9 26  1  0  0  0  0
  9 27  1  0  0  0  0
 10 28  1  0  0  0  0
 10 29  1  0  0  0  0
 11 30  1  0  0  0  0
 11 31  1  0  0  0  0
 12 32  1  0  0  0  0
 12 33  1  0  0  0  0
 13 34  1  0  0  0  0
 13 35  1  0  0  0  0
 14 36  1  0  0  0  0
 14 37  1  0  0  0  0
 15 38  1  0  0  0  0
 15 39  1  0  0  0  0
 17 40  1  0  0  0  0
  4 41  1  0  0  0  0
  6 42  1  0  0  0  0
M  CHG  2   4   1   6   1
M  END
$$$$
DMS_B_1
prProtoss 03122516403D 1   1.00000     0.00000     0
Protoss beta proteinsplus
 10  9  0  0  0  0            999 V2000
   -7.0580   17.9960   -9.4040 S   0  0  0  0  0  0  0  0  0  0  0  0
   -6.7220   17.4900  -10.7890 O   0  0  0  0  0  0  0  0  0  0  0  0
   -5.6330   18.9660   -8.8700 C   0  0  0  0  0  0  0  0  0  0  0  0
   -8.2170   19.3630   -9.5950 C   0  0  0  0  0  0  0  0  0  0  0  0
   -5.8010   19.3281   -7.9531 H   0  0  0  0  0  0  0  0  0  0  0  0
   -4.8202   18.3837   -8.8547 H   0  0  0  0  0  0  0  0  0  0  0  0
   -5.4882   19.7237   -9.5063 H   0  0  0  0  0  0  0  0  0  0  0  0
   -8.4605   19.7219   -8.6940 H   0  0  0  0  0  0  0  0  0  0  0  0
   -7.7920   20.0869  -10.1384 H   0  0  0  0  0  0  0  0  0  0  0  0
   -9.0415   19.0386  -10.0586 H   0  0  0  0  0  0  0  0  0  0  0  0
  1  2  2  0  0  0  0
  1  3  1  0  0  0  0
  1  4  1  0  0  0  0
  3  5  1  0  0  0  0
  3  6  1  0  0  0  0
  3  7  1  0  0  0  0
  4  8  1  0  0  0  0
  4  9  1  0  0  0  0
  4 10  1  0  0  0  0
M  END
$$$$
DMS_B_2
prProtoss 03122516403D 1   1.00000     0.00000     0
Protoss beta proteinsplus
 10  9  0  0  0  0            999 V2000
    0.5170   15.5230  -43.5010 S   0  0  0  0  0  0  0  0  0  0  0  0
    1.0510   14.2490  -44.1120 O   0  0  0  0  0  0  0  0  0  0  0  0
    1.7390   16.8280  -43.7570 C   0  0  0  0  0  0  0  0  0  0  0  0
   -0.7060   16.1920  -44.6530 C   0  0  0  0  0  0  0  0  0  0  0  0
    1.4034   17.6817  -43.3587 H   0  0  0  0  0  0  0  0  0  0  0  0
    2.5991   16.5702  -43.3168 H   0  0  0  0  0  0  0  0  0  0  0  0
    1.8910   16.9547  -44.7372 H   0  0  0  0  0  0  0  0  0  0  0  0
   -1.0844   17.0401  -44.2821 H   0  0  0  0  0  0  0  0  0  0  0  0
   -0.2682   16.3789  -45.5325 H   0  0  0  0  0  0  0  0  0  0  0  0
   -1.4416   15.5269  -44.7815 H   0  0  0  0  0  0  0  0  0  0  0  0
  1  2  2  0  0  0  0
  1  3  1  0  0  0  0
  1  4  1  0  0  0  0
  3  5  1  0  0  0  0
  3  6  1  0  0  0  0
  3  7  1  0  0  0  0
  4  8  1  0  0  0  0
  4  9  1  0  0  0  0
  4 10  1  0  0  0  0
M  END
$$$$
DMS_B_5
prProtoss 03122516403D 1   1.00000     0.00000     0
Protoss beta proteinsplus
 10  9  0  0  0  0            999 V2000
  -38.0950   14.2320  -26.8260 S   0  0  0  0  0  0  0  0  0  0  0  0
  -38.6040   13.7620  -28.1700 O   0  0  0  0  0  0  0  0  0  0  0  0
  -36.4390   13.5500  -26.6930 C   0  0  0  0  0  0  0  0  0  0  0  0
  -37.6090   15.9610  -27.0000 C   0  0  0  0  0  0  0  0  0  0  0  0
  -36.0355   13.8224  -25.8195 H   0  0  0  0  0  0  0  0  0  0  0  0
  -36.4845   12.5523  -26.7424 H   0  0  0  0  0  0  0  0  0  0  0  0
  -35.8750   13.8955  -27.4430 H   0  0  0  0  0  0  0  0  0  0  0  0
  -37.2669   16.3009  -26.1240 H   0  0  0  0  0  0  0  0  0  0  0  0
  -36.8900   16.0373  -27.6909 H   0  0  0  0  0  0  0  0  0  0  0  0
  -38.4007   16.5031  -27.2816 H   0  0  0  0  0  0  0  0  0  0  0  0
  1  2  2  0  0  0  0
  1  3  1  0  0  0  0
  1  4  1  0  0  0  0
  3  5  1  0  0  0  0
  3  6  1  0  0  0  0
  3  7  1  0  0  0  0
  4  8  1  0  0  0  0
  4  9  1  0  0  0  0
  4 10  1  0  0  0  0
M  END
$$$$
DMS_B_6
prProtoss 03122516403D 1   1.00000     0.00000     0
Protoss beta proteinsplus
 10  9  0  0  0  0            999 V2000
  -31.9320   11.6460  -28.6170 S   0  0  0  0  0  0  0  0  0  0  0  0
  -32.1280   12.3570  -29.9290 O   0  0  0  0  0  0  0  0  0  0  0  0
  -33.3570   12.0900  -27.6230 C   0  0  0  0  0  0  0  0  0  0  0  0
  -32.3730    9.9140  -28.8850 C   0  0  0  0  0  0  0  0  0  0  0  0
  -33.2906   11.6474  -26.7288 H   0  0  0  0  0  0  0  0  0  0  0  0
  -33.3833   13.0824  -27.5026 H   0  0  0  0  0  0  0  0  0  0  0  0
  -34.1917   11.7879  -28.0834 H   0  0  0  0  0  0  0  0  0  0  0  0
  -32.2558    9.4045  -28.0326 H   0  0  0  0  0  0  0  0  0  0  0  0
  -33.3265    9.8547  -29.1804 H   0  0  0  0  0  0  0  0  0  0  0  0
  -31.7807    9.5245  -29.5903 H   0  0  0  0  0  0  0  0  0  0  0  0
  1  2  2  0  0  0  0
  1  3  1  0  0  0  0
  1  4  1  0  0  0  0
  3  5  1  0  0  0  0
  3  6  1  0  0  0  0
  3  7  1  0  0  0  0
  4  8  1  0  0  0  0
  4  9  1  0  0  0  0
  4 10  1  0  0  0  0
M  END
$$$$
DMS_B_13
prProtoss 03122516403D 1   1.00000     0.00000     0
Protoss beta proteinsplus
 10  9  0  0  0  0            999 V2000
  -20.9310    4.3900  -42.2310 S   0  0  0  0  0  0  0  0  0  0  0  0
  -22.4230    4.5690  -42.4080 O   0  0  0  0  0  0  0  0  0  0  0  0
  -20.2950    3.5830  -43.7170 C   0  0  0  0  0  0  0  0  0  0  0  0
  -20.2190    6.0100  -42.5630 C   0  0  0  0  0  0  0  0  0  0  0  0
  -19.3077    3.4513  -43.6282 H   0  0  0  0  0  0  0  0  0  0  0  0
  -20.7408    2.6951  -43.8309 H   0  0  0  0  0  0  0  0  0  0  0  0
  -20.4845    4.1559  -44.5145 H   0  0  0  0  0  0  0  0  0  0  0  0
  -19.2251    5.9641  -42.4630 H   0  0  0  0  0  0  0  0  0  0  0  0
  -20.4476    6.2899  -43.4954 H   0  0  0  0  0  0  0  0  0  0  0  0
  -20.5888    6.6758  -41.9150 H   0  0  0  0  0  0  0  0  0  0  0  0
  1  2  2  0  0  0  0
  1  3  1  0  0  0  0
  1  4  1  0  0  0  0
  3  5  1  0  0  0  0
  3  6  1  0  0  0  0
  3  7  1  0  0  0  0
  4  8  1  0  0  0  0
  4  9  1  0  0  0  0
  4 10  1  0  0  0  0
M  END
$$$$
DMS_B_14
prProtoss 03122516403D 1   1.00000     0.00000     0
Protoss beta proteinsplus
 10  9  0  0  0  0            999 V2000
  -19.0130    5.2160  -34.2930 S   0  0  0  0  0  0  0  0  0  0  0  0
  -18.6830    3.8670  -33.7060 O   0  0  0  0  0  0  0  0  0  0  0  0
  -20.6470    5.6650  -33.6740 C   0  0  0  0  0  0  0  0  0  0  0  0
  -18.0870    6.4280  -33.3290 C   0  0  0  0  0  0  0  0  0  0  0  0
  -20.9082    6.5583  -34.0399 H   0  0  0  0  0  0  0  0  0  0  0  0
  -21.3136    4.9782  -33.9639 H   0  0  0  0  0  0  0  0  0  0  0  0
  -20.6250    5.7074  -32.6751 H   0  0  0  0  0  0  0  0  0  0  0  0
  -18.2724    7.3456  -33.6806 H   0  0  0  0  0  0  0  0  0  0  0  0
  -18.3668    6.3756  -32.3704 H   0  0  0  0  0  0  0  0  0  0  0  0
  -17.1086    6.2346  -33.4017 H   0  0  0  0  0  0  0  0  0  0  0  0
  1  2  2  0  0  0  0
  1  3  1  0  0  0  0
  1  4  1  0  0  0  0
  3  5  1  0  0  0  0
  3  6  1  0  0  0  0
  3  7  1  0  0  0  0
  4  8  1  0  0  0  0
  4  9  1  0  0  0  0
  4 10  1  0  0  0  0
M  END
$$$$
296_B_1
prProtoss 03122516413D 1   1.00000     0.00000     0
Protoss beta proteinsplus
 31 33  0  0  0  0            999 V2000
  -16.6770    2.4720  -19.9780 F   0  0  0  0  0  0  0  0  0  0  0  0
  -12.2510    6.4530  -18.1070 O   0  0  0  0  0  0  0  0  0  0  0  0
  -12.2290    2.5550  -18.6110 O   0  0  0  0  0  0  0  0  0  0  0  0
   -8.8070    2.6000  -19.8260 N   0  3  0  0  0  0  0  0  0  0  0  0
  -10.8870    5.0420  -19.1320 N   0  0  0  0  0  0  0  0  0  0  0  0
   -9.7140    5.8240  -18.7060 C   0  0  0  0  0  0  0  0  0  0  0  0
   -9.8770    2.0220  -18.9930 C   0  0  0  0  0  0  0  0  0  0  0  0
   -9.4030    3.6570  -20.7010 C   0  0  0  0  0  0  0  0  0  0  0  0
  -15.6330    4.5720  -19.7120 C   0  0  0  0  0  0  0  0  0  0  0  0
  -14.4980    5.3050  -19.4360 C   0  0  0  0  0  0  0  0  0  0  0  0
  -14.4550    2.5300  -19.2860 C   0  0  0  0  0  0  0  0  0  0  0  0
  -15.5820    3.1960  -19.6450 C   0  0  0  0  0  0  0  0  0  0  0  0
  -12.1300    5.4430  -18.7660 C   0  0  0  0  0  0  0  0  0  0  0  0
  -11.1140    2.6620  -19.4120 C   0  0  2  0  0  0  0  0  0  0  0  0
  -13.3460    3.2630  -19.0010 C   0  0  0  0  0  0  0  0  0  0  0  0
  -10.6140    3.8840  -19.9150 C   0  0  1  0  0  0  0  0  0  0  0  0
  -13.3410    4.6310  -19.1200 C   0  0  0  0  0  0  0  0  0  0  0  0
   -8.3974    1.8849  -20.3925 H   0  0  0  0  0  0  0  0  0  0  0  0
   -8.8819    5.3951  -19.0576 H   0  0  0  0  0  0  0  0  0  0  0  0
   -9.7861    6.7549  -19.0640 H   0  0  0  0  0  0  0  0  0  0  0  0
   -9.6775    5.8529  -17.7071 H   0  0  0  0  0  0  0  0  0  0  0  0
   -9.7015    2.2081  -18.0263 H   0  0  0  0  0  0  0  0  0  0  0  0
   -9.9324    1.0341  -19.1376 H   0  0  0  0  0  0  0  0  0  0  0  0
   -9.6027    3.3224  -21.6220 H   0  0  0  0  0  0  0  0  0  0  0  0
   -8.8277    4.4728  -20.7602 H   0  0  0  0  0  0  0  0  0  0  0  0
  -16.4849    5.0342  -19.9584 H   0  0  0  0  0  0  0  0  0  0  0  0
  -14.5155    6.3044  -19.4649 H   0  0  0  0  0  0  0  0  0  0  0  0
  -14.4409    1.5315  -19.2328 H   0  0  0  0  0  0  0  0  0  0  0  0
  -11.3699    2.1576  -20.2367 H   0  0  0  0  0  0  0  0  0  0  0  0
  -11.2656    4.0329  -20.6588 H   0  0  0  0  0  0  0  0  0  0  0  0
   -8.1047    3.0041  -19.2399 H   0  0  0  0  0  0  0  0  0  0  0  0
  1 12  1  0  0  0  0
  2 13  2  0  0  0  0
  3 14  1  0  0  0  0
  3 15  1  0  0  0  0
  4  7  1  0  0  0  0
  4  8  1  0  0  0  0
  5  6  1  0  0  0  0
  5 13  1  0  0  0  0
  5 16  1  0  0  0  0
  7 14  1  0  0  0  0
  8 16  1  0  0  0  0
  9 10  1  0  0  0  0
  9 12  2  0  0  0  0
 10 17  2  0  0  0  0
 11 12  1  0  0  0  0
 11 15  2  0  0  0  0
 13 17  1  0  0  0  0
 14 16  1  0  0  0  0
 15 17  1  0  0  0  0
  4 18  1  0  0  0  0
  6 19  1  0  0  0  0
  6 20  1  0  0  0  0
  6 21  1  0  0  0  0
  7 22  1  0  0  0  0
  7 23  1  0  0  0  0
  8 24  1  0  0  0  0
  8 25  1  0  0  0  0
  9 26  1  0  0  0  0
 10 27  1  0  0  0  0
 11 28  1  0  0  0  0
 14 29  1  0  0  0  0
 16 30  1  0  0  0  0
  4 31  1  0  0  0  0
M  CHG  1   4   1
M  END
$$$$
DMS_D_401
prProtoss 03122516413D 1   1.00000     0.00000     0
Protoss beta proteinsplus
 10  9  0  0  0  0            999 V2000
   -9.2760   25.1840  -15.2560 S   0  0  0  0  0  0  0  0  0  0  0  0
  -10.4650   25.5430  -14.3940 O   0  0  0  0  0  0  0  0  0  0  0  0
   -8.7610   26.6740  -16.1550 C   0  0  0  0  0  0  0  0  0  0  0  0
   -7.8520   25.1020  -14.1410 C   0  0  0  0  0  0  0  0  0  0  0  0
   -7.9738   26.4591  -16.7330 H   0  0  0  0  0  0  0  0  0  0  0  0
   -9.5159   26.9963  -16.7262 H   0  0  0  0  0  0  0  0  0  0  0  0
   -8.5096   27.3876  -15.5011 H   0  0  0  0  0  0  0  0  0  0  0  0
   -7.0326   24.8662  -14.6635 H   0  0  0  0  0  0  0  0  0  0  0  0
   -7.7221   25.9902  -13.7003 H   0  0  0  0  0  0  0  0  0  0  0  0
   -8.0147   24.4043  -13.4433 H   0  0  0  0  0  0  0  0  0  0  0  0
  1  2  2  0  0  0  0
  1  3  1  0  0  0  0
  1  4  1  0  0  0  0
  3  5  1  0  0  0  0
  3  6  1  0  0  0  0
  3  7  1  0  0  0  0
  4  8  1  0  0  0  0
  4  9  1  0  0  0  0
  4 10  1  0  0  0  0
M  END
$$$$
DMS_D_402
prProtoss 03122516413D 1   1.00000     0.00000     0
Protoss beta proteinsplus
 10  9  0  0  0  0            999 V2000
    6.3880   11.1280  -20.0000 S   0  0  0  0  0  0  0  0  0  0  0  0
    5.1110   11.8950  -20.2220 O   0  0  0  0  0  0  0  0  0  0  0  0
    7.1370   11.8410  -18.5150 C   0  0  0  0  0  0  0  0  0  0  0  0
    5.9240    9.5320  -19.2870 C   0  0  0  0  0  0  0  0  0  0  0  0
    7.9955   11.3688  -18.3151 H   0  0  0  0  0  0  0  0  0  0  0  0
    7.3185   12.8126  -18.6668 H   0  0  0  0  0  0  0  0  0  0  0  0
    6.5109   11.7356  -17.7424 H   0  0  0  0  0  0  0  0  0  0  0  0
    6.7471    8.9882  -19.1230 H   0  0  0  0  0  0  0  0  0  0  0  0
    5.4445    9.6801  -18.4220 H   0  0  0  0  0  0  0  0  0  0  0  0
    5.3239    9.0452  -19.9217 H   0  0  0  0  0  0  0  0  0  0  0  0
  1  2  2  0  0  0  0
  1  3  1  0  0  0  0
  1  4  1  0  0  0  0
  3  5  1  0  0  0  0
  3  6  1  0  0  0  0
  3  7  1  0  0  0  0
  4  8  1  0  0  0  0
  4  9  1  0  0  0  0
  4 10  1  0  0  0  0
M  END
$$$$
DMS_D_404
prProtoss 03122516413D 1   1.00000     0.00000     0
Protoss beta proteinsplus
 10  9  0  0  0  0            999 V2000
  -19.2570   18.0610   -1.0640 S   0  0  0  0  0  0  0  0  0  0  0  0
  -18.4470   17.0140   -0.3380 O   0  0  0  0  0  0  0  0  0  0  0  0
  -20.8770   18.0870   -0.2640 C   0  0  0  0  0  0  0  0  0  0  0  0
  -18.6880   19.6660   -0.4510 C   0  0  0  0  0  0  0  0  0  0  0  0
  -21.4577   18.7685   -0.7092 H   0  0  0  0  0  0  0  0  0  0  0  0
  -21.3018   17.1851   -0.3419 H   0  0  0  0  0  0  0  0  0  0  0  0
  -20.7680   18.3218    0.7019 H   0  0  0  0  0  0  0  0  0  0  0  0
  -19.1983   20.3963   -0.9052 H   0  0  0  0  0  0  0  0  0  0  0  0
  -18.8387   19.7183    0.5362 H   0  0  0  0  0  0  0  0  0  0  0  0
  -17.7126   19.7703   -0.6452 H   0  0  0  0  0  0  0  0  0  0  0  0
  1  2  2  0  0  0  0
  1  3  1  0  0  0  0
  1  4  1  0  0  0  0
  3  5  1  0  0  0  0
  3  6  1  0  0  0  0
  3  7  1  0  0  0  0
  4  8  1  0  0  0  0
  4  9  1  0  0  0  0
  4 10  1  0  0  0  0
M  END
$$$$
DMS_D_405
prProtoss 03122516413D 1   1.00000     0.00000     0
Protoss beta proteinsplus
 10  9  0  0  0  0            999 V2000
   14.5090   24.7940  -23.1970 S   0  0  0  0  0  0  0  0  0  0  0  0
   15.9890   24.5550  -23.3710 O   0  0  0  0  0  0  0  0  0  0  0  0
   13.9620   23.7050  -21.8700 C   0  0  0  0  0  0  0  0  0  0  0  0
   13.7100   23.9600  -24.5840 C   0  0  0  0  0  0  0  0  0  0  0  0
   12.9814   23.8301  -21.7190 H   0  0  0  0  0  0  0  0  0  0  0  0
   14.1417   22.7545  -22.1234 H   0  0  0  0  0  0  0  0  0  0  0  0
   14.4593   23.9260  -21.0311 H   0  0  0  0  0  0  0  0  0  0  0  0
   12.7197   24.0844  -24.5221 H   0  0  0  0  0  0  0  0  0  0  0  0
   14.0419   24.3495  -25.4432 H   0  0  0  0  0  0  0  0  0  0  0  0
   13.9257   22.9840  -24.5552 H   0  0  0  0  0  0  0  0  0  0  0  0
  1  2  2  0  0  0  0
  1  3  1  0  0  0  0
  1  4  1  0  0  0  0
  3  5  1  0  0  0  0
  3  6  1  0  0  0  0
  3  7  1  0  0  0  0
  4  8  1  0  0  0  0
  4  9  1  0  0  0  0
  4 10  1  0  0  0  0
M  END
$$$$
DMS_D_406
prProtoss 03122516413D 1   1.00000     0.00000     0
Protoss beta proteinsplus
 10  9  0  0  0  0            999 V2000
   -6.7650    5.2610  -15.0550 S   0  0  0  0  0  0  0  0  0  0  0  0
   -7.6630    5.4410  -13.8620 O   0  0  0  0  0  0  0  0  0  0  0  0
   -7.1680    6.6320  -16.1690 C   0  0  0  0  0  0  0  0  0  0  0  0
   -7.4470    3.8680  -15.9830 C   0  0  0  0  0  0  0  0  0  0  0  0
   -6.6010    6.5717  -16.9905 H   0  0  0  0  0  0  0  0  0  0  0  0
   -8.1331    6.5803  -16.4256 H   0  0  0  0  0  0  0  0  0  0  0  0
   -6.9923    7.5006  -15.7057 H   0  0  0  0  0  0  0  0  0  0  0  0
   -6.8860    3.7010  -16.7938 H   0  0  0  0  0  0  0  0  0  0  0  0
   -7.4493    3.0518  -15.4053 H   0  0  0  0  0  0  0  0  0  0  0  0
   -8.3831    4.0806  -16.2634 H   0  0  0  0  0  0  0  0  0  0  0  0
  1  2  2  0  0  0  0
  1  3  1  0  0  0  0
  1  4  1  0  0  0  0
  3  5  1  0  0  0  0
  3  6  1  0  0  0  0
  3  7  1  0  0  0  0
  4  8  1  0  0  0  0
  4  9  1  0  0  0  0
  4 10  1  0  0  0  0
M  END
$$$$
299_B_5
prProtoss 03122517133D 1   1.00000     0.00000     0
Protoss beta proteinsplus
 28 30  0  0  0  0            999 V2000
  -29.9210   21.8040  -36.6550 S   0  0  0  0  0  0  0  0  0  0  0  0
  -29.4110   20.6360  -37.3490 O   0  0  0  0  0  0  0  0  0  0  0  0
  -31.3540   21.9720  -36.4860 O   0  0  0  0  0  0  0  0  0  0  0  0
  -28.7370   24.3150  -35.3970 O   0  0  0  0  0  0  0  0  0  0  0  0
  -29.3110   21.7190  -35.0810 N   0  0  0  0  0  0  0  0  0  0  0  0
  -27.9090   22.6220  -32.6540 N   0  3  0  0  0  0  0  0  0  0  0  0
  -28.2880   25.3670  -37.4320 N   0  0  0  0  0  0  0  0  0  0  0  0
  -28.3070   25.4020  -38.8080 C   0  0  0  0  0  0  0  0  0  0  0  0
  -27.6170   23.8910  -33.3310 C   0  0  0  0  0  0  0  0  0  0  0  0
  -27.4050   21.5760  -33.5450 C   0  0  0  0  0  0  0  0  0  0  0  0
  -28.8010   24.3740  -39.5170 C   0  0  0  0  0  0  0  0  0  0  0  0
  -29.3180   23.2270  -38.8010 C   0  0  0  0  0  0  0  0  0  0  0  0
  -29.2930   23.2070  -37.4510 C   0  0  0  0  0  0  0  0  0  0  0  0
  -28.7850   24.2560  -36.7670 C   0  0  0  0  0  0  0  0  0  0  0  0
  -27.6490   23.5750  -34.8380 C   0  0  1  0  0  0  0  0  0  0  0  0
  -27.8750   22.0510  -34.9210 C   0  0  2  0  0  0  0  0  0  0  0  0
  -29.4478   20.7853  -34.7500 H   0  0  0  0  0  0  0  0  0  0  0  0
  -28.8940   22.5184  -32.5161 H   0  0  0  0  0  0  0  0  0  0  0  0
  -27.9481   26.2037  -39.2861 H   0  0  0  0  0  0  0  0  0  0  0  0
  -26.7143   24.2289  -33.0645 H   0  0  0  0  0  0  0  0  0  0  0  0
  -28.3097   24.5753  -33.1033 H   0  0  0  0  0  0  0  0  0  0  0  0
  -27.8001   20.6863  -33.3163 H   0  0  0  0  0  0  0  0  0  0  0  0
  -26.4075   21.5180  -33.5049 H   0  0  0  0  0  0  0  0  0  0  0  0
  -28.8115   24.4003  -40.5166 H   0  0  0  0  0  0  0  0  0  0  0  0
  -29.6935   22.4498  -39.3059 H   0  0  0  0  0  0  0  0  0  0  0  0
  -26.7854   23.8302  -35.2728 H   0  0  0  0  0  0  0  0  0  0  0  0
  -27.3263   21.6434  -35.6509 H   0  0  0  0  0  0  0  0  0  0  0  0
  -27.4427   22.5824  -31.7703 H   0  0  0  0  0  0  0  0  0  0  0  0
  1  2  2  0  0  0  0
  1  3  2  0  0  0  0
  1  5  1  0  0  0  0
  1 13  1  0  0  0  0
  4 14  1  0  0  0  0
  4 15  1  0  0  0  0
  5 16  1  0  0  0  0
  6  9  1  0  0  0  0
  6 10  1  0  0  0  0
  7  8  1  0  0  0  0
  7 14  2  0  0  0  0
  8 11  2  0  0  0  0
  9 15  1  0  0  0  0
 10 16  1  0  0  0  0
 11 12  1  0  0  0  0
 12 13  2  0  0  0  0
 13 14  1  0  0  0  0
 15 16  1  0  0  0  0
  5 17  1  0  0  0  0
  6 18  1  0  0  0  0
  8 19  1  0  0  0  0
  9 20  1  0  0  0  0
  9 21  1  0  0  0  0
 10 22  1  0  0  0  0
 10 23  1  0  0  0  0
 11 24  1  0  0  0  0
 12 25  1  0  0  0  0
 15 26  1  0  0  0  0
 16 27  1  0  0  0  0
  6 28  1  0  0  0  0
M  CHG  1   6   1
M  END
$$$$
299_B_6
prProtoss 03122517133D 1   1.00000     0.00000     0
Protoss beta proteinsplus
 28 30  0  0  0  0            999 V2000
   -1.3470    4.0140  -19.2010 S   0  0  0  0  0  0  0  0  0  0  0  0
   -0.2250    3.4770  -19.9520 O   0  0  0  0  0  0  0  0  0  0  0  0
   -2.2190    3.1010  -18.4960 O   0  0  0  0  0  0  0  0  0  0  0  0
   -1.3630    7.0310  -19.5070 O   0  0  0  0  0  0  0  0  0  0  0  0
   -2.2330    4.7090  -20.4630 N   0  0  0  0  0  0  0  0  0  0  0  0
   -3.0900    7.4540  -21.7870 N   0  3  0  0  0  0  0  0  0  0  0  0
   -0.2900    7.4630  -17.4890 N   0  0  0  0  0  0  0  0  0  0  0  0
    0.3030    7.0510  -16.3170 C   0  0  0  0  0  0  0  0  0  0  0  0
   -3.1680    8.1150  -20.4780 C   0  0  0  0  0  0  0  0  0  0  0  0
   -3.8100    6.1990  -21.5540 C   0  0  0  0  0  0  0  0  0  0  0  0
    0.3990    5.7470  -16.0220 C   0  0  0  0  0  0  0  0  0  0  0  0
   -0.1390    4.7900  -16.9680 C   0  0  0  0  0  0  0  0  0  0  0  0
   -0.7240    5.2080  -18.1110 C   0  0  0  0  0  0  0  0  0  0  0  0
   -0.8040    6.5250  -18.3700 C   0  0  0  0  0  0  0  0  0  0  0  0
   -2.7780    6.9920  -19.5160 C   0  0  1  0  0  0  0  0  0  0  0  0
   -3.2900    5.7080  -20.2040 C   0  0  2  0  0  0  0  0  0  0  0  0
   -2.6718    3.9534  -20.9494 H   0  0  0  0  0  0  0  0  0  0  0  0
   -2.1403    7.2822  -22.0488 H   0  0  0  0  0  0  0  0  0  0  0  0
    0.6656    7.7310  -15.6797 H   0  0  0  0  0  0  0  0  0  0  0  0
   -4.0944    8.4433  -20.2936 H   0  0  0  0  0  0  0  0  0  0  0  0
   -2.5259    8.8794  -20.4204 H   0  0  0  0  0  0  0  0  0  0  0  0
   -3.6069    5.5355  -22.2741 H   0  0  0  0  0  0  0  0  0  0  0  0
   -4.7965    6.3586  -21.5165 H   0  0  0  0  0  0  0  0  0  0  0  0
    0.8300    5.4429  -15.1725 H   0  0  0  0  0  0  0  0  0  0  0  0
   -0.0764    3.8113  -16.7726 H   0  0  0  0  0  0  0  0  0  0  0  0
   -3.1688    7.1179  -18.6042 H   0  0  0  0  0  0  0  0  0  0  0  0
   -4.0322    5.3001  -19.6722 H   0  0  0  0  0  0  0  0  0  0  0  0
   -3.5372    8.0008  -22.4949 H   0  0  0  0  0  0  0  0  0  0  0  0
  1  2  2  0  0  0  0
  1  3  2  0  0  0  0
  1  5  1  0  0  0  0
  1 13  1  0  0  0  0
  4 14  1  0  0  0  0
  4 15  1  0  0  0  0
  5 16  1  0  0  0  0
  6  9  1  0  0  0  0
  6 10  1  0  0  0  0
  7  8  1  0  0  0  0
  7 14  2  0  0  0  0
  8 11  2  0  0  0  0
  9 15  1  0  0  0  0
 10 16  1  0  0  0  0
 11 12  1  0  0  0  0
 12 13  2  0  0  0  0
 13 14  1  0  0  0  0
 15 16  1  0  0  0  0
  5 17  1  0  0  0  0
  6 18  1  0  0  0  0
  8 19  1  0  0  0  0
  9 20  1  0  0  0  0
  9 21  1  0  0  0  0
 10 22  1  0  0  0  0
 10 23  1  0  0  0  0
 11 24  1  0  0  0  0
 12 25  1  0  0  0  0
 15 26  1  0  0  0  0
 16 27  1  0  0  0  0
  6 28  1  0  0  0  0
M  CHG  1   6   1
M  END
$$$$
299_B_7
prProtoss 03122517133D 1   1.00000     0.00000     0
Protoss beta proteinsplus
 28 30  0  0  0  0            999 V2000
  -15.1560    1.6820  -29.6840 S   0  0  0  0  0  0  0  0  0  0  0  0
  -14.5990    0.3970  -29.2870 O   0  0  0  0  0  0  0  0  0  0  0  0
  -15.7760    1.7930  -30.9990 O   0  0  0  0  0  0  0  0  0  0  0  0
  -15.5220    4.7480  -29.5110 O   0  0  0  0  0  0  0  0  0  0  0  0
  -16.3820    1.9770  -28.5680 N   0  0  0  0  0  0  0  0  0  0  0  0
  -18.0290    4.8710  -29.9720 N   0  3  0  0  0  0  0  0  0  0  0  0
  -13.2470    5.1760  -29.3270 N   0  0  0  0  0  0  0  0  0  0  0  0
  -11.9350    4.7770  -29.2620 C   0  0  0  0  0  0  0  0  0  0  0  0
  -17.5490    5.4730  -28.7170 C   0  0  0  0  0  0  0  0  0  0  0  0
  -18.0670    3.4290  -29.6750 C   0  0  0  0  0  0  0  0  0  0  0  0
  -11.6000    3.4800  -29.3300 C   0  0  0  0  0  0  0  0  0  0  0  0
  -12.6590    2.5030  -29.4600 C   0  0  0  0  0  0  0  0  0  0  0  0
  -13.9460    2.9110  -29.5150 C   0  0  0  0  0  0  0  0  0  0  0  0
  -14.2500    4.2280  -29.4410 C   0  0  0  0  0  0  0  0  0  0  0  0
  -16.3760    4.5560  -28.3830 C   0  0  1  0  0  0  0  0  0  0  0  0
  -17.1660    3.2370  -28.4560 C   0  0  2  0  0  0  0  0  0  0  0  0
  -17.0591    1.2577  -28.7233 H   0  0  0  0  0  0  0  0  0  0  0  0
  -17.3986    5.0638  -30.7240 H   0  0  0  0  0  0  0  0  0  0  0  0
  -11.2165    5.4654  -29.1622 H   0  0  0  0  0  0  0  0  0  0  0  0
  -18.2506    5.4458  -28.0049 H   0  0  0  0  0  0  0  0  0  0  0  0
  -17.2494    6.4172  -28.8538 H   0  0  0  0  0  0  0  0  0  0  0  0
  -17.7202    2.9033  -30.4518 H   0  0  0  0  0  0  0  0  0  0  0  0
  -19.0015    3.1398  -29.4674 H   0  0  0  0  0  0  0  0  0  0  0  0
  -10.6421    3.1954  -29.2918 H   0  0  0  0  0  0  0  0  0  0  0  0
  -12.4392    1.5287  -29.5090 H   0  0  0  0  0  0  0  0  0  0  0  0
  -15.9452    4.7355  -27.4986 H   0  0  0  0  0  0  0  0  0  0  0  0
  -17.7464    3.1739  -27.6441 H   0  0  0  0  0  0  0  0  0  0  0  0
  -18.9400    5.2112  -30.2052 H   0  0  0  0  0  0  0  0  0  0  0  0
  1  2  2  0  0  0  0
  1  3  2  0  0  0  0
  1  5  1  0  0  0  0
  1 13  1  0  0  0  0
  4 14  1  0  0  0  0
  4 15  1  0  0  0  0
  5 16  1  0  0  0  0
  6  9  1  0  0  0  0
  6 10  1  0  0  0  0
  7  8  1  0  0  0  0
  7 14  2  0  0  0  0
  8 11  2  0  0  0  0
  9 15  1  0  0  0  0
 10 16  1  0  0  0  0
 11 12  1  0  0  0  0
 12 13  2  0  0  0  0
 13 14  1  0  0  0  0
 15 16  1  0  0  0  0
  5 17  1  0  0  0  0
  6 18  1  0  0  0  0
  8 19  1  0  0  0  0
  9 20  1  0  0  0  0
  9 21  1  0  0  0  0
 10 22  1  0  0  0  0
 10 23  1  0  0  0  0
 11 24  1  0  0  0  0
 12 25  1  0  0  0  0
 15 26  1  0  0  0  0
 16 27  1  0  0  0  0
  6 28  1  0  0  0  0
M  CHG  1   6   1
M  END
$$$$
299_B_8
prProtoss 03122517133D 1   1.00000     0.00000     0
Protoss beta proteinsplus
 28 30  0  0  0  0            999 V2000
    1.7300   -3.0990  -23.0910 S   0  0  0  0  0  0  0  0  0  0  0  0
    1.5000   -2.7440  -21.6980 O   0  0  0  0  0  0  0  0  0  0  0  0
    0.8540   -4.0340  -23.7490 O   0  0  0  0  0  0  0  0  0  0  0  0
    3.9620   -0.9010  -23.9070 O   0  0  0  0  0  0  0  0  0  0  0  0
    3.2520   -3.8200  -23.1170 N   0  0  0  0  0  0  0  0  0  0  0  0
    5.6000   -1.2440  -21.9180 N   0  3  0  0  0  0  0  0  0  0  0  0
    2.3910    0.3060  -25.0890 N   0  0  0  0  0  0  0  0  0  0  0  0
    1.1320    0.5910  -25.5630 C   0  0  0  0  0  0  0  0  0  0  0  0
    6.0850   -1.5120  -23.2890 C   0  0  0  0  0  0  0  0  0  0  0  0
    4.5690   -2.2620  -21.6360 C   0  0  0  0  0  0  0  0  0  0  0  0
    0.1010   -0.2060  -25.2840 C   0  0  0  0  0  0  0  0  0  0  0  0
    0.3750   -1.3750  -24.4770 C   0  0  0  0  0  0  0  0  0  0  0  0
    1.6170   -1.6450  -24.0180 C   0  0  0  0  0  0  0  0  0  0  0  0
    2.6470   -0.8320  -24.3330 C   0  0  0  0  0  0  0  0  0  0  0  0
    4.8240   -2.0300  -23.9810 C   0  0  1  0  0  0  0  0  0  0  0  0
    4.5300   -3.0910  -22.9140 C   0  0  2  0  0  0  0  0  0  0  0  0
    3.3291   -4.2536  -24.0148 H   0  0  0  0  0  0  0  0  0  0  0  0
    5.2049   -0.3270  -21.8637 H   0  0  0  0  0  0  0  0  0  0  0  0
    0.9883    1.4063  -26.1239 H   0  0  0  0  0  0  0  0  0  0  0  0
    6.8085   -2.2023  -23.2894 H   0  0  0  0  0  0  0  0  0  0  0  0
    6.4208   -0.6769  -23.7247 H   0  0  0  0  0  0  0  0  0  0  0  0
    3.6825   -1.8340  -21.4602 H   0  0  0  0  0  0  0  0  0  0  0  0
    4.8282   -2.8258  -20.8518 H   0  0  0  0  0  0  0  0  0  0  0  0
   -0.8202   -0.0051  -25.6173 H   0  0  0  0  0  0  0  0  0  0  0  0
   -0.3736   -1.9991  -24.2532 H   0  0  0  0  0  0  0  0  0  0  0  0
    4.9679   -2.3895  -24.9030 H   0  0  0  0  0  0  0  0  0  0  0  0
    5.2812   -3.7509  -22.8963 H   0  0  0  0  0  0  0  0  0  0  0  0
    6.3519   -1.3223  -21.2634 H   0  0  0  0  0  0  0  0  0  0  0  0
  1  2  2  0  0  0  0
  1  3  2  0  0  0  0
  1  5  1  0  0  0  0
  1 13  1  0  0  0  0
  4 14  1  0  0  0  0
  4 15  1  0  0  0  0
  5 16  1  0  0  0  0
  6  9  1  0  0  0  0
  6 10  1  0  0  0  0
  7  8  1  0  0  0  0
  7 14  2  0  0  0  0
  8 11  2  0  0  0  0
  9 15  1  0  0  0  0
 10 16  1  0  0  0  0
 11 12  1  0  0  0  0
 12 13  2  0  0  0  0
 13 14  1  0  0  0  0
 15 16  1  0  0  0  0
  5 17  1  0  0  0  0
  6 18  1  0  0  0  0
  8 19  1  0  0  0  0
  9 20  1  0  0  0  0
  9 21  1  0  0  0  0
 10 22  1  0  0  0  0
 10 23  1  0  0  0  0
 11 24  1  0  0  0  0
 12 25  1  0  0  0  0
 15 26  1  0  0  0  0
 16 27  1  0  0  0  0
  6 28  1  0  0  0  0
M  CHG  1   6   1
M  END
$$$$
299_B_9
prProtoss 03122517133D 1   1.00000     0.00000     0
Protoss beta proteinsplus
 21 22  0  0  0  0            999 V2000
  -20.2580    6.8440  -35.1140 S   0  0  0  0  0  0  0  0  0  0  0  0
  -19.0920    7.6150  -35.5000 O   0  0  0  0  0  0  0  0  0  0  0  0
  -21.2020    6.4060  -36.1320 O   0  0  0  0  0  0  0  0  0  0  0  0
  -21.5240    5.6410  -32.5100 O   0  0  0  0  0  0  0  0  0  0  0  0
  -21.1780    7.8380  -34.1040 N   0  0  0  0  0  0  0  0  0  0  0  0
  -19.9250    3.9370  -32.3610 N   0  0  0  0  0  0  0  0  0  0  0  0
  -22.5990    5.9190  -33.4220 C   0  0  0  0  0  0  0  0  0  0  0  0
  -22.5750    7.3930  -33.8720 C   0  0  0  0  0  0  0  0  0  0  0  0
  -18.8090    3.2710  -32.8120 C   0  0  0  0  0  0  0  0  0  0  0  0
  -18.1510    3.6820  -33.8980 C   0  0  0  0  0  0  0  0  0  0  0  0
  -18.6530    4.8350  -34.6040 C   0  0  0  0  0  0  0  0  0  0  0  0
  -19.7510    5.4810  -34.1730 C   0  0  0  0  0  0  0  0  0  0  0  0
  -20.4000    5.0490  -33.0560 C   0  0  0  0  0  0  0  0  0  0  0  0
  -21.2088    8.7498  -34.5136 H   0  0  0  0  0  0  0  0  0  0  0  0
  -23.4698    5.7298  -32.9683 H   0  0  0  0  0  0  0  0  0  0  0  0
  -22.5068    5.3304  -34.2252 H   0  0  0  0  0  0  0  0  0  0  0  0
  -23.0965    7.4876  -34.7200 H   0  0  0  0  0  0  0  0  0  0  0  0
  -22.9887    7.9618  -33.1611 H   0  0  0  0  0  0  0  0  0  0  0  0
  -18.4850    2.4646  -32.3173 H   0  0  0  0  0  0  0  0  0  0  0  0
  -17.3318    3.2032  -34.2137 H   0  0  0  0  0  0  0  0  0  0  0  0
  -18.1793    5.1578  -35.4234 H   0  0  0  0  0  0  0  0  0  0  0  0
  1  2  2  0  0  0  0
  1  3  2  0  0  0  0
  1  5  1  0  0  0  0
  1 12  1  0  0  0  0
  4  7  1  0  0  0  0
  4 13  1  0  0  0  0
  5  8  1  0  0  0  0
  6  9  1  0  0  0  0
  6 13  2  0  0  0  0
  7  8  1  0  0  0  0
  9 10  2  0  0  0  0
 10 11  1  0  0  0  0
 11 12  2  0  0  0  0
 12 13  1  0  0  0  0
  5 14  1  0  0  0  0
  7 15  1  0  0  0  0
  7 16  1  0  0  0  0
  8 17  1  0  0  0  0
  8 18  1  0  0  0  0
  9 19  1  0  0  0  0
 10 20  1  0  0  0  0
 11 21  1  0  0  0  0
M  END
$$$$
DMS_D_5
prProtoss 03122517133D 1   1.00000     0.00000     0
Protoss beta proteinsplus
 10  9  0  0  0  0            999 V2000
  -16.9070   24.9590  -33.0230 S   0  0  0  0  0  0  0  0  0  0  0  0
  -15.7300   25.2660  -33.9150 O   0  0  0  0  0  0  0  0  0  0  0  0
  -17.5140   26.5300  -32.3560 C   0  0  0  0  0  0  0  0  0  0  0  0
  -18.3290   24.7070  -34.1120 C   0  0  0  0  0  0  0  0  0  0  0  0
  -18.2972   26.3581  -31.7585 H   0  0  0  0  0  0  0  0  0  0  0  0
  -16.7864   26.9732  -31.8325 H   0  0  0  0  0  0  0  0  0  0  0  0
  -17.7935   27.1260  -33.1088 H   0  0  0  0  0  0  0  0  0  0  0  0
  -19.1377   24.4995  -33.5616 H   0  0  0  0  0  0  0  0  0  0  0  0
  -18.4923   25.5375  -34.6445 H   0  0  0  0  0  0  0  0  0  0  0  0
  -18.1431   23.9447  -34.7319 H   0  0  0  0  0  0  0  0  0  0  0  0
  1  2  2  0  0  0  0
  1  3  1  0  0  0  0
  1  4  1  0  0  0  0
  3  5  1  0  0  0  0
  3  6  1  0  0  0  0
  3  7  1  0  0  0  0
  4  8  1  0  0  0  0
  4  9  1  0  0  0  0
  4 10  1  0  0  0  0
M  END
$$$$
DMS_D_7
prProtoss 03122517133D 1   1.00000     0.00000     0
Protoss beta proteinsplus
 10  9  0  0  0  0            999 V2000
   -1.6080   21.2700  -16.0500 S   0  0  0  0  0  0  0  0  0  0  0  0
   -2.8070   20.5750  -16.6340 O   0  0  0  0  0  0  0  0  0  0  0  0
   -2.2030   22.3750  -14.7520 C   0  0  0  0  0  0  0  0  0  0  0  0
   -0.7050   20.0850  -15.0320 C   0  0  0  0  0  0  0  0  0  0  0  0
   -1.4276   22.8547  -14.3412 H   0  0  0  0  0  0  0  0  0  0  0  0
   -2.8364   23.0412  -15.1458 H   0  0  0  0  0  0  0  0  0  0  0  0
   -2.6745   21.8412  -14.0501 H   0  0  0  0  0  0  0  0  0  0  0  0
    0.0973   20.5303  -14.6345 H   0  0  0  0  0  0  0  0  0  0  0  0
   -1.2996   19.7537  -14.2994 H   0  0  0  0  0  0  0  0  0  0  0  0
   -0.4123   19.3143  -15.5980 H   0  0  0  0  0  0  0  0  0  0  0  0
  1  2  2  0  0  0  0
  1  3  1  0  0  0  0
  1  4  1  0  0  0  0
  3  5  1  0  0  0  0
  3  6  1  0  0  0  0
  3  7  1  0  0  0  0
  4  8  1  0  0  0  0
  4  9  1  0  0  0  0
  4 10  1  0  0  0  0
M  END
$$$$
DMS_D_10
prProtoss 03122517133D 1   1.00000     0.00000     0
Protoss beta proteinsplus
 10  9  0  0  0  0            999 V2000
  -16.0790   29.8940  -28.8530 S   0  0  0  0  0  0  0  0  0  0  0  0
  -15.6900   29.0570  -27.6630 O   0  0  0  0  0  0  0  0  0  0  0  0
  -15.0560   29.5850  -30.3080 C   0  0  0  0  0  0  0  0  0  0  0  0
  -17.6490   29.2910  -29.5110 C   0  0  0  0  0  0  0  0  0  0  0  0
  -15.3622   30.1679  -31.0607 H   0  0  0  0  0  0  0  0  0  0  0  0
  -14.1012   29.7911  -30.0940 H   0  0  0  0  0  0  0  0  0  0  0  0
  -15.1380   28.6249  -30.5753 H   0  0  0  0  0  0  0  0  0  0  0  0
  -17.9130   29.8430  -30.3019 H   0  0  0  0  0  0  0  0  0  0  0  0
  -17.5488   28.3359  -29.7897 H   0  0  0  0  0  0  0  0  0  0  0  0
  -18.3546   29.3602  -28.8058 H   0  0  0  0  0  0  0  0  0  0  0  0
  1  2  2  0  0  0  0
  1  3  1  0  0  0  0
  1  4  1  0  0  0  0
  3  5  1  0  0  0  0
  3  6  1  0  0  0  0
  3  7  1  0  0  0  0
  4  8  1  0  0  0  0
  4  9  1  0  0  0  0
  4 10  1  0  0  0  0
M  END
$$$$
DMS_D_11
prProtoss 03122517133D 1   1.00000     0.00000     0
Protoss beta proteinsplus
 10  9  0  0  0  0            999 V2000
   -6.5130   17.9180  -47.2310 S   0  0  0  0  0  0  0  0  0  0  0  0
   -7.6490   17.4900  -48.1380 O   0  0  0  0  0  0  0  0  0  0  0  0
   -5.0060   17.9120  -48.2290 C   0  0  0  0  0  0  0  0  0  0  0  0
   -6.6460   19.7070  -47.0310 C   0  0  0  0  0  0  0  0  0  0  0  0
   -4.2302   18.1904  -47.6628 H   0  0  0  0  0  0  0  0  0  0  0  0
   -4.8455   16.9913  -48.5849 H   0  0  0  0  0  0  0  0  0  0  0  0
   -5.1086   18.5509  -48.9914 H   0  0  0  0  0  0  0  0  0  0  0  0
   -5.9107   20.0315  -46.4360 H   0  0  0  0  0  0  0  0  0  0  0  0
   -6.5709   20.1488  -47.9249 H   0  0  0  0  0  0  0  0  0  0  0  0
   -7.5301   19.9318  -46.6212 H   0  0  0  0  0  0  0  0  0  0  0  0
  1  2  2  0  0  0  0
  1  3  1  0  0  0  0
  1  4  1  0  0  0  0
  3  5  1  0  0  0  0
  3  6  1  0  0  0  0
  3  7  1  0  0  0  0
  4  8  1  0  0  0  0
  4  9  1  0  0  0  0
  4 10  1  0  0  0  0
M  END
$$$$
DMS_D_12
prProtoss 03122517133D 1   1.00000     0.00000     0
Protoss beta proteinsplus
 10  9  0  0  0  0            999 V2000
  -37.5960   14.1610  -25.9450 S   0  0  0  0  0  0  0  0  0  0  0  0
  -37.6770   13.4560  -27.2830 O   0  0  0  0  0  0  0  0  0  0  0  0
  -37.5860   15.9260  -26.3250 C   0  0  0  0  0  0  0  0  0  0  0  0
  -39.2530   14.0740  -25.2250 C   0  0  0  0  0  0  0  0  0  0  0  0
  -37.5333   16.4497  -25.4748 H   0  0  0  0  0  0  0  0  0  0  0  0
  -36.7943   16.1392  -26.8975 H   0  0  0  0  0  0  0  0  0  0  0  0
  -38.4249   16.1666  -26.8132 H   0  0  0  0  0  0  0  0  0  0  0  0
  -39.2537   14.5284  -24.3342 H   0  0  0  0  0  0  0  0  0  0  0  0
  -39.9045   14.5293  -25.8319 H   0  0  0  0  0  0  0  0  0  0  0  0
  -39.5170   13.1162  -25.1108 H   0  0  0  0  0  0  0  0  0  0  0  0
  1  2  2  0  0  0  0
  1  3  1  0  0  0  0
  1  4  1  0  0  0  0
  3  5  1  0  0  0  0
  3  6  1  0  0  0  0
  3  7  1  0  0  0  0
  4  8  1  0  0  0  0
  4  9  1  0  0  0  0
  4 10  1  0  0  0  0
M  END
$$$$
PEG_A_401
prProtoss 03122516413D 1   1.00000     0.00000     0
Protoss beta proteinsplus
 17 16  0  0  0  0            999 V2000
  -13.0650   30.7420  -18.1530 O   0  0  0  0  0  0  0  0  0  0  0  0
  -15.2720   28.4170  -12.9740 O   0  0  0  0  0  0  0  0  0  0  0  0
  -14.8670   31.0530  -14.9120 O   0  0  0  0  0  0  0  0  0  0  0  0
  -13.2380   30.8790  -16.7380 C   0  0  0  0  0  0  0  0  0  0  0  0
  -15.8990   29.6810  -13.1790 C   0  0  0  0  0  0  0  0  0  0  0  0
  -14.6470   31.2680  -16.3130 C   0  0  0  0  0  0  0  0  0  0  0  0
  -15.8790   30.1040  -14.6350 C   0  0  0  0  0  0  0  0  0  0  0  0
  -12.1185   30.4865  -18.3499 H   0  0  0  0  0  0  0  0  0  0  0  0
  -15.3090   28.1801  -12.0032 H   0  0  0  0  0  0  0  0  0  0  0  0
  -12.6071   31.5832  -16.4123 H   0  0  0  0  0  0  0  0  0  0  0  0
  -13.0118   30.0045  -16.3089 H   0  0  0  0  0  0  0  0  0  0  0  0
  -15.4179   30.3702  -12.6373 H   0  0  0  0  0  0  0  0  0  0  0  0
  -16.8496   29.6216  -12.8744 H   0  0  0  0  0  0  0  0  0  0  0  0
  -14.7894   32.2366  -16.5168 H   0  0  0  0  0  0  0  0  0  0  0  0
  -15.3031   30.7186  -16.8304 H   0  0  0  0  0  0  0  0  0  0  0  0
  -15.7230   29.2948  -15.2015 H   0  0  0  0  0  0  0  0  0  0  0  0
  -16.7658   30.5054  -14.8641 H   0  0  0  0  0  0  0  0  0  0  0  0
  1  4  1  0  0  0  0
  2  5  1  0  0  0  0
  3  6  1  0  0  0  0
  3  7  1  0  0  0  0
  4  6  1  0  0  0  0
  5  7  1  0  0  0  0
  1  8  1  0  0  0  0
  2  9  1  0  0  0  0
  4 10  1  0  0  0  0
  4 11  1  0  0  0  0
  5 12  1  0  0  0  0
  5 13  1  0  0  0  0
  6 14  1  0  0  0  0
  6 15  1  0  0  0  0
  7 16  1  0  0  0  0
  7 17  1  0  0  0  0
M  END
$$$$
304_B_2
prProtoss 03122516413D 1   1.00000     0.00000     0
Protoss beta proteinsplus
 31 32  0  0  0  0            999 V2000
  -12.3650  -11.1360  -31.6270 O   0  0  0  0  0  0  0  0  0  0  0  0
  -11.6050   -9.1810  -30.6820 O   0  5  0  0  0  0  0  0  0  0  0  0
  -12.6490  -11.8940  -34.1540 O   0  0  0  0  0  0  0  0  0  0  0  0
  -11.2620   -7.9720  -32.9480 O   0  0  0  0  0  0  0  0  0  0  0  0
  -12.3140   -7.4620  -40.6400 O   0  0  0  0  0  0  0  0  0  0  0  0
  -11.3130   -7.5060  -34.3260 N   0  0  0  0  0  0  0  0  0  0  0  0
  -13.5660   -7.3310  -41.2580 C   0  0  0  0  0  0  0  0  0  0  0  0
  -14.7210  -10.6250  -34.1680 C   0  0  0  0  0  0  0  0  0  0  0  0
  -11.1520   -7.6250  -38.5960 C   0  0  0  0  0  0  0  0  0  0  0  0
  -13.4410   -8.0240  -38.5120 C   0  0  0  0  0  0  0  0  0  0  0  0
  -11.0830   -7.8380  -37.2580 C   0  0  0  0  0  0  0  0  0  0  0  0
  -13.3650   -8.2640  -37.1570 C   0  0  0  0  0  0  0  0  0  0  0  0
  -12.0060   -9.8120  -31.6550 C   0  0  0  0  0  0  0  0  0  0  0  0
  -13.2570  -10.6880  -34.6320 C   0  0  1  0  0  0  0  0  0  0  0  0
  -12.3350   -7.6960  -39.2480 C   0  0  0  0  0  0  0  0  0  0  0  0
  -12.0090   -9.1820  -32.9750 C   0  0  0  0  0  0  0  0  0  0  0  0
  -12.0400   -8.4440  -35.0300 C   0  0  0  0  0  0  0  0  0  0  0  0
  -12.1840   -8.1680  -36.4830 C   0  0  0  0  0  0  0  0  0  0  0  0
  -12.4430   -9.4900  -34.2300 C   0  0  0  0  0  0  0  0  0  0  0  0
  -12.2393  -11.7279  -33.2570 H   0  0  0  0  0  0  0  0  0  0  0  0
  -13.4393   -7.1689  -42.2366 H   0  0  0  0  0  0  0  0  0  0  0  0
  -14.0930   -8.1703  -41.1246 H   0  0  0  0  0  0  0  0  0  0  0  0
  -14.0584   -6.5604  -40.8535 H   0  0  0  0  0  0  0  0  0  0  0  0
  -15.1411   -9.7820  -34.5038 H   0  0  0  0  0  0  0  0  0  0  0  0
  -15.2195  -11.4129  -34.5296 H   0  0  0  0  0  0  0  0  0  0  0  0
  -14.7549  -10.6392  -33.1687 H   0  0  0  0  0  0  0  0  0  0  0  0
  -10.3185   -7.4130  -39.1062 H   0  0  0  0  0  0  0  0  0  0  0  0
  -14.3277   -8.0913  -38.9694 H   0  0  0  0  0  0  0  0  0  0  0  0
  -10.1938   -7.7527  -36.8085 H   0  0  0  0  0  0  0  0  0  0  0  0
  -14.1943   -8.5140  -36.6573 H   0  0  0  0  0  0  0  0  0  0  0  0
  -13.2597  -10.7282  -35.6312 H   0  0  0  0  0  0  0  0  0  0  0  0
  1 13  2  0  0  0  0
  2 13  1  0  0  0  0
  3 14  1  0  0  0  0
  4  6  1  0  0  0  0
  4 16  1  0  0  0  0
  5  7  1  0  0  0  0
  5 15  1  0  0  0  0
  6 17  2  0  0  0  0
  8 14  1  0  0  0  0
  9 11  2  0  0  0  0
  9 15  1  0  0  0  0
 10 12  1  0  0  0  0
 10 15  2  0  0  0  0
 11 18  1  0  0  0  0
 12 18  2  0  0  0  0
 13 16  1  0  0  0  0
 14 19  1  0  0  0  0
 16 19  2  0  0  0  0
 17 18  1  0  0  0  0
 17 19  1  0  0  0  0
 14 31  1  0  0  0  0
  3 20  1  0  0  0  0
  7 21  1  0  0  0  0
  7 22  1  0  0  0  0
  7 23  1  0  0  0  0
  8 24  1  0  0  0  0
  8 25  1  0  0  0  0
  8 26  1  0  0  0  0
  9 27  1  0  0  0  0
 10 28  1  0  0  0  0
 11 29  1  0  0  0  0
 12 30  1  0  0  0  0
M  CHG  1   2  -1
M  END
$$$$
304_B_5
prProtoss 03122516413D 1   1.00000     0.00000     0
Protoss beta proteinsplus
 31 32  0  0  0  0            999 V2000
  -26.4080   19.2580  -42.2650 O   0  0  0  0  0  0  0  0  0  0  0  0
  -25.5060   19.2190  -44.2940 O   0  5  0  0  0  0  0  0  0  0  0  0
  -25.6000   18.5730  -39.9430 O   0  0  0  0  0  0  0  0  0  0  0  0
  -22.9190   19.6970  -43.1230 O   0  0  0  0  0  0  0  0  0  0  0  0
  -18.1000   17.2080  -37.7790 O   0  0  0  0  0  0  0  0  0  0  0  0
  -21.7770   19.4250  -42.2620 N   0  0  0  0  0  0  0  0  0  0  0  0
  -16.8510   17.8930  -37.5730 C   0  0  0  0  0  0  0  0  0  0  0  0
  -24.9970   16.3970  -40.7990 C   0  0  0  0  0  0  0  0  0  0  0  0
  -19.0250   18.7030  -39.3720 C   0  0  0  0  0  0  0  0  0  0  0  0
  -20.3020   16.8850  -38.7160 C   0  0  0  0  0  0  0  0  0  0  0  0
  -20.0370   19.0840  -40.1980 C   0  0  0  0  0  0  0  0  0  0  0  0
  -21.3060   17.2360  -39.5350 C   0  0  0  0  0  0  0  0  0  0  0  0
  -25.3440   19.1880  -43.0790 C   0  0  0  0  0  0  0  0  0  0  0  0
  -24.4910   17.7420  -40.2680 C   0  0  1  0  0  0  0  0  0  0  0  0
  -19.1450   17.6000  -38.6120 C   0  0  0  0  0  0  0  0  0  0  0  0
  -24.0220   19.0860  -42.4040 C   0  0  0  0  0  0  0  0  0  0  0  0
  -22.2750   18.7350  -41.1840 C   0  0  0  0  0  0  0  0  0  0  0  0
  -21.2020   18.3720  -40.2650 C   0  0  0  0  0  0  0  0  0  0  0  0
  -23.6100   18.4790  -41.2500 C   0  0  0  0  0  0  0  0  0  0  0  0
  -26.1536   18.7254  -40.7617 H   0  0  0  0  0  0  0  0  0  0  0  0
  -16.2932   17.3801  -36.9205 H   0  0  0  0  0  0  0  0  0  0  0  0
  -16.3635   17.9662  -38.4431 H   0  0  0  0  0  0  0  0  0  0  0  0
  -17.0285   18.8086  -37.2123 H   0  0  0  0  0  0  0  0  0  0  0  0
  -24.2172   15.8140  -41.0270 H   0  0  0  0  0  0  0  0  0  0  0  0
  -25.5537   15.9503  -40.0986 H   0  0  0  0  0  0  0  0  0  0  0  0
  -25.5504   16.5488  -41.6180 H   0  0  0  0  0  0  0  0  0  0  0  0
  -18.1867   19.2466  -39.3298 H   0  0  0  0  0  0  0  0  0  0  0  0
  -20.4070   16.0625  -38.1571 H   0  0  0  0  0  0  0  0  0  0  0  0
  -19.9265   19.8994  -40.7662 H   0  0  0  0  0  0  0  0  0  0  0  0
  -22.1232   16.6640  -39.6055 H   0  0  0  0  0  0  0  0  0  0  0  0
  -23.9650   17.5755  -39.4340 H   0  0  0  0  0  0  0  0  0  0  0  0
  1 13  2  0  0  0  0
  2 13  1  0  0  0  0
  3 14  1  0  0  0  0
  4  6  1  0  0  0  0
  4 16  1  0  0  0  0
  5  7  1  0  0  0  0
  5 15  1  0  0  0  0
  6 17  2  0  0  0  0
  8 14  1  0  0  0  0
  9 11  1  0  0  0  0
  9 15  2  0  0  0  0
 10 12  2  0  0  0  0
 10 15  1  0  0  0  0
 11 18  2  0  0  0  0
 12 18  1  0  0  0  0
 13 16  1  0  0  0  0
 14 19  1  0  0  0  0
 16 19  2  0  0  0  0
 17 18  1  0  0  0  0
 17 19  1  0  0  0  0
 14 31  1  0  0  0  0
  3 20  1  0  0  0  0
  7 21  1  0  0  0  0
  7 22  1  0  0  0  0
  7 23  1  0  0  0  0
  8 24  1  0  0  0  0
  8 25  1  0  0  0  0
  8 26  1  0  0  0  0
  9 27  1  0  0  0  0
 10 28  1  0  0  0  0
 11 29  1  0  0  0  0
 12 30  1  0  0  0  0
M  CHG  1   2  -1
M  END
$$$$
304_B_6
prProtoss 03122516413D 1   1.00000     0.00000     0
Protoss beta proteinsplus
 29 30  0  0  0  0            999 V2000
   -9.5030    5.3480  -19.6580 O   0  0  0  0  0  0  0  0  0  0  0  0
   -9.8770    1.5620  -17.4340 O   0  0  0  0  0  0  0  0  0  0  0  0
  -16.6890    3.2850  -20.5850 O   0  0  0  0  0  0  0  0  0  0  0  0
  -11.2880    1.5770  -17.7540 N   0  0  0  0  0  0  0  0  0  0  0  0
  -16.8800    4.6540  -20.9340 C   0  0  0  0  0  0  0  0  0  0  0  0
   -9.2010    3.6800  -21.3810 C   0  0  0  0  0  0  0  0  0  0  0  0
   -9.3360    2.5490  -18.3520 C   0  0  0  0  0  0  0  0  0  0  0  0
  -14.6020    4.1150  -19.8280 C   0  0  0  0  0  0  0  0  0  0  0  0
  -14.8480    1.7920  -19.9370 C   0  0  0  0  0  0  0  0  0  0  0  0
  -13.3360    3.9420  -19.3890 C   0  0  0  0  0  0  0  0  0  0  0  0
  -13.5810    1.6250  -19.5210 C   0  0  0  0  0  0  0  0  0  0  0  0
  -10.0680    4.1570  -20.2020 C   0  0  1  0  0  0  0  0  0  0  0  0
  -15.3930    3.0330  -20.1120 C   0  0  0  0  0  0  0  0  0  0  0  0
  -11.4430    2.5080  -18.7570 C   0  0  0  0  0  0  0  0  0  0  0  0
  -12.8040    2.6980  -19.2330 C   0  0  0  0  0  0  0  0  0  0  0  0
  -10.2890    3.1020  -19.1370 C   0  0  0  0  0  0  0  0  0  0  0  0
   -9.0321    5.8538  -20.3807 H   0  0  0  0  0  0  0  0  0  0  0  0
  -17.8144    4.7865  -21.2647 H   0  0  0  0  0  0  0  0  0  0  0  0
  -16.7267    5.2276  -20.1294 H   0  0  0  0  0  0  0  0  0  0  0  0
  -16.2329    4.9082  -21.6527 H   0  0  0  0  0  0  0  0  0  0  0  0
   -9.5929    2.8446  -21.7664 H   0  0  0  0  0  0  0  0  0  0  0  0
   -9.1741    4.3907  -22.0840 H   0  0  0  0  0  0  0  0  0  0  0  0
   -8.2727    3.4948  -21.0586 H   0  0  0  0  0  0  0  0  0  0  0  0
   -8.3672    2.7926  -18.3986 H   0  0  0  0  0  0  0  0  0  0  0  0
  -14.9643    5.0395  -19.9465 H   0  0  0  0  0  0  0  0  0  0  0  0
  -15.4081    0.9849  -20.1239 H   0  0  0  0  0  0  0  0  0  0  0  0
  -12.7782    4.7437  -19.1742 H   0  0  0  0  0  0  0  0  0  0  0  0
  -13.2085    0.7021  -19.4231 H   0  0  0  0  0  0  0  0  0  0  0  0
  -10.9654    4.3970  -20.5721 H   0  0  0  0  0  0  0  0  0  0  0  0
  1 12  1  0  0  0  0
  2  4  1  0  0  0  0
  2  7  1  0  0  0  0
  3  5  1  0  0  0  0
  3 13  1  0  0  0  0
  4 14  2  0  0  0  0
  6 12  1  0  0  0  0
  7 16  2  0  0  0  0
  8 10  2  0  0  0  0
  8 13  1  0  0  0  0
  9 11  1  0  0  0  0
  9 13  2  0  0  0  0
 10 15  1  0  0  0  0
 11 15  2  0  0  0  0
 12 16  1  0  0  0  0
 14 15  1  0  0  0  0
 14 16  1  0  0  0  0
  1 17  1  0  0  0  0
  5 18  1  0  0  0  0
  5 19  1  0  0  0  0
  5 20  1  0  0  0  0
  6 21  1  0  0  0  0
  6 22  1  0  0  0  0
  6 23  1  0  0  0  0
  7 24  1  0  0  0  0
  8 25  1  0  0  0  0
  9 26  1  0  0  0  0
 10 27  1  0  0  0  0
 11 28  1  0  0  0  0
 12 29  1  0  0  0  0
M  END
$$$$
DMS_D_1
prProtoss 03122516413D 1   1.00000     0.00000     0
Protoss beta proteinsplus
 10  9  0  0  0  0            999 V2000
  -18.5110   16.9680  -43.0280 S   0  0  0  0  0  0  0  0  0  0  0  0
  -17.2280   16.4750  -43.6460 O   0  0  0  0  0  0  0  0  0  0  0  0
  -19.5890   17.5040  -44.3800 C   0  0  0  0  0  0  0  0  0  0  0  0
  -19.5570   15.6070  -42.4530 C   0  0  0  0  0  0  0  0  0  0  0  0
  -20.4533   17.8388  -44.0045 H   0  0  0  0  0  0  0  0  0  0  0  0
  -19.1418   18.2373  -44.8922 H   0  0  0  0  0  0  0  0  0  0  0  0
  -19.7674   16.7320  -44.9901 H   0  0  0  0  0  0  0  0  0  0  0  0
  -20.3947   15.9771  -42.0514 H   0  0  0  0  0  0  0  0  0  0  0  0
  -19.7903   15.0165  -43.2256 H   0  0  0  0  0  0  0  0  0  0  0  0
  -19.0638   15.0755  -41.7643 H   0  0  0  0  0  0  0  0  0  0  0  0
  1  2  2  0  0  0  0
  1  3  1  0  0  0  0
  1  4  1  0  0  0  0
  3  5  1  0  0  0  0
  3  6  1  0  0  0  0
  3  7  1  0  0  0  0
  4  8  1  0  0  0  0
  4  9  1  0  0  0  0
  4 10  1  0  0  0  0
M  END
$$$$
DMS_D_2
prProtoss 03122516413D 1   1.00000     0.00000     0
Protoss beta proteinsplus
 10  9  0  0  0  0            999 V2000
  -17.8790    4.8740  -46.6530 S   0  0  0  0  0  0  0  0  0  0  0  0
  -17.8420    6.0620  -45.7150 O   0  0  0  0  0  0  0  0  0  0  0  0
  -17.4230    3.3480  -45.7940 C   0  0  0  0  0  0  0  0  0  0  0  0
  -19.5930    4.4950  -47.1060 C   0  0  0  0  0  0  0  0  0  0  0  0
  -17.4558    2.5817  -46.4357 H   0  0  0  0  0  0  0  0  0  0  0  0
  -16.4970    3.4360  -45.4270 H   0  0  0  0  0  0  0  0  0  0  0  0
  -18.0642    3.1829  -45.0446 H   0  0  0  0  0  0  0  0  0  0  0  0
  -19.6083    3.7098  -47.7251 H   0  0  0  0  0  0  0  0  0  0  0  0
  -20.1159    4.2795  -46.2813 H   0  0  0  0  0  0  0  0  0  0  0  0
  -20.0002    5.2866  -47.5615 H   0  0  0  0  0  0  0  0  0  0  0  0
  1  2  2  0  0  0  0
  1  3  1  0  0  0  0
  1  4  1  0  0  0  0
  3  5  1  0  0  0  0
  3  6  1  0  0  0  0
  3  7  1  0  0  0  0
  4  8  1  0  0  0  0
  4  9  1  0  0  0  0
  4 10  1  0  0  0  0
M  END
$$$$
DMS_D_4
prProtoss 03122516413D 1   1.00000     0.00000     0
Protoss beta proteinsplus
 10  9  0  0  0  0            999 V2000
   -9.9540   25.0840  -16.0960 S   0  0  0  0  0  0  0  0  0  0  0  0
  -11.0680   25.7250  -15.2920 O   0  0  0  0  0  0  0  0  0  0  0  0
   -9.2940   26.4320  -17.1150 C   0  0  0  0  0  0  0  0  0  0  0  0
   -8.5440   25.0590  -14.9450 C   0  0  0  0  0  0  0  0  0  0  0  0
   -8.5460   26.0862  -17.6814 H   0  0  0  0  0  0  0  0  0  0  0  0
  -10.0188   26.7910  -17.7030 H   0  0  0  0  0  0  0  0  0  0  0  0
   -8.9534   27.1619  -16.5223 H   0  0  0  0  0  0  0  0  0  0  0  0
   -7.7525   24.6470  -15.3964 H   0  0  0  0  0  0  0  0  0  0  0  0
   -8.3215   25.9944  -14.6701 H   0  0  0  0  0  0  0  0  0  0  0  0
   -8.7834   24.5219  -14.1362 H   0  0  0  0  0  0  0  0  0  0  0  0
  1  2  2  0  0  0  0
  1  3  1  0  0  0  0
  1  4  1  0  0  0  0
  3  5  1  0  0  0  0
  3  6  1  0  0  0  0
  3  7  1  0  0  0  0
  4  8  1  0  0  0  0
  4  9  1  0  0  0  0
  4 10  1  0  0  0  0
M  END
$$$$
DMS_D_5
prProtoss 03122516413D 1   1.00000     0.00000     0
Protoss beta proteinsplus
 10  9  0  0  0  0            999 V2000
  -14.6520  -11.9120  -25.7430 S   0  0  0  0  0  0  0  0  0  0  0  0
  -14.0550  -10.7650  -26.5180 O   0  0  0  0  0  0  0  0  0  0  0  0
  -16.3670  -11.5030  -25.3590 C   0  0  0  0  0  0  0  0  0  0  0  0
  -14.8630  -13.2280  -26.9570 C   0  0  0  0  0  0  0  0  0  0  0  0
  -16.7813  -12.2533  -24.8439 H   0  0  0  0  0  0  0  0  0  0  0  0
  -16.3957  -10.6669  -24.8112 H   0  0  0  0  0  0  0  0  0  0  0  0
  -16.8745  -11.3621  -26.2091 H   0  0  0  0  0  0  0  0  0  0  0  0
  -15.2590  -14.0314  -26.5123 H   0  0  0  0  0  0  0  0  0  0  0  0
  -15.4731  -12.9153  -27.6850 H   0  0  0  0  0  0  0  0  0  0  0  0
  -13.9739  -13.4673  -27.3471 H   0  0  0  0  0  0  0  0  0  0  0  0
  1  2  2  0  0  0  0
  1  3  1  0  0  0  0
  1  4  1  0  0  0  0
  3  5  1  0  0  0  0
  3  6  1  0  0  0  0
  3  7  1  0  0  0  0
  4  8  1  0  0  0  0
  4  9  1  0  0  0  0
  4 10  1  0  0  0  0
M  END
$$$$
DMS_D_6
prProtoss 03122516413D 1   1.00000     0.00000     0
Protoss beta proteinsplus
 10  9  0  0  0  0            999 V2000
   -0.2880    8.4820  -53.9690 S   0  0  0  0  0  0  0  0  0  0  0  0
    0.8890    9.3960  -54.2390 O   0  0  0  0  0  0  0  0  0  0  0  0
   -1.5930    9.5830  -53.3450 C   0  0  0  0  0  0  0  0  0  0  0  0
   -0.9290    8.0500  -55.6100 C   0  0  0  0  0  0  0  0  0  0  0  0
   -2.4123    9.0470  -53.1417 H   0  0  0  0  0  0  0  0  0  0  0  0
   -1.2763   10.0367  -52.5120 H   0  0  0  0  0  0  0  0  0  0  0  0
   -1.8083   10.2710  -54.0381 H   0  0  0  0  0  0  0  0  0  0  0  0
   -1.7164    7.4416  -55.5107 H   0  0  0  0  0  0  0  0  0  0  0  0
   -1.2092    8.8824  -56.0882 H   0  0  0  0  0  0  0  0  0  0  0  0
   -0.2148    7.5879  -56.1358 H   0  0  0  0  0  0  0  0  0  0  0  0
  1  2  2  0  0  0  0
  1  3  1  0  0  0  0
  1  4  1  0  0  0  0
  3  5  1  0  0  0  0
  3  6  1  0  0  0  0
  3  7  1  0  0  0  0
  4  8  1  0  0  0  0
  4  9  1  0  0  0  0
  4 10  1  0  0  0  0
M  END
$$$$
DMS_D_7
prProtoss 03122516413D 1   1.00000     0.00000     0
Protoss beta proteinsplus
 10  9  0  0  0  0            999 V2000
  -24.5070   20.5270  -33.1420 S   0  0  0  0  0  0  0  0  0  0  0  0
  -24.0000   21.6560  -34.0760 O   0  0  0  0  0  0  0  0  0  0  0  0
  -25.6550   19.5360  -34.1380 C   0  0  0  0  0  0  0  0  0  0  0  0
  -25.8520   21.2320  -32.1620 C   0  0  0  0  0  0  0  0  0  0  0  0
  -26.0166   18.7868  -33.5830 H   0  0  0  0  0  0  0  0  0  0  0  0
  -26.4093   20.1135  -34.4504 H   0  0  0  0  0  0  0  0  0  0  0  0
  -25.1719   19.1615  -34.9295 H   0  0  0  0  0  0  0  0  0  0  0  0
  -26.2124   20.5359  -31.5411 H   0  0  0  0  0  0  0  0  0  0  0  0
  -25.5072   22.0060  -31.6309 H   0  0  0  0  0  0  0  0  0  0  0  0
  -26.5805   21.5442  -32.7717 H   0  0  0  0  0  0  0  0  0  0  0  0
  1  2  2  0  0  0  0
  1  3  1  0  0  0  0
  1  4  1  0  0  0  0
  3  5  1  0  0  0  0
  3  6  1  0  0  0  0
  3  7  1  0  0  0  0
  4  8  1  0  0  0  0
  4  9  1  0  0  0  0
  4 10  1  0  0  0  0
M  END
$$$$
DMS_D_8
prProtoss 03122516413D 1   1.00000     0.00000     0
Protoss beta proteinsplus
 10  9  0  0  0  0            999 V2000
    6.1690   11.5830  -20.6030 S   0  0  0  0  0  0  0  0  0  0  0  0
    5.6190   10.1710  -20.5570 O   0  0  0  0  0  0  0  0  0  0  0  0
    5.3420   12.4300  -21.9630 C   0  0  0  0  0  0  0  0  0  0  0  0
    5.4690   12.5560  -19.2420 C   0  0  0  0  0  0  0  0  0  0  0  0
    5.6800   13.3691  -22.0256 H   0  0  0  0  0  0  0  0  0  0  0  0
    5.5316   11.9497  -22.8194 H   0  0  0  0  0  0  0  0  0  0  0  0
    4.3557   12.4410  -21.7983 H   0  0  0  0  0  0  0  0  0  0  0  0
    5.8338   13.4865  -19.2754 H   0  0  0  0  0  0  0  0  0  0  0  0
    4.4734   12.5850  -19.3306 H   0  0  0  0  0  0  0  0  0  0  0  0
    5.7138   12.1331  -18.3695 H   0  0  0  0  0  0  0  0  0  0  0  0
  1  2  2  0  0  0  0
  1  3  1  0  0  0  0
  1  4  1  0  0  0  0
  3  5  1  0  0  0  0
  3  6  1  0  0  0  0
  3  7  1  0  0  0  0
  4  8  1  0  0  0  0
  4  9  1  0  0  0  0
  4 10  1  0  0  0  0
M  END
$$$$
DMS_D_11
prProtoss 03122516413D 1   1.00000     0.00000     0
Protoss beta proteinsplus
 10  9  0  0  0  0            999 V2000
  -27.1120   15.3150   -5.8430 S   0  0  0  0  0  0  0  0  0  0  0  0
  -27.9650   16.3750   -5.1870 O   0  0  0  0  0  0  0  0  0  0  0  0
  -26.1180   14.6680   -4.4880 C   0  0  0  0  0  0  0  0  0  0  0  0
  -28.1570   13.8680   -6.1440 C   0  0  0  0  0  0  0  0  0  0  0  0
  -25.5130   13.9499   -4.8318 H   0  0  0  0  0  0  0  0  0  0  0  0
  -25.5696   15.4060   -4.0949 H   0  0  0  0  0  0  0  0  0  0  0  0
  -26.7195   14.2888   -3.7848 H   0  0  0  0  0  0  0  0  0  0  0  0
  -27.6143   13.1496   -6.5791 H   0  0  0  0  0  0  0  0  0  0  0  0
  -28.5193   13.5318   -5.2747 H   0  0  0  0  0  0  0  0  0  0  0  0
  -28.9148   14.1232   -6.7445 H   0  0  0  0  0  0  0  0  0  0  0  0
  1  2  2  0  0  0  0
  1  3  1  0  0  0  0
  1  4  1  0  0  0  0
  3  5  1  0  0  0  0
  3  6  1  0  0  0  0
  3  7  1  0  0  0  0
  4  8  1  0  0  0  0
  4  9  1  0  0  0  0
  4 10  1  0  0  0  0
M  END
$$$$
DMS_D_12
prProtoss 03122516413D 1   1.00000     0.00000     0
Protoss beta proteinsplus
 10  9  0  0  0  0            999 V2000
   -4.2190   -8.0600  -16.8980 S   0  0  0  0  0  0  0  0  0  0  0  0
   -5.2350   -9.0120  -16.2540 O   0  0  0  0  0  0  0  0  0  0  0  0
   -4.5310   -7.6880  -18.6460 C   0  0  0  0  0  0  0  0  0  0  0  0
   -4.5450   -6.4310  -16.2180 C   0  0  0  0  0  0  0  0  0  0  0  0
   -3.8265   -7.0646  -18.9850 H   0  0  0  0  0  0  0  0  0  0  0  0
   -4.5092   -8.5356  -19.1762 H   0  0  0  0  0  0  0  0  0  0  0  0
   -5.4293   -7.2588  -18.7403 H   0  0  0  0  0  0  0  0  0  0  0  0
   -3.9036   -5.7716  -16.6102 H   0  0  0  0  0  0  0  0  0  0  0  0
   -5.4811   -6.1582  -16.4402 H   0  0  0  0  0  0  0  0  0  0  0  0
   -4.4319   -6.4557  -15.2247 H   0  0  0  0  0  0  0  0  0  0  0  0
  1  2  2  0  0  0  0
  1  3  1  0  0  0  0
  1  4  1  0  0  0  0
  3  5  1  0  0  0  0
  3  6  1  0  0  0  0
  3  7  1  0  0  0  0
  4  8  1  0  0  0  0
  4  9  1  0  0  0  0
  4 10  1  0  0  0  0
M  END
$$$$
PEG_A_401
prProtoss 03122516413D 1   1.00000     0.00000     0
Protoss beta proteinsplus
 13 12  0  0  0  0            999 V2000
    3.0860    7.9990  -49.3740 O   0  0  0  0  0  0  0  0  0  0  0  0
    3.6120    5.7770  -46.5800 O   0  0  0  0  0  0  0  0  0  0  0  0
    4.7960    5.2670  -45.9980 C   0  0  0  0  0  0  0  0  0  0  0  0
    3.6150    7.6940  -48.1070 C   0  0  0  0  0  0  0  0  0  0  0  0
    3.6990    6.1920  -47.9310 C   0  0  0  0  0  0  0  0  0  0  0  0
    2.0901    8.0650  -49.3123 H   0  0  0  0  0  0  0  0  0  0  0  0
    4.6161    5.0077  -45.0491 H   0  0  0  0  0  0  0  0  0  0  0  0
    5.1006    4.4644  -46.5108 H   0  0  0  0  0  0  0  0  0  0  0  0
    5.5084    5.9683  -46.0226 H   0  0  0  0  0  0  0  0  0  0  0  0
    3.0223    8.0781  -47.3991 H   0  0  0  0  0  0  0  0  0  0  0  0
    4.5301    8.0890  -48.0260 H   0  0  0  0  0  0  0  0  0  0  0  0
    2.9487    5.7709  -48.4406 H   0  0  0  0  0  0  0  0  0  0  0  0
    4.5724    5.8778  -48.3032 H   0  0  0  0  0  0  0  0  0  0  0  0
  1  4  1  0  0  0  0
  2  3  1  0  0  0  0
  2  5  1  0  0  0  0
  4  5  1  0  0  0  0
  1  6  1  0  0  0  0
  3  7  1  0  0  0  0
  3  8  1  0  0  0  0
  3  9  1  0  0  0  0
  4 10  1  0  0  0  0
  4 11  1  0  0  0  0
  5 12  1  0  0  0  0
  5 13  1  0  0  0  0
M  END
$$$$
310_B_1
prProtoss 03122516413D 1   1.00000     0.00000     0
Protoss beta proteinsplus
 43 44  0  0  0  0            999 V2000
  -19.5410    8.0150  -35.8160 O   0  0  0  0  0  0  0  0  0  0  0  0
  -14.0540    5.8680  -30.1270 O   0  0  0  0  0  0  0  0  0  0  0  0
  -19.0710    3.5680  -30.0500 O   0  0  0  0  0  0  0  0  0  0  0  0
  -17.2940    5.4100  -32.7370 O   0  0  0  0  0  0  0  0  0  0  0  0
  -15.7190    4.3460  -30.1930 N   0  0  0  0  0  0  0  0  0  0  0  0
  -13.4970    3.6520  -29.9090 N   0  0  0  0  0  0  0  0  0  0  0  0
  -18.8250    6.8130  -35.5960 C   0  0  0  0  0  0  0  0  0  0  0  0
   -9.4060    3.6770  -28.8300 C   0  0  0  0  0  0  0  0  0  0  0  0
  -10.0920    2.5010  -28.9860 C   0  0  0  0  0  0  0  0  0  0  0  0
  -10.0580    4.8630  -29.1050 C   0  0  0  0  0  0  0  0  0  0  0  0
  -16.6730    5.4600  -30.4010 C   0  0  0  0  0  0  0  0  0  0  0  0
  -18.9930    6.3600  -34.1550 C   0  0  0  0  0  0  0  0  0  0  0  0
  -18.9360    3.8420  -33.8220 C   0  0  0  0  0  0  0  0  0  0  0  0
  -11.4380    2.4930  -29.3650 C   0  0  0  0  0  0  0  0  0  0  0  0
  -11.3880    4.8520  -29.4870 C   0  0  0  0  0  0  0  0  0  0  0  0
  -19.5230    3.5930  -32.4370 C   0  0  0  0  0  0  0  0  0  0  0  0
  -14.3850    4.7070  -30.0560 C   0  0  0  0  0  0  0  0  0  0  0  0
  -18.1230    5.1230  -33.8860 C   0  0  2  0  0  0  0  0  0  0  0  0
  -18.4740    3.8100  -31.3320 C   0  0  1  0  0  0  0  0  0  0  0  0
  -17.8150    5.1960  -31.4060 C   0  0  2  0  0  0  0  0  0  0  0  0
  -12.1110    3.6770  -29.6380 C   0  0  0  0  0  0  0  0  0  0  0  0
  -19.0812    8.5522  -36.5231 H   0  0  0  0  0  0  0  0  0  0  0  0
  -18.3752    3.2287  -29.4170 H   0  0  0  0  0  0  0  0  0  0  0  0
  -16.0173    3.3923  -30.1536 H   0  0  0  0  0  0  0  0  0  0  0  0
  -13.8961    2.7406  -30.0095 H   0  0  0  0  0  0  0  0  0  0  0  0
  -17.8548    6.9672  -35.7831 H   0  0  0  0  0  0  0  0  0  0  0  0
  -19.1739    6.1036  -36.2083 H   0  0  0  0  0  0  0  0  0  0  0  0
   -8.4541    3.6764  -28.5237 H   0  0  0  0  0  0  0  0  0  0  0  0
   -9.6217    1.6331  -28.8260 H   0  0  0  0  0  0  0  0  0  0  0  0
   -9.5681    5.7313  -29.0279 H   0  0  0  0  0  0  0  0  0  0  0  0
  -16.1542    6.2497  -30.7283 H   0  0  0  0  0  0  0  0  0  0  0  0
  -17.0876    5.6766  -29.5171 H   0  0  0  0  0  0  0  0  0  0  0  0
  -19.9525    6.1319  -33.9897 H   0  0  0  0  0  0  0  0  0  0  0  0
  -18.7156    7.0993  -33.5414 H   0  0  0  0  0  0  0  0  0  0  0  0
  -19.6851    3.9040  -34.4816 H   0  0  0  0  0  0  0  0  0  0  0  0
  -18.3432    3.0733  -34.0622 H   0  0  0  0  0  0  0  0  0  0  0  0
  -11.9233    1.6219  -29.4406 H   0  0  0  0  0  0  0  0  0  0  0  0
  -11.8456    5.7240  -29.6609 H   0  0  0  0  0  0  0  0  0  0  0  0
  -19.8549    2.6509  -32.3894 H   0  0  0  0  0  0  0  0  0  0  0  0
  -20.2855    4.2229  -32.2893 H   0  0  0  0  0  0  0  0  0  0  0  0
  -17.5063    5.0316  -34.6679 H   0  0  0  0  0  0  0  0  0  0  0  0
  -17.7546    3.1277  -31.4622 H   0  0  0  0  0  0  0  0  0  0  0  0
  -18.5264    5.8799  -31.2444 H   0  0  0  0  0  0  0  0  0  0  0  0
  1  7  1  0  0  0  0
  2 17  2  0  0  0  0
  3 19  1  0  0  0  0
  4 18  1  0  0  0  0
  4 20  1  0  0  0  0
  5 11  1  0  0  0  0
  5 17  1  0  0  0  0
  6 17  1  0  0  0  0
  6 21  1  0  0  0  0
  7 12  1  0  0  0  0
  8  9  2  0  0  0  0
  8 10  1  0  0  0  0
  9 14  1  0  0  0  0
 10 15  2  0  0  0  0
 11 20  1  0  0  0  0
 12 18  1  0  0  0  0
 13 16  1  0  0  0  0
 13 18  1  0  0  0  0
 14 21  2  0  0  0  0
 15 21  1  0  0  0  0
 16 19  1  0  0  0  0
 19 20  1  0  0  0  0
  1 22  1  0  0  0  0
  3 23  1  0  0  0  0
  5 24  1  0  0  0  0
  6 25  1  0  0  0  0
  7 26  1  0  0  0  0
  7 27  1  0  0  0  0
  8 28  1  0  0  0  0
  9 29  1  0  0  0  0
 10 30  1  0  0  0  0
 11 31  1  0  0  0  0
 11 32  1  0  0  0  0
 12 33  1  0  0  0  0
 12 34  1  0  0  0  0
 13 35  1  0  0  0  0
 13 36  1  0  0  0  0
 14 37  1  0  0  0  0
 15 38  1  0  0  0  0
 16 39  1  0  0  0  0
 16 40  1  0  0  0  0
 18 41  1  0  0  0  0
 19 42  1  0  0  0  0
 20 43  1  0  0  0  0
M  END
$$$$
DMS_D_1
prProtoss 03122516413D 1   1.00000     0.00000     0
Protoss beta proteinsplus
 10  9  0  0  0  0            999 V2000
   -8.4310    5.1720   -3.2980 S   0  0  0  0  0  0  0  0  0  0  0  0
   -8.8910    6.5520   -3.7020 O   0  0  0  0  0  0  0  0  0  0  0  0
   -7.2570    5.5180   -1.9630 C   0  0  0  0  0  0  0  0  0  0  0  0
   -9.6470    4.3130   -2.2690 C   0  0  0  0  0  0  0  0  0  0  0  0
   -6.8844    4.6576   -1.6155 H   0  0  0  0  0  0  0  0  0  0  0  0
   -6.5125    6.0865   -2.3129 H   0  0  0  0  0  0  0  0  0  0  0  0
   -7.7260    6.0009   -1.2235 H   0  0  0  0  0  0  0  0  0  0  0  0
   -9.2990    3.4071   -2.0277 H   0  0  0  0  0  0  0  0  0  0  0  0
   -9.8101    4.8404   -1.4352 H   0  0  0  0  0  0  0  0  0  0  0  0
  -10.5038    4.2168   -2.7756 H   0  0  0  0  0  0  0  0  0  0  0  0
  1  2  2  0  0  0  0
  1  3  1  0  0  0  0
  1  4  1  0  0  0  0
  3  5  1  0  0  0  0
  3  6  1  0  0  0  0
  3  7  1  0  0  0  0
  4  8  1  0  0  0  0
  4  9  1  0  0  0  0
  4 10  1  0  0  0  0
M  END
$$$$
DMS_D_2
prProtoss 03122516413D 1   1.00000     0.00000     0
Protoss beta proteinsplus
 10  9  0  0  0  0            999 V2000
  -41.0200   23.9930  -25.6630 S   0  0  0  0  0  0  0  0  0  0  0  0
  -40.1290   24.2810  -24.4550 O   0  0  0  0  0  0  0  0  0  0  0  0
  -42.3060   25.2560  -25.6440 C   0  0  0  0  0  0  0  0  0  0  0  0
  -40.1650   24.5940  -27.1340 C   0  0  0  0  0  0  0  0  0  0  0  0
  -42.9228   25.1154  -26.4185 H   0  0  0  0  0  0  0  0  0  0  0  0
  -42.8230   25.1925  -24.7904 H   0  0  0  0  0  0  0  0  0  0  0  0
  -41.8857   26.1608  -25.7126 H   0  0  0  0  0  0  0  0  0  0  0  0
  -40.7275   24.4178  -27.9418 H   0  0  0  0  0  0  0  0  0  0  0  0
  -40.0043   25.5772  -27.0478 H   0  0  0  0  0  0  0  0  0  0  0  0
  -39.2894   24.1201  -27.2276 H   0  0  0  0  0  0  0  0  0  0  0  0
  1  2  2  0  0  0  0
  1  3  1  0  0  0  0
  1  4  1  0  0  0  0
  3  5  1  0  0  0  0
  3  6  1  0  0  0  0
  3  7  1  0  0  0  0
  4  8  1  0  0  0  0
  4  9  1  0  0  0  0
  4 10  1  0  0  0  0
M  END
$$$$
DMS_D_3
prProtoss 03122516413D 1   1.00000     0.00000     0
Protoss beta proteinsplus
 10  9  0  0  0  0            999 V2000
   -1.4100   21.7400  -16.1840 S   0  0  0  0  0  0  0  0  0  0  0  0
   -2.4810   22.4350  -15.3640 O   0  0  0  0  0  0  0  0  0  0  0  0
   -0.3230   20.8030  -15.0710 C   0  0  0  0  0  0  0  0  0  0  0  0
   -2.1830   20.3760  -17.0490 C   0  0  0  0  0  0  0  0  0  0  0  0
    0.3852   20.3426  -15.6063 H   0  0  0  0  0  0  0  0  0  0  0  0
    0.1057   21.4285  -14.4191 H   0  0  0  0  0  0  0  0  0  0  0  0
   -0.8613   20.1219  -14.5747 H   0  0  0  0  0  0  0  0  0  0  0  0
   -1.4976   19.8988  -17.5991 H   0  0  0  0  0  0  0  0  0  0  0  0
   -2.5783   19.7413  -16.3850 H   0  0  0  0  0  0  0  0  0  0  0  0
   -2.9048   20.7261  -17.6460 H   0  0  0  0  0  0  0  0  0  0  0  0
  1  2  2  0  0  0  0
  1  3  1  0  0  0  0
  1  4  1  0  0  0  0
  3  5  1  0  0  0  0
  3  6  1  0  0  0  0
  3  7  1  0  0  0  0
  4  8  1  0  0  0  0
  4  9  1  0  0  0  0
  4 10  1  0  0  0  0
M  END
$$$$
DMS_D_4
prProtoss 03122516413D 1   1.00000     0.00000     0
Protoss beta proteinsplus
 10  9  0  0  0  0            999 V2000
   -7.0950   18.0750   -9.6110 S   0  0  0  0  0  0  0  0  0  0  0  0
   -6.8350   17.9230  -11.0970 O   0  0  0  0  0  0  0  0  0  0  0  0
   -5.8000   19.1780   -8.9830 C   0  0  0  0  0  0  0  0  0  0  0  0
   -8.4680   19.2460   -9.5820 C   0  0  0  0  0  0  0  0  0  0  0  0
   -5.9251   19.3132   -8.0001 H   0  0  0  0  0  0  0  0  0  0  0  0
   -4.9032   18.7691   -9.1518 H   0  0  0  0  0  0  0  0  0  0  0  0
   -5.8576   20.0600   -9.4508 H   0  0  0  0  0  0  0  0  0  0  0  0
   -8.7320   19.4268   -8.6346 H   0  0  0  0  0  0  0  0  0  0  0  0
   -8.1865   20.1006  -10.0185 H   0  0  0  0  0  0  0  0  0  0  0  0
   -9.2462   18.8595  -10.0769 H   0  0  0  0  0  0  0  0  0  0  0  0
  1  2  2  0  0  0  0
  1  3  1  0  0  0  0
  1  4  1  0  0  0  0
  3  5  1  0  0  0  0
  3  6  1  0  0  0  0
  3  7  1  0  0  0  0
  4  8  1  0  0  0  0
  4  9  1  0  0  0  0
  4 10  1  0  0  0  0
M  END
$$$$
DMS_D_5
prProtoss 03122516413D 1   1.00000     0.00000     0
Protoss beta proteinsplus
 10  9  0  0  0  0            999 V2000
   -9.8570   -6.3480  -43.1650 S   0  0  0  0  0  0  0  0  0  0  0  0
  -10.1250   -5.4480  -41.9680 O   0  0  0  0  0  0  0  0  0  0  0  0
   -9.9880   -8.0630  -42.5660 C   0  0  0  0  0  0  0  0  0  0  0  0
   -8.0830   -6.2150  -43.4930 C   0  0  0  0  0  0  0  0  0  0  0  0
   -9.8185   -8.6943  -43.3228 H   0  0  0  0  0  0  0  0  0  0  0  0
   -9.3118   -8.2170  -41.8456 H   0  0  0  0  0  0  0  0  0  0  0  0
  -10.9057   -8.2193  -42.2007 H   0  0  0  0  0  0  0  0  0  0  0  0
   -7.8448   -6.7896  -44.2760 H   0  0  0  0  0  0  0  0  0  0  0  0
   -7.8519   -5.2634  -43.6954 H   0  0  0  0  0  0  0  0  0  0  0  0
   -7.5717   -6.5185  -42.6890 H   0  0  0  0  0  0  0  0  0  0  0  0
  1  2  2  0  0  0  0
  1  3  1  0  0  0  0
  1  4  1  0  0  0  0
  3  5  1  0  0  0  0
  3  6  1  0  0  0  0
  3  7  1  0  0  0  0
  4  8  1  0  0  0  0
  4  9  1  0  0  0  0
  4 10  1  0  0  0  0
M  END
$$$$
312_A_401
prProtoss 03122516423D 1   1.00000     0.00000     0
Protoss beta proteinsplus
 34 35  0  0  0  0            999 V2000
  -14.8680    1.6760  -28.3820 O   0  0  0  0  0  0  0  0  0  0  0  0
   -9.3510    2.8290  -28.5590 O   0  0  0  0  0  0  0  0  0  0  0  0
  -15.4370    4.2670  -30.6190 O   0  0  0  0  0  0  0  0  0  0  0  0
  -17.3500    4.0880  -27.9710 N   0  3  0  0  0  0  0  0  0  0  0  0
  -12.0490    3.8540  -28.9900 N   0  3  0  0  0  0  0  0  0  0  0  0
   -9.6300    4.2160  -28.3020 C   0  0  0  0  0  0  0  0  0  0  0  0
  -10.4850    1.9580  -28.7190 C   0  0  0  0  0  0  0  0  0  0  0  0
  -16.7200    3.6790  -30.3410 C   0  0  0  0  0  0  0  0  0  0  0  0
  -10.8980    4.7810  -28.9710 C   0  0  0  0  0  0  0  0  0  0  0  0
  -11.6640    2.5280  -29.5210 C   0  0  0  0  0  0  0  0  0  0  0  0
  -13.2290    4.4700  -29.6270 C   0  0  0  0  0  0  0  0  0  0  0  0
  -15.1590    3.0640  -28.6070 C   0  0  1  0  0  0  0  0  0  0  0  0
  -14.4330    3.5280  -29.8740 C   0  0  1  0  0  0  0  0  0  0  0  0
  -16.6640    3.1760  -28.8960 C   0  0  1  0  0  0  0  0  0  0  0  0
  -15.6418    1.2440  -27.9187 H   0  0  0  0  0  0  0  0  0  0  0  0
  -17.2914    3.7256  -27.0408 H   0  0  0  0  0  0  0  0  0  0  0  0
  -16.9151    4.9878  -28.0062 H   0  0  0  0  0  0  0  0  0  0  0  0
   -8.8489    4.7508  -28.6244 H   0  0  0  0  0  0  0  0  0  0  0  0
   -9.7276    4.3311  -27.3135 H   0  0  0  0  0  0  0  0  0  0  0  0
  -10.8208    1.7224  -27.8070 H   0  0  0  0  0  0  0  0  0  0  0  0
  -10.1714    1.1296  -29.1831 H   0  0  0  0  0  0  0  0  0  0  0  0
  -16.8935    2.9174  -30.9654 H   0  0  0  0  0  0  0  0  0  0  0  0
  -17.4425    4.3632  -30.4409 H   0  0  0  0  0  0  0  0  0  0  0  0
  -11.1703    5.6062  -28.4762 H   0  0  0  0  0  0  0  0  0  0  0  0
  -10.6728    5.0180  -29.9160 H   0  0  0  0  0  0  0  0  0  0  0  0
  -11.3969    2.6211  -30.4802 H   0  0  0  0  0  0  0  0  0  0  0  0
  -12.4432    1.9051  -29.4509 H   0  0  0  0  0  0  0  0  0  0  0  0
  -12.9423    4.8391  -30.5111 H   0  0  0  0  0  0  0  0  0  0  0  0
  -13.5398    5.2168  -29.0390 H   0  0  0  0  0  0  0  0  0  0  0  0
  -14.9000    3.6204  -27.8175 H   0  0  0  0  0  0  0  0  0  0  0  0
  -14.1367    2.7332  -30.4036 H   0  0  0  0  0  0  0  0  0  0  0  0
  -17.0824    2.2693  -28.8420 H   0  0  0  0  0  0  0  0  0  0  0  0
  -18.3106    4.1715  -28.2363 H   0  0  0  0  0  0  0  0  0  0  0  0
  -12.2987    3.7055  -28.0331 H   0  0  0  0  0  0  0  0  0  0  0  0
  1 12  1  0  0  0  0
  2  6  1  0  0  0  0
  2  7  1  0  0  0  0
  3  8  1  0  0  0  0
  3 13  1  0  0  0  0
  4 14  1  0  0  0  0
  5  9  1  0  0  0  0
  5 10  1  0  0  0  0
  5 11  1  0  0  0  0
  6  9  1  0  0  0  0
  7 10  1  0  0  0  0
  8 14  1  0  0  0  0
 11 13  1  0  0  0  0
 12 13  1  0  0  0  0
 12 14  1  0  0  0  0
  1 15  1  0  0  0  0
  4 16  1  0  0  0  0
  4 17  1  0  0  0  0
  6 18  1  0  0  0  0
  6 19  1  0  0  0  0
  7 20  1  0  0  0  0
  7 21  1  0  0  0  0
  8 22  1  0  0  0  0
  8 23  1  0  0  0  0
  9 24  1  0  0  0  0
  9 25  1  0  0  0  0
 10 26  1  0  0  0  0
 10 27  1  0  0  0  0
 11 28  1  0  0  0  0
 11 29  1  0  0  0  0
 12 30  1  0  0  0  0
 13 31  1  0  0  0  0
 14 32  1  0  0  0  0
  4 33  1  0  0  0  0
  5 34  1  0  0  0  0
M  CHG  2   4   1   5   1
M  END
$$$$
DMS_A_402
prProtoss 03122516423D 1   1.00000     0.00000     0
Protoss beta proteinsplus
 10  9  0  0  0  0            999 V2000
   -6.9680   18.5720   -9.6110 S   0  0  0  0  0  0  0  0  0  0  0  0
   -8.3950   19.0250   -9.4140 O   0  0  0  0  0  0  0  0  0  0  0  0
   -6.9060   17.7490  -11.2140 C   0  0  0  0  0  0  0  0  0  0  0  0
   -6.7330   17.0960   -8.5970 C   0  0  0  0  0  0  0  0  0  0  0  0
   -5.9746   17.4299  -11.3891 H   0  0  0  0  0  0  0  0  0  0  0  0
   -7.5310   16.9684  -11.2123 H   0  0  0  0  0  0  0  0  0  0  0  0
   -7.1780   18.3923  -11.9297 H   0  0  0  0  0  0  0  0  0  0  0  0
   -5.7951   16.7654   -8.7019 H   0  0  0  0  0  0  0  0  0  0  0  0
   -6.9019   17.3205   -7.6373 H   0  0  0  0  0  0  0  0  0  0  0  0
   -7.3719   16.3849   -8.8904 H   0  0  0  0  0  0  0  0  0  0  0  0
  1  2  2  0  0  0  0
  1  3  1  0  0  0  0
  1  4  1  0  0  0  0
  3  5  1  0  0  0  0
  3  6  1  0  0  0  0
  3  7  1  0  0  0  0
  4  8  1  0  0  0  0
  4  9  1  0  0  0  0
  4 10  1  0  0  0  0
M  END
$$$$
DMS_A_403
prProtoss 03122516423D 1   1.00000     0.00000     0
Protoss beta proteinsplus
 10  9  0  0  0  0            999 V2000
  -11.0400  -12.0090  -23.2110 S   0  0  0  0  0  0  0  0  0  0  0  0
  -11.8820  -11.4000  -22.1170 O   0  0  0  0  0  0  0  0  0  0  0  0
   -9.8120  -10.7630  -23.6460 C   0  0  0  0  0  0  0  0  0  0  0  0
  -12.0230  -11.9190  -24.7210 C   0  0  0  0  0  0  0  0  0  0  0  0
   -9.2220  -11.1157  -24.3723 H   0  0  0  0  0  0  0  0  0  0  0  0
  -10.2748   -9.9358  -23.9647 H   0  0  0  0  0  0  0  0  0  0  0  0
   -9.2579  -10.5462  -22.8423 H   0  0  0  0  0  0  0  0  0  0  0  0
  -11.5047  -12.3129  -25.4801 H   0  0  0  0  0  0  0  0  0  0  0  0
  -12.8729  -12.4310  -24.5965 H   0  0  0  0  0  0  0  0  0  0  0  0
  -12.2362  -10.9632  -24.9235 H   0  0  0  0  0  0  0  0  0  0  0  0
  1  2  2  0  0  0  0
  1  3  1  0  0  0  0
  1  4  1  0  0  0  0
  3  5  1  0  0  0  0
  3  6  1  0  0  0  0
  3  7  1  0  0  0  0
  4  8  1  0  0  0  0
  4  9  1  0  0  0  0
  4 10  1  0  0  0  0
M  END
$$$$
DMS_A_404
prProtoss 03122516423D 1   1.00000     0.00000     0
Protoss beta proteinsplus
 10  9  0  0  0  0            999 V2000
  -16.8840   25.0640  -33.6700 S   0  0  0  0  0  0  0  0  0  0  0  0
  -15.8130   25.5720  -34.6090 O   0  0  0  0  0  0  0  0  0  0  0  0
  -18.4040   24.8970  -34.6310 C   0  0  0  0  0  0  0  0  0  0  0  0
  -17.4030   26.4680  -32.6630 C   0  0  0  0  0  0  0  0  0  0  0  0
  -19.1372   24.5616  -34.0395 H   0  0  0  0  0  0  0  0  0  0  0  0
  -18.6601   25.7875  -35.0071 H   0  0  0  0  0  0  0  0  0  0  0  0
  -18.2563   24.2494  -35.3786 H   0  0  0  0  0  0  0  0  0  0  0  0
  -18.1145   26.1752  -32.0242 H   0  0  0  0  0  0  0  0  0  0  0  0
  -16.6190   26.8187  -32.1508 H   0  0  0  0  0  0  0  0  0  0  0  0
  -17.7632   27.1883  -33.2558 H   0  0  0  0  0  0  0  0  0  0  0  0
  1  2  2  0  0  0  0
  1  3  1  0  0  0  0
  1  4  1  0  0  0  0
  3  5  1  0  0  0  0
  3  6  1  0  0  0  0
  3  7  1  0  0  0  0
  4  8  1  0  0  0  0
  4  9  1  0  0  0  0
  4 10  1  0  0  0  0
M  END
$$$$
DMS_A_501
prProtoss 03122516423D 1   1.00000     0.00000     0
Protoss beta proteinsplus
 10  9  0  0  0  0            999 V2000
   -8.2170    5.3420   -3.1530 S   0  0  0  0  0  0  0  0  0  0  0  0
   -8.7820    6.7190   -3.3880 O   0  0  0  0  0  0  0  0  0  0  0  0
   -6.8910    5.5020   -1.9350 C   0  0  0  0  0  0  0  0  0  0  0  0
   -9.3720    4.4660   -2.0830 C   0  0  0  0  0  0  0  0  0  0  0  0
   -6.4929    4.6024   -1.7555 H   0  0  0  0  0  0  0  0  0  0  0  0
   -6.1845    6.1144   -2.2899 H   0  0  0  0  0  0  0  0  0  0  0  0
   -7.2620    5.8778   -1.0858 H   0  0  0  0  0  0  0  0  0  0  0  0
   -9.0278    3.5441   -1.9049 H   0  0  0  0  0  0  0  0  0  0  0  0
   -9.4654    4.9597   -1.2184 H   0  0  0  0  0  0  0  0  0  0  0  0
  -10.2638    4.4080   -2.5318 H   0  0  0  0  0  0  0  0  0  0  0  0
  1  2  2  0  0  0  0
  1  3  1  0  0  0  0
  1  4  1  0  0  0  0
  3  5  1  0  0  0  0
  3  6  1  0  0  0  0
  3  7  1  0  0  0  0
  4  8  1  0  0  0  0
  4  9  1  0  0  0  0
  4 10  1  0  0  0  0
M  END
$$$$
DMS_A_601
prProtoss 03122516423D 1   1.00000     0.00000     0
Protoss beta proteinsplus
 10  9  0  0  0  0            999 V2000
   -1.5730   21.7220  -16.2210 S   0  0  0  0  0  0  0  0  0  0  0  0
   -1.6880   22.2490  -14.8110 O   0  0  0  0  0  0  0  0  0  0  0  0
   -0.7430   20.1200  -16.1350 C   0  0  0  0  0  0  0  0  0  0  0  0
   -3.2150   21.1130  -16.6360 C   0  0  0  0  0  0  0  0  0  0  0  0
   -0.6509   19.7424  -17.0564 H   0  0  0  0  0  0  0  0  0  0  0  0
    0.1639   20.2358  -15.7300 H   0  0  0  0  0  0  0  0  0  0  0  0
   -1.2826   19.4949  -15.5710 H   0  0  0  0  0  0  0  0  0  0  0  0
   -3.2092   20.7463  -17.5663 H   0  0  0  0  0  0  0  0  0  0  0  0
   -3.4747   20.3910  -15.9947 H   0  0  0  0  0  0  0  0  0  0  0  0
   -3.8734   21.8634  -16.5776 H   0  0  0  0  0  0  0  0  0  0  0  0
  1  2  2  0  0  0  0
  1  3  1  0  0  0  0
  1  4  1  0  0  0  0
  3  5  1  0  0  0  0
  3  6  1  0  0  0  0
  3  7  1  0  0  0  0
  4  8  1  0  0  0  0
  4  9  1  0  0  0  0
  4 10  1  0  0  0  0
M  END
$$$$
DMS_A_801
prProtoss 03122516423D 1   1.00000     0.00000     0
Protoss beta proteinsplus
 10  9  0  0  0  0            999 V2000
  -18.7340    4.8720  -33.9170 S   0  0  0  0  0  0  0  0  0  0  0  0
  -19.5880    3.9500  -34.7530 O   0  0  0  0  0  0  0  0  0  0  0  0
  -18.7240    6.4610  -34.7730 C   0  0  0  0  0  0  0  0  0  0  0  0
  -19.7550    5.3770  -32.5170 C   0  0  0  0  0  0  0  0  0  0  0  0
  -18.1683    7.1136  -34.2579 H   0  0  0  0  0  0  0  0  0  0  0  0
  -18.3383    6.3442  -35.6882 H   0  0  0  0  0  0  0  0  0  0  0  0
  -19.6598    6.8056  -34.8471 H   0  0  0  0  0  0  0  0  0  0  0  0
  -19.2320    5.9932  -31.9281 H   0  0  0  0  0  0  0  0  0  0  0  0
  -20.5706    5.8487  -32.8522 H   0  0  0  0  0  0  0  0  0  0  0  0
  -20.0281    4.5690  -31.9950 H   0  0  0  0  0  0  0  0  0  0  0  0
  1  2  2  0  0  0  0
  1  3  1  0  0  0  0
  1  4  1  0  0  0  0
  3  5  1  0  0  0  0
  3  6  1  0  0  0  0
  3  7  1  0  0  0  0
  4  8  1  0  0  0  0
  4  9  1  0  0  0  0
  4 10  1  0  0  0  0
M  END
$$$$
DMS_A_901
prProtoss 03122516423D 1   1.00000     0.00000     0
Protoss beta proteinsplus
 10  9  0  0  0  0            999 V2000
  -32.5040   10.9040  -29.1710 S   0  0  0  0  0  0  0  0  0  0  0  0
  -31.5900   11.9520  -28.5840 O   0  0  0  0  0  0  0  0  0  0  0  0
  -31.4570    9.5020  -29.6150 C   0  0  0  0  0  0  0  0  0  0  0  0
  -32.8850   11.4340  -30.8550 C   0  0  0  0  0  0  0  0  0  0  0  0
  -32.0208    8.7771  -30.0107 H   0  0  0  0  0  0  0  0  0  0  0  0
  -30.7733    9.7950  -30.2834 H   0  0  0  0  0  0  0  0  0  0  0  0
  -30.9969    9.1573  -28.7968 H   0  0  0  0  0  0  0  0  0  0  0  0
  -33.4917   10.7658  -31.2855 H   0  0  0  0  0  0  0  0  0  0  0  0
  -33.3361   12.3261  -30.8297 H   0  0  0  0  0  0  0  0  0  0  0  0
  -32.0381   11.5036  -31.3822 H   0  0  0  0  0  0  0  0  0  0  0  0
  1  2  2  0  0  0  0
  1  3  1  0  0  0  0
  1  4  1  0  0  0  0
  3  5  1  0  0  0  0
  3  6  1  0  0  0  0
  3  7  1  0  0  0  0
  4  8  1  0  0  0  0
  4  9  1  0  0  0  0
  4 10  1  0  0  0  0
M  END
$$$$
DMS_A_1001
prProtoss 03122516423D 1   1.00000     0.00000     0
Protoss beta proteinsplus
 10  9  0  0  0  0            999 V2000
  -38.1680   14.0330  -26.8990 S   0  0  0  0  0  0  0  0  0  0  0  0
  -37.7810   15.4910  -26.9920 O   0  0  0  0  0  0  0  0  0  0  0  0
  -39.3480   13.7300  -28.2300 C   0  0  0  0  0  0  0  0  0  0  0  0
  -36.8100   13.0790  -27.6070 C   0  0  0  0  0  0  0  0  0  0  0  0
  -39.6351   12.7723  -28.2093 H   0  0  0  0  0  0  0  0  0  0  0  0
  -40.1462   14.3200  -28.1085 H   0  0  0  0  0  0  0  0  0  0  0  0
  -38.9166   13.9298  -29.1098 H   0  0  0  0  0  0  0  0  0  0  0  0
  -37.0293   12.1043  -27.5637 H   0  0  0  0  0  0  0  0  0  0  0  0
  -36.6751   13.3482  -28.5606 H   0  0  0  0  0  0  0  0  0  0  0  0
  -35.9730   13.2557  -27.0892 H   0  0  0  0  0  0  0  0  0  0  0  0
  1  2  2  0  0  0  0
  1  3  1  0  0  0  0
  1  4  1  0  0  0  0
  3  5  1  0  0  0  0
  3  6  1  0  0  0  0
  3  7  1  0  0  0  0
  4  8  1  0  0  0  0
  4  9  1  0  0  0  0
  4 10  1  0  0  0  0
M  END
$$$$
PEG_B_1
prProtoss 03122516423D 1   1.00000     0.00000     0
Protoss beta proteinsplus
 17 16  0  0  0  0            999 V2000
  -15.3770   29.7240  -37.6270 O   0  0  0  0  0  0  0  0  0  0  0  0
  -18.4390   29.2400  -33.6910 O   0  0  0  0  0  0  0  0  0  0  0  0
  -17.8690   30.5440  -36.2000 O   0  0  0  0  0  0  0  0  0  0  0  0
  -16.4180   30.5330  -38.1200 C   0  0  0  0  0  0  0  0  0  0  0  0
  -19.1750   30.3320  -34.1960 C   0  0  0  0  0  0  0  0  0  0  0  0
  -17.0180   31.3360  -36.9930 C   0  0  0  0  0  0  0  0  0  0  0  0
  -18.2760   31.2100  -35.0290 C   0  0  0  0  0  0  0  0  0  0  0  0
  -14.6699   30.3021  -37.2198 H   0  0  0  0  0  0  0  0  0  0  0  0
  -18.8253   28.9548  -32.8138 H   0  0  0  0  0  0  0  0  0  0  0  0
  -17.1240   29.9538  -38.5276 H   0  0  0  0  0  0  0  0  0  0  0  0
  -16.0551   31.1547  -38.8141 H   0  0  0  0  0  0  0  0  0  0  0  0
  -19.5457   30.8636  -33.4344 H   0  0  0  0  0  0  0  0  0  0  0  0
  -19.9260   29.9930  -34.7625 H   0  0  0  0  0  0  0  0  0  0  0  0
  -16.2811   31.6963  -36.4210 H   0  0  0  0  0  0  0  0  0  0  0  0
  -17.5434   32.0952  -37.3772 H   0  0  0  0  0  0  0  0  0  0  0  0
  -18.7717   32.0413  -35.2805 H   0  0  0  0  0  0  0  0  0  0  0  0
  -17.4677   31.4533  -34.4929 H   0  0  0  0  0  0  0  0  0  0  0  0
  1  4  1  0  0  0  0
  2  5  1  0  0  0  0
  3  6  1  0  0  0  0
  3  7  1  0  0  0  0
  4  6  1  0  0  0  0
  5  7  1  0  0  0  0
  1  8  1  0  0  0  0
  2  9  1  0  0  0  0
  4 10  1  0  0  0  0
  4 11  1  0  0  0  0
  5 12  1  0  0  0  0
  5 13  1  0  0  0  0
  6 14  1  0  0  0  0
  6 15  1  0  0  0  0
  7 16  1  0  0  0  0
  7 17  1  0  0  0  0
M  END
$$$$
PEG_B_2
prProtoss 03122516423D 1   1.00000     0.00000     0
Protoss beta proteinsplus
 17 16  0  0  0  0            999 V2000
  -31.3760   -5.6480    4.1270 O   0  0  0  0  0  0  0  0  0  0  0  0
  -29.1400   -9.6320    0.1110 O   0  0  0  0  0  0  0  0  0  0  0  0
  -29.0390   -6.3170    1.4580 O   0  0  0  0  0  0  0  0  0  0  0  0
  -30.9700   -5.7630    2.7820 C   0  0  0  0  0  0  0  0  0  0  0  0
  -28.8060   -8.2630    0.0800 C   0  0  0  0  0  0  0  0  0  0  0  0
  -29.4660   -5.8570    2.7170 C   0  0  0  0  0  0  0  0  0  0  0  0
  -29.6660   -7.5140    1.0640 C   0  0  0  0  0  0  0  0  0  0  0  0
  -32.3731   -5.5857    4.1700 H   0  0  0  0  0  0  0  0  0  0  0  0
  -28.5691  -10.1293   -0.5423 H   0  0  0  0  0  0  0  0  0  0  0  0
  -31.2761   -4.9594    2.2716 H   0  0  0  0  0  0  0  0  0  0  0  0
  -31.3730   -6.5858    2.3814 H   0  0  0  0  0  0  0  0  0  0  0  0
  -28.9610   -7.9028   -0.8399 H   0  0  0  0  0  0  0  0  0  0  0  0
  -27.8431   -8.1492    0.3247 H   0  0  0  0  0  0  0  0  0  0  0  0
  -29.0751   -4.9517    2.8833 H   0  0  0  0  0  0  0  0  0  0  0  0
  -29.1481   -6.4918    3.4212 H   0  0  0  0  0  0  0  0  0  0  0  0
  -30.5443   -7.2999    0.6366 H   0  0  0  0  0  0  0  0  0  0  0  0
  -29.8181   -8.0862    1.8699 H   0  0  0  0  0  0  0  0  0  0  0  0
  1  4  1  0  0  0  0
  2  5  1  0  0  0  0
  3  6  1  0  0  0  0
  3  7  1  0  0  0  0
  4  6  1  0  0  0  0
  5  7  1  0  0  0  0
  1  8  1  0  0  0  0
  2  9  1  0  0  0  0
  4 10  1  0  0  0  0
  4 11  1  0  0  0  0
  5 12  1  0  0  0  0
  5 13  1  0  0  0  0
  6 14  1  0  0  0  0
  6 15  1  0  0  0  0
  7 16  1  0  0  0  0
  7 17  1  0  0  0  0
M  END
$$$$
PEG_B_3
prProtoss 03122516423D 1   1.00000     0.00000     0
Protoss beta proteinsplus
 17 16  0  0  0  0            999 V2000
  -17.7660   -7.9080   -4.3860 O   0  0  0  0  0  0  0  0  0  0  0  0
  -18.5410   -7.4350   -8.6640 O   0  0  0  0  0  0  0  0  0  0  0  0
  -20.0300   -7.0560   -6.2040 O   0  0  0  0  0  0  0  0  0  0  0  0
  -19.0080   -7.3320   -4.0520 C   0  0  0  0  0  0  0  0  0  0  0  0
  -19.3510   -8.4240   -8.0650 C   0  0  0  0  0  0  0  0  0  0  0  0
  -20.0680   -7.8040   -5.0150 C   0  0  0  0  0  0  0  0  0  0  0  0
  -20.4960   -7.7840   -7.3160 C   0  0  0  0  0  0  0  0  0  0  0  0
  -17.0681   -7.5910   -3.7438 H   0  0  0  0  0  0  0  0  0  0  0  0
  -19.0896   -6.8979   -9.3048 H   0  0  0  0  0  0  0  0  0  0  0  0
  -18.9354   -6.3358   -4.1009 H   0  0  0  0  0  0  0  0  0  0  0  0
  -19.2599   -7.6026   -3.1229 H   0  0  0  0  0  0  0  0  0  0  0  0
  -18.7986   -8.9603   -7.4268 H   0  0  0  0  0  0  0  0  0  0  0  0
  -19.7170   -9.0250   -8.7755 H   0  0  0  0  0  0  0  0  0  0  0  0
  -19.9108   -8.7681   -5.2289 H   0  0  0  0  0  0  0  0  0  0  0  0
  -20.9672   -7.6991   -4.5902 H   0  0  0  0  0  0  0  0  0  0  0  0
  -20.9831   -7.1643   -7.9314 H   0  0  0  0  0  0  0  0  0  0  0  0
  -21.1200   -8.4988   -7.0003 H   0  0  0  0  0  0  0  0  0  0  0  0
  1  4  1  0  0  0  0
  2  5  1  0  0  0  0
  3  6  1  0  0  0  0
  3  7  1  0  0  0  0
  4  6  1  0  0  0  0
  5  7  1  0  0  0  0
  1  8  1  0  0  0  0
  2  9  1  0  0  0  0
  4 10  1  0  0  0  0
  4 11  1  0  0  0  0
  5 12  1  0  0  0  0
  5 13  1  0  0  0  0
  6 14  1  0  0  0  0
  6 15  1  0  0  0  0
  7 16  1  0  0  0  0
  7 17  1  0  0  0  0
M  END
$$$$
PEG_B_4
prProtoss 03122516423D 1   1.00000     0.00000     0
Protoss beta proteinsplus
 13 12  0  0  0  0            999 V2000
  -21.4200   -8.2260  -31.8100 O   0  0  0  0  0  0  0  0  0  0  0  0
  -18.8930  -10.0050  -31.9130 O   0  0  0  0  0  0  0  0  0  0  0  0
  -18.0590  -11.0160  -31.3990 C   0  0  0  0  0  0  0  0  0  0  0  0
  -21.0230   -9.2520  -32.6940 C   0  0  0  0  0  0  0  0  0  0  0  0
  -20.2650  -10.3200  -31.9460 C   0  0  0  0  0  0  0  0  0  0  0  0
  -21.9211   -7.5246  -32.3169 H   0  0  0  0  0  0  0  0  0  0  0  0
  -17.1089  -10.7043  -31.4146 H   0  0  0  0  0  0  0  0  0  0  0  0
  -18.3267  -11.2225  -30.4579 H   0  0  0  0  0  0  0  0  0  0  0  0
  -18.1490  -11.8393  -31.9594 H   0  0  0  0  0  0  0  0  0  0  0  0
  -20.4350   -8.8662  -33.4050 H   0  0  0  0  0  0  0  0  0  0  0  0
  -21.8343   -9.6568  -33.1158 H   0  0  0  0  0  0  0  0  0  0  0  0
  -20.6135  -10.3795  -31.0106 H   0  0  0  0  0  0  0  0  0  0  0  0
  -20.3917  -11.1991  -32.4055 H   0  0  0  0  0  0  0  0  0  0  0  0
  1  4  1  0  0  0  0
  2  3  1  0  0  0  0
  2  5  1  0  0  0  0
  4  5  1  0  0  0  0
  1  6  1  0  0  0  0
  3  7  1  0  0  0  0
  3  8  1  0  0  0  0
  3  9  1  0  0  0  0
  4 10  1  0  0  0  0
  4 11  1  0  0  0  0
  5 12  1  0  0  0  0
  5 13  1  0  0  0  0
M  END
$$$$
313_A_401
prProtoss 03122516423D 1   1.00000     0.00000     0
Protoss beta proteinsplus
 35 35  0  0  0  0            999 V2000
   -2.3690    9.0280  -16.9710 O   0  0  0  0  0  0  0  0  0  0  0  0
   -4.0990   11.9890  -17.8290 O   0  0  0  0  0  0  0  0  0  0  0  0
   -3.6480    8.8320  -19.6870 N   0  3  0  0  0  0  0  0  0  0  0  0
   -3.5260   12.7050  -14.7100 N   0  3  0  0  0  0  0  0  0  0  0  0
   -5.5780   14.1340  -15.2320 C   0  0  0  0  0  0  0  0  0  0  0  0
   -3.1640   13.6920  -12.4640 C   0  0  0  0  0  0  0  0  0  0  0  0
   -3.9760   11.3140  -19.1060 C   0  0  0  0  0  0  0  0  0  0  0  0
   -4.0740   13.9320  -15.3710 C   0  0  0  0  0  0  0  0  0  0  0  0
   -3.9210   12.6510  -13.2820 C   0  0  0  0  0  0  0  0  0  0  0  0
   -3.9430   11.4650  -15.4100 C   0  0  0  0  0  0  0  0  0  0  0  0
   -3.5630    9.8190  -17.2420 C   0  0  1  0  0  0  0  0  0  0  0  0
   -3.3800   11.2680  -16.8350 C   0  0  1  0  0  0  0  0  0  0  0  0
   -4.0930    9.8430  -18.7040 C   0  0  2  0  0  0  0  0  0  0  0  0
   -1.5596    9.6108  -17.0431 H   0  0  0  0  0  0  0  0  0  0  0  0
   -3.7758    7.9167  -19.3050 H   0  0  0  0  0  0  0  0  0  0  0  0
   -4.1868    8.9218  -20.5247 H   0  0  0  0  0  0  0  0  0  0  0  0
   -5.8465   14.9741  -15.7033 H   0  0  0  0  0  0  0  0  0  0  0  0
   -6.0577   13.3562  -15.6380 H   0  0  0  0  0  0  0  0  0  0  0  0
   -5.8168   14.2043  -14.2635 H   0  0  0  0  0  0  0  0  0  0  0  0
   -3.4480   13.6348  -11.5069 H   0  0  0  0  0  0  0  0  0  0  0  0
   -2.1814   13.5185  -12.5311 H   0  0  0  0  0  0  0  0  0  0  0  0
   -3.3662   14.6053  -12.8177 H   0  0  0  0  0  0  0  0  0  0  0  0
   -3.0922   11.5042  -19.5334 H   0  0  0  0  0  0  0  0  0  0  0  0
   -4.7116   11.5795  -19.7292 H   0  0  0  0  0  0  0  0  0  0  0  0
   -3.8588   13.8792  -16.3461 H   0  0  0  0  0  0  0  0  0  0  0  0
   -3.6179   14.7272  -14.9716 H   0  0  0  0  0  0  0  0  0  0  0  0
   -3.7178   11.7409  -12.9210 H   0  0  0  0  0  0  0  0  0  0  0  0
   -4.9025   12.8276  -13.2076 H   0  0  0  0  0  0  0  0  0  0  0  0
   -4.9410   11.4708  -15.4737 H   0  0  0  0  0  0  0  0  0  0  0  0
   -3.6489   10.6870  -14.8549 H   0  0  0  0  0  0  0  0  0  0  0  0
   -4.2954    9.4462  -16.6723 H   0  0  0  0  0  0  0  0  0  0  0  0
   -2.4113   11.5150  -16.8614 H   0  0  0  0  0  0  0  0  0  0  0  0
   -5.0767    9.6870  -18.6146 H   0  0  0  0  0  0  0  0  0  0  0  0
   -2.6804    8.9737  -19.8962 H   0  0  0  0  0  0  0  0  0  0  0  0
   -2.5281   12.7569  -14.7491 H   0  0  0  0  0  0  0  0  0  0  0  0
  1 11  1  0  0  0  0
  2  7  1  0  0  0  0
  2 12  1  0  0  0  0
  3 13  1  0  0  0  0
  4  8  1  0  0  0  0
  4  9  1  0  0  0  0
  4 10  1  0  0  0  0
  5  8  1  0  0  0  0
  6  9  1  0  0  0  0
  7 13  1  0  0  0  0
 10 12  1  0  0  0  0
 11 12  1  0  0  0  0
 11 13  1  0  0  0  0
  1 14  1  0  0  0  0
  3 15  1  0  0  0  0
  3 16  1  0  0  0  0
  5 17  1  0  0  0  0
  5 18  1  0  0  0  0
  5 19  1  0  0  0  0
  6 20  1  0  0  0  0
  6 21  1  0  0  0  0
  6 22  1  0  0  0  0
  7 23  1  0  0  0  0
  7 24  1  0  0  0  0
  8 25  1  0  0  0  0
  8 26  1  0  0  0  0
  9 27  1  0  0  0  0
  9 28  1  0  0  0  0
 10 29  1  0  0  0  0
 10 30  1  0  0  0  0
 11 31  1  0  0  0  0
 12 32  1  0  0  0  0
 13 33  1  0  0  0  0
  3 34  1  0  0  0  0
  4 35  1  0  0  0  0
M  CHG  2   3   1   4   1
M  END
$$$$
DMS_A_402
prProtoss 03122516423D 1   1.00000     0.00000     0
Protoss beta proteinsplus
 10  9  0  0  0  0            999 V2000
   -3.8980   25.2110  -30.6620 S   0  0  0  0  0  0  0  0  0  0  0  0
   -3.2930   24.6880  -31.9460 O   0  0  0  0  0  0  0  0  0  0  0  0
   -5.5750   24.5270  -30.5280 C   0  0  0  0  0  0  0  0  0  0  0  0
   -4.3130   26.9480  -30.9730 C   0  0  0  0  0  0  0  0  0  0  0  0
   -6.0028   24.8557  -29.6860 H   0  0  0  0  0  0  0  0  0  0  0  0
   -6.1185   24.8203  -31.3145 H   0  0  0  0  0  0  0  0  0  0  0  0
   -5.5272   23.5283  -30.5097 H   0  0  0  0  0  0  0  0  0  0  0  0
   -4.7195   27.3460  -30.1506 H   0  0  0  0  0  0  0  0  0  0  0  0
   -3.4826   27.4515  -31.2116 H   0  0  0  0  0  0  0  0  0  0  0  0
   -4.9658   27.0047  -31.7284 H   0  0  0  0  0  0  0  0  0  0  0  0
  1  2  2  0  0  0  0
  1  3  1  0  0  0  0
  1  4  1  0  0  0  0
  3  5  1  0  0  0  0
  3  6  1  0  0  0  0
  3  7  1  0  0  0  0
  4  8  1  0  0  0  0
  4  9  1  0  0  0  0
  4 10  1  0  0  0  0
M  END
$$$$
DMS_A_403
prProtoss 03122516423D 1   1.00000     0.00000     0
Protoss beta proteinsplus
 10  9  0  0  0  0            999 V2000
  -18.5840   18.0400  -39.9710 S   0  0  0  0  0  0  0  0  0  0  0  0
  -17.7010   19.2050  -39.5800 O   0  0  0  0  0  0  0  0  0  0  0  0
  -19.2290   17.3830  -38.4190 C   0  0  0  0  0  0  0  0  0  0  0  0
  -20.1430   18.7300  -40.5770 C   0  0  0  0  0  0  0  0  0  0  0  0
  -19.8257   16.6035  -38.6094 H   0  0  0  0  0  0  0  0  0  0  0  0
  -18.4687   17.0873  -37.8406 H   0  0  0  0  0  0  0  0  0  0  0  0
  -19.7500   18.0941  -37.9469 H   0  0  0  0  0  0  0  0  0  0  0  0
  -20.7546   17.9860  -40.8459 H   0  0  0  0  0  0  0  0  0  0  0  0
  -20.5726   19.2694  -39.8528 H   0  0  0  0  0  0  0  0  0  0  0  0
  -19.9634   19.3159  -41.3672 H   0  0  0  0  0  0  0  0  0  0  0  0
  1  2  2  0  0  0  0
  1  3  1  0  0  0  0
  1  4  1  0  0  0  0
  3  5  1  0  0  0  0
  3  6  1  0  0  0  0
  3  7  1  0  0  0  0
  4  8  1  0  0  0  0
  4  9  1  0  0  0  0
  4 10  1  0  0  0  0
M  END
$$$$
DMS_A_404
prProtoss 03122516423D 1   1.00000     0.00000     0
Protoss beta proteinsplus
 10  9  0  0  0  0            999 V2000
  -26.4020   15.9780   -5.7980 S   0  0  0  0  0  0  0  0  0  0  0  0
  -27.3800   14.8260   -5.6950 O   0  0  0  0  0  0  0  0  0  0  0  0
  -25.4860   16.0290   -4.2430 C   0  0  0  0  0  0  0  0  0  0  0  0
  -27.3200   17.5180   -5.5770 C   0  0  0  0  0  0  0  0  0  0  0  0
  -24.8259   16.7797   -4.2694 H   0  0  0  0  0  0  0  0  0  0  0  0
  -26.1230   16.1717   -3.4854 H   0  0  0  0  0  0  0  0  0  0  0  0
  -25.0018   15.1638   -4.1128 H   0  0  0  0  0  0  0  0  0  0  0  0
  -26.6914   18.2930   -5.6416 H   0  0  0  0  0  0  0  0  0  0  0  0
  -28.0182   17.5949   -6.2888 H   0  0  0  0  0  0  0  0  0  0  0  0
  -27.7586   17.5186   -4.6783 H   0  0  0  0  0  0  0  0  0  0  0  0
  1  2  2  0  0  0  0
  1  3  1  0  0  0  0
  1  4  1  0  0  0  0
  3  5  1  0  0  0  0
  3  6  1  0  0  0  0
  3  7  1  0  0  0  0
  4  8  1  0  0  0  0
  4  9  1  0  0  0  0
  4 10  1  0  0  0  0
M  END
$$$$
DMS_A_405
prProtoss 03122516423D 1   1.00000     0.00000     0
Protoss beta proteinsplus
 10  9  0  0  0  0            999 V2000
   -9.0700   25.2430  -15.9790 S   0  0  0  0  0  0  0  0  0  0  0  0
  -10.3450   25.3490  -15.1700 O   0  0  0  0  0  0  0  0  0  0  0  0
   -7.6940   25.2840  -14.8060 C   0  0  0  0  0  0  0  0  0  0  0  0
   -8.7810   26.8670  -16.7170 C   0  0  0  0  0  0  0  0  0  0  0  0
   -6.8294   25.2160  -15.3039 H   0  0  0  0  0  0  0  0  0  0  0  0
   -7.7174   26.1430  -14.2946 H   0  0  0  0  0  0  0  0  0  0  0  0
   -7.7743   24.5157  -14.1710 H   0  0  0  0  0  0  0  0  0  0  0  0
   -7.9436   26.8408  -17.2630 H   0  0  0  0  0  0  0  0  0  0  0  0
   -9.5539   27.1089  -17.3036 H   0  0  0  0  0  0  0  0  0  0  0  0
   -8.6856   27.5500  -15.9928 H   0  0  0  0  0  0  0  0  0  0  0  0
  1  2  2  0  0  0  0
  1  3  1  0  0  0  0
  1  4  1  0  0  0  0
  3  5  1  0  0  0  0
  3  6  1  0  0  0  0
  3  7  1  0  0  0  0
  4  8  1  0  0  0  0
  4  9  1  0  0  0  0
  4 10  1  0  0  0  0
M  END
$$$$
DMS_A_406
prProtoss 03122516423D 1   1.00000     0.00000     0
Protoss beta proteinsplus
 10  9  0  0  0  0            999 V2000
  -24.2600   20.9240  -33.4190 S   0  0  0  0  0  0  0  0  0  0  0  0
  -23.1340   20.6310  -32.4560 O   0  0  0  0  0  0  0  0  0  0  0  0
  -23.6820   22.2670  -34.4780 C   0  0  0  0  0  0  0  0  0  0  0  0
  -25.5140   21.8470  -32.5020 C   0  0  0  0  0  0  0  0  0  0  0  0
  -24.3953   22.5012  -35.1386 H   0  0  0  0  0  0  0  0  0  0  0  0
  -23.4719   23.0674  -33.9165 H   0  0  0  0  0  0  0  0  0  0  0  0
  -22.8587   21.9763  -34.9655 H   0  0  0  0  0  0  0  0  0  0  0  0
  -26.2800   22.0610  -33.1081 H   0  0  0  0  0  0  0  0  0  0  0  0
  -25.8401   21.2945  -31.7350 H   0  0  0  0  0  0  0  0  0  0  0  0
  -25.1158   22.6963  -32.1554 H   0  0  0  0  0  0  0  0  0  0  0  0
  1  2  2  0  0  0  0
  1  3  1  0  0  0  0
  1  4  1  0  0  0  0
  3  5  1  0  0  0  0
  3  6  1  0  0  0  0
  3  7  1  0  0  0  0
  4  8  1  0  0  0  0
  4  9  1  0  0  0  0
  4 10  1  0  0  0  0
M  END
$$$$
DMS_A_501
prProtoss 03122516423D 1   1.00000     0.00000     0
Protoss beta proteinsplus
 10  9  0  0  0  0            999 V2000
   15.2250   23.7690  -23.6690 S   0  0  0  0  0  0  0  0  0  0  0  0
   14.7390   24.8180  -22.6980 O   0  0  0  0  0  0  0  0  0  0  0  0
   14.2480   23.9640  -25.1770 C   0  0  0  0  0  0  0  0  0  0  0  0
   16.8220   24.3510  -24.2800 C   0  0  0  0  0  0  0  0  0  0  0  0
   14.5378   23.2854  -25.8520 H   0  0  0  0  0  0  0  0  0  0  0  0
   13.2795   23.8319  -24.9661 H   0  0  0  0  0  0  0  0  0  0  0  0
   14.3862   24.8826  -25.5473 H   0  0  0  0  0  0  0  0  0  0  0  0
   17.1912   23.6884  -24.9316 H   0  0  0  0  0  0  0  0  0  0  0  0
   16.7035   25.2342  -24.7337 H   0  0  0  0  0  0  0  0  0  0  0  0
   17.4555   24.4526  -23.5129 H   0  0  0  0  0  0  0  0  0  0  0  0
  1  2  2  0  0  0  0
  1  3  1  0  0  0  0
  1  4  1  0  0  0  0
  3  5  1  0  0  0  0
  3  6  1  0  0  0  0
  3  7  1  0  0  0  0
  4  8  1  0  0  0  0
  4  9  1  0  0  0  0
  4 10  1  0  0  0  0
M  END
$$$$
DMS_A_502
prProtoss 03122516423D 1   1.00000     0.00000     0
Protoss beta proteinsplus
 10  9  0  0  0  0            999 V2000
  -12.8680    2.0930  -19.8720 S   0  0  0  0  0  0  0  0  0  0  0  0
  -14.2590    1.7560  -19.3750 O   0  0  0  0  0  0  0  0  0  0  0  0
  -12.4840    3.7800  -19.3380 C   0  0  0  0  0  0  0  0  0  0  0  0
  -11.6550    1.2290  -18.8370 C   0  0  0  0  0  0  0  0  0  0  0  0
  -11.5684    4.0293  -19.6536 H   0  0  0  0  0  0  0  0  0  0  0  0
  -13.1540    4.4130  -19.7257 H   0  0  0  0  0  0  0  0  0  0  0  0
  -12.5175    3.8294  -18.3398 H   0  0  0  0  0  0  0  0  0  0  0  0
  -10.7318    1.4438  -19.1556 H   0  0  0  0  0  0  0  0  0  0  0  0
  -11.7569    1.5242  -17.8870 H   0  0  0  0  0  0  0  0  0  0  0  0
  -11.8075    0.2426  -18.8977 H   0  0  0  0  0  0  0  0  0  0  0  0
  1  2  2  0  0  0  0
  1  3  1  0  0  0  0
  1  4  1  0  0  0  0
  3  5  1  0  0  0  0
  3  6  1  0  0  0  0
  3  7  1  0  0  0  0
  4  8  1  0  0  0  0
  4  9  1  0  0  0  0
  4 10  1  0  0  0  0
M  END
$$$$
DMS_A_401
prProtoss 03122516423D 1   1.00000     0.00000     0
Protoss beta proteinsplus
 10  9  0  0  0  0            999 V2000
   -3.8210   25.4430  -30.3760 S   0  0  0  0  0  0  0  0  0  0  0  0
   -3.2740   24.9440  -31.6930 O   0  0  0  0  0  0  0  0  0  0  0  0
   -5.5430   24.8390  -30.2210 C   0  0  0  0  0  0  0  0  0  0  0  0
   -4.2340   27.2050  -30.6230 C   0  0  0  0  0  0  0  0  0  0  0  0
   -5.9307   25.1557  -29.3553 H   0  0  0  0  0  0  0  0  0  0  0  0
   -6.0897   25.1922  -30.9802 H   0  0  0  0  0  0  0  0  0  0  0  0
   -5.5488   23.8393  -30.2429 H   0  0  0  0  0  0  0  0  0  0  0  0
   -4.6024   27.5832  -29.7738 H   0  0  0  0  0  0  0  0  0  0  0  0
   -3.4091   27.7077  -30.8815 H   0  0  0  0  0  0  0  0  0  0  0  0
   -4.9166   27.2888  -31.3490 H   0  0  0  0  0  0  0  0  0  0  0  0
  1  2  2  0  0  0  0
  1  3  1  0  0  0  0
  1  4  1  0  0  0  0
  3  5  1  0  0  0  0
  3  6  1  0  0  0  0
  3  7  1  0  0  0  0
  4  8  1  0  0  0  0
  4  9  1  0  0  0  0
  4 10  1  0  0  0  0
M  END
$$$$
DMS_A_402
prProtoss 03122516423D 1   1.00000     0.00000     0
Protoss beta proteinsplus
 10  9  0  0  0  0            999 V2000
   -4.1100    8.7730   -8.8640 S   0  0  0  0  0  0  0  0  0  0  0  0
   -5.5330    8.3560   -8.4360 O   0  0  0  0  0  0  0  0  0  0  0  0
   -4.3010    9.7680  -10.3800 C   0  0  0  0  0  0  0  0  0  0  0  0
   -3.2080    7.3510   -9.5460 C   0  0  0  0  0  0  0  0  0  0  0  0
   -3.4011   10.0645  -10.6997 H   0  0  0  0  0  0  0  0  0  0  0  0
   -4.7410    9.2156  -11.0880 H   0  0  0  0  0  0  0  0  0  0  0  0
   -4.8657   10.5696  -10.1837 H   0  0  0  0  0  0  0  0  0  0  0  0
   -2.2895    7.6381   -9.8179 H   0  0  0  0  0  0  0  0  0  0  0  0
   -3.1414    6.6344   -8.8517 H   0  0  0  0  0  0  0  0  0  0  0  0
   -3.6966    6.9978  -10.3438 H   0  0  0  0  0  0  0  0  0  0  0  0
  1  2  2  0  0  0  0
  1  3  1  0  0  0  0
  1  4  1  0  0  0  0
  3  5  1  0  0  0  0
  3  6  1  0  0  0  0
  3  7  1  0  0  0  0
  4  8  1  0  0  0  0
  4  9  1  0  0  0  0
  4 10  1  0  0  0  0
M  END
$$$$
DMS_A_404
prProtoss 03122516423D 1   1.00000     0.00000     0
Protoss beta proteinsplus
 10  9  0  0  0  0            999 V2000
  -18.9650   18.1460  -39.9040 S   0  0  0  0  0  0  0  0  0  0  0  0
  -17.8150   19.1330  -39.8860 O   0  0  0  0  0  0  0  0  0  0  0  0
  -20.5240   19.0680  -39.8900 C   0  0  0  0  0  0  0  0  0  0  0  0
  -19.0240   17.5440  -38.2030 C   0  0  0  0  0  0  0  0  0  0  0  0
  -21.2909   18.4263  -39.9017 H   0  0  0  0  0  0  0  0  0  0  0  0
  -20.5718   19.6295  -39.0639 H   0  0  0  0  0  0  0  0  0  0  0  0
  -20.5700   19.6572  -40.6967 H   0  0  0  0  0  0  0  0  0  0  0  0
  -19.7628   16.8764  -38.1111 H   0  0  0  0  0  0  0  0  0  0  0  0
  -18.1527   17.1108  -37.9723 H   0  0  0  0  0  0  0  0  0  0  0  0
  -19.1891   18.3113  -37.5834 H   0  0  0  0  0  0  0  0  0  0  0  0
  1  2  2  0  0  0  0
  1  3  1  0  0  0  0
  1  4  1  0  0  0  0
  3  5  1  0  0  0  0
  3  6  1  0  0  0  0
  3  7  1  0  0  0  0
  4  8  1  0  0  0  0
  4  9  1  0  0  0  0
  4 10  1  0  0  0  0
M  END
$$$$
322_A_501
prProtoss 03122516423D 1   1.00000     0.00000     0
Protoss beta proteinsplus
 42 43  0  0  0  0            999 V2000
   -2.0310    9.5280  -16.8420 O   0  0  0  0  0  0  0  0  0  0  0  0
   -4.4170   11.9330  -17.7330 O   0  0  0  0  0  0  0  0  0  0  0  0
   -3.8620    8.9350  -19.5710 N   0  3  0  0  0  0  0  0  0  0  0  0
   -3.7220   12.8270  -14.6400 N   0  3  0  0  0  0  0  0  0  0  0  0
   -4.6530   13.8190  -15.2070 C   0  0  0  0  0  0  0  0  0  0  0  0
   -4.1690   11.3750  -19.0880 C   0  0  0  0  0  0  0  0  0  0  0  0
   -4.0310   12.5500  -13.2020 C   0  0  0  0  0  0  0  0  0  0  0  0
   -3.7930   11.5030  -15.3240 C   0  0  0  0  0  0  0  0  0  0  0  0
   -3.9930   12.8360   -8.0850 C   0  0  0  0  0  0  0  0  0  0  0  0
   -5.0220   13.4450   -8.7060 C   0  0  0  0  0  0  0  0  0  0  0  0
   -2.8670   12.5090   -8.7790 C   0  0  0  0  0  0  0  0  0  0  0  0
   -3.5770   13.6960  -12.2720 C   0  0  0  0  0  0  0  0  0  0  0  0
   -4.8780   13.7040  -10.0520 C   0  0  0  0  0  0  0  0  0  0  0  0
   -2.7280   12.7920  -10.1010 C   0  0  0  0  0  0  0  0  0  0  0  0
   -3.3080    9.9890  -17.3140 C   0  0  1  0  0  0  0  0  0  0  0  0
   -3.3850   11.4360  -16.8330 C   0  0  1  0  0  0  0  0  0  0  0  0
   -3.3080   10.1120  -18.8750 C   0  0  1  0  0  0  0  0  0  0  0  0
   -3.7480   13.3920  -10.7690 C   0  0  0  0  0  0  0  0  0  0  0  0
   -2.0006    9.5940  -15.8446 H   0  0  0  0  0  0  0  0  0  0  0  0
   -3.2743    8.1429  -19.4059 H   0  0  0  0  0  0  0  0  0  0  0  0
   -4.7812    8.7457  -19.2258 H   0  0  0  0  0  0  0  0  0  0  0  0
   -4.4220   13.9829  -16.1661 H   0  0  0  0  0  0  0  0  0  0  0  0
   -5.5888   13.4720  -15.1441 H   0  0  0  0  0  0  0  0  0  0  0  0
   -4.5799   14.6752  -14.6955 H   0  0  0  0  0  0  0  0  0  0  0  0
   -3.6789   12.0387  -19.6530 H   0  0  0  0  0  0  0  0  0  0  0  0
   -5.0339   11.1359  -19.5292 H   0  0  0  0  0  0  0  0  0  0  0  0
   -3.5626   11.7098  -12.9288 H   0  0  0  0  0  0  0  0  0  0  0  0
   -5.0186   12.4282  -13.1033 H   0  0  0  0  0  0  0  0  0  0  0  0
   -4.7381   11.1832  -15.2565 H   0  0  0  0  0  0  0  0  0  0  0  0
   -3.1930   10.8775  -14.8252 H   0  0  0  0  0  0  0  0  0  0  0  0
   -4.0560   12.6230   -7.1100 H   0  0  0  0  0  0  0  0  0  0  0  0
   -5.8538   13.6980   -8.2119 H   0  0  0  0  0  0  0  0  0  0  0  0
   -2.1201   12.0467   -8.3011 H   0  0  0  0  0  0  0  0  0  0  0  0
   -4.1148   14.5101  -12.4910 H   0  0  0  0  0  0  0  0  0  0  0  0
   -2.6096   13.8785  -12.4475 H   0  0  0  0  0  0  0  0  0  0  0  0
   -5.6370   14.1428  -10.5330 H   0  0  0  0  0  0  0  0  0  0  0  0
   -1.8808   12.5602  -10.5790 H   0  0  0  0  0  0  0  0  0  0  0  0
   -4.0656    9.4318  -16.9740 H   0  0  0  0  0  0  0  0  0  0  0  0
   -2.5182   11.9097  -16.9889 H   0  0  0  0  0  0  0  0  0  0  0  0
   -2.3770   10.2836  -19.1971 H   0  0  0  0  0  0  0  0  0  0  0  0
   -3.9060    9.1186  -20.5530 H   0  0  0  0  0  0  0  0  0  0  0  0
   -2.7888   13.1796  -14.7100 H   0  0  0  0  0  0  0  0  0  0  0  0
  1 15  1  0  0  0  0
  2  6  1  0  0  0  0
  2 16  1  0  0  0  0
  3 17  1  0  0  0  0
  4  5  1  0  0  0  0
  4  7  1  0  0  0  0
  4  8  1  0  0  0  0
  6 17  1  0  0  0  0
  7 12  1  0  0  0  0
  8 16  1  0  0  0  0
  9 10  2  0  0  0  0
  9 11  1  0  0  0  0
 10 13  1  0  0  0  0
 11 14  2  0  0  0  0
 12 18  1  0  0  0  0
 13 18  2  0  0  0  0
 14 18  1  0  0  0  0
 15 16  1  0  0  0  0
 15 17  1  0  0  0  0
  1 19  1  0  0  0  0
  3 20  1  0  0  0  0
  3 21  1  0  0  0  0
  5 22  1  0  0  0  0
  5 23  1  0  0  0  0
  5 24  1  0  0  0  0
  6 25  1  0  0  0  0
  6 26  1  0  0  0  0
  7 27  1  0  0  0  0
  7 28  1  0  0  0  0
  8 29  1  0  0  0  0
  8 30  1  0  0  0  0
  9 31  1  0  0  0  0
 10 32  1  0  0  0  0
 11 33  1  0  0  0  0
 12 34  1  0  0  0  0
 12 35  1  0  0  0  0
 13 36  1  0  0  0  0
 14 37  1  0  0  0  0
 15 38  1  0  0  0  0
 16 39  1  0  0  0  0
 17 40  1  0  0  0  0
  3 41  1  0  0  0  0
  4 42  1  0  0  0  0
M  CHG  2   3   1   4   1
M  END
$$$$
DMS_A_601
prProtoss 03122516423D 1   1.00000     0.00000     0
Protoss beta proteinsplus
 10  9  0  0  0  0            999 V2000
  -15.0270  -12.0410  -25.8980 S   0  0  0  0  0  0  0  0  0  0  0  0
  -14.1800  -11.3610  -26.9470 O   0  0  0  0  0  0  0  0  0  0  0  0
  -14.1870  -11.8850  -24.2920 C   0  0  0  0  0  0  0  0  0  0  0  0
  -16.5960  -11.1790  -25.5800 C   0  0  0  0  0  0  0  0  0  0  0  0
  -14.7352  -12.3308  -23.5844 H   0  0  0  0  0  0  0  0  0  0  0  0
  -13.2886  -12.3214  -24.3419 H   0  0  0  0  0  0  0  0  0  0  0  0
  -14.0754  -10.9171  -24.0668 H   0  0  0  0  0  0  0  0  0  0  0  0
  -17.1118  -11.6730  -24.8800 H   0  0  0  0  0  0  0  0  0  0  0  0
  -16.4074  -10.2500  -25.2616 H   0  0  0  0  0  0  0  0  0  0  0  0
  -17.1318  -11.1400  -26.4235 H   0  0  0  0  0  0  0  0  0  0  0  0
  1  2  2  0  0  0  0
  1  3  1  0  0  0  0
  1  4  1  0  0  0  0
  3  5  1  0  0  0  0
  3  6  1  0  0  0  0
  3  7  1  0  0  0  0
  4  8  1  0  0  0  0
  4  9  1  0  0  0  0
  4 10  1  0  0  0  0
M  END
$$$$
