5N1N_8G8_A_402
prProtoss 03132510063D 1   1.00000     0.00000     0
Protoss beta proteinsplus
 16 17  0  0  0  0            999 V2000
   -4.6620   36.8100  -15.0340 Cl  0  0  0  0  0  0  0  0  0  0  0  0
   -6.1360   38.7630  -14.2190 N   0  0  0  0  0  0  0  0  0  0  0  0
   -6.2780   40.3260  -10.7820 N   0  0  0  0  0  0  0  0  0  0  0  0
   -4.6160   37.7800  -12.6560 N   0  0  0  0  0  0  0  0  0  0  0  0
   -4.6310   38.8300  -10.4750 N   0  0  0  0  0  0  0  0  0  0  0  0
   -3.5120   38.1020   -9.8400 C   0  0  0  0  0  0  0  0  0  0  0  0
   -5.4020   39.8280   -9.9450 C   0  0  0  0  0  0  0  0  0  0  0  0
   -6.5590   39.5870  -13.2530 C   0  0  0  0  0  0  0  0  0  0  0  0
   -5.2010   37.9190  -13.8280 C   0  0  0  0  0  0  0  0  0  0  0  0
   -5.0710   38.6630  -11.7690 C   0  0  0  0  0  0  0  0  0  0  0  0
   -6.0740   39.6090  -11.9580 C   0  0  0  0  0  0  0  0  0  0  0  0
   -3.1460   37.4280  -10.4817 H   0  0  0  0  0  0  0  0  0  0  0  0
   -2.7922   38.7496   -9.5901 H   0  0  0  0  0  0  0  0  0  0  0  0
   -3.8409   37.6359   -9.0187 H   0  0  0  0  0  0  0  0  0  0  0  0
   -5.3055   40.1487   -9.0028 H   0  0  0  0  0  0  0  0  0  0  0  0
   -7.2820   40.2374  -13.4857 H   0  0  0  0  0  0  0  0  0  0  0  0
  1  9  1  0  0  0  0
  2  8  2  0  0  0  0
  2  9  1  0  0  0  0
  3  7  2  0  0  0  0
  3 11  1  0  0  0  0
  4  9  2  0  0  0  0
  4 10  1  0  0  0  0
  5  6  1  0  0  0  0
  5  7  1  0  0  0  0
  5 10  1  0  0  0  0
  8 11  1  0  0  0  0
 10 11  2  0  0  0  0
  6 12  1  0  0  0  0
  6 13  1  0  0  0  0
  6 14  1  0  0  0  0
  7 15  1  0  0  0  0
  8 16  1  0  0  0  0
M  END
$$$$
3NX8_IPH_A_351
prProtoss 05262315523D 1   1.00000     0.00000     0
Protoss beta proteinsplus
 13 13  0  0  0  0            999 V2000
   33.6560   10.3400   -3.9460 O   0  0  0  0  0  0  0  0  0  0  0  0
   29.6170    9.9420   -3.0910 C   0  0  0  0  0  0  0  0  0  0  0  0
   30.5450    9.9530   -2.0370 C   0  0  0  0  0  0  0  0  0  0  0  0
   30.0400    9.9730   -4.4170 C   0  0  0  0  0  0  0  0  0  0  0  0
   31.9050   10.0780   -2.3220 C   0  0  0  0  0  0  0  0  0  0  0  0
   31.4060   10.0340   -4.7120 C   0  0  0  0  0  0  0  0  0  0  0  0
   32.3200   10.1450   -3.6570 C   0  0  0  0  0  0  0  0  0  0  0  0
   34.3198   10.4323   -3.2038 H   0  0  0  0  0  0  0  0  0  0  0  0
   28.6387    9.9115   -2.8862 H   0  0  0  0  0  0  0  0  0  0  0  0
   30.2336    9.8719   -1.0902 H   0  0  0  0  0  0  0  0  0  0  0  0
   29.3683    9.9517   -5.1575 H   0  0  0  0  0  0  0  0  0  0  0  0
   32.5754   10.1192   -1.5812 H   0  0  0  0  0  0  0  0  0  0  0  0
   31.7241    9.9990   -5.6594 H   0  0  0  0  0  0  0  0  0  0  0  0
  1  7  1  0  0  0  0
  2  3  2  0  0  0  0
  2  4  1  0  0  0  0
  3  5  1  0  0  0  0
  4  6  2  0  0  0  0
  5  7  2  0  0  0  0
  6  7  1  0  0  0  0
  1  8  1  0  0  0  0
  2  9  1  0  0  0  0
  3 10  1  0  0  0  0
  4 11  1  0  0  0  0
  5 12  1  0  0  0  0
  6 13  1  0  0  0  0
M  END
$$$$
3NX8_IPH_A_352
prProtoss 05262315523D 1   1.00000     0.00000     0
Protoss beta proteinsplus
 13 13  0  0  0  0            999 V2000
   26.9270    8.8690   -5.9450 O   0  0  0  0  0  0  0  0  0  0  0  0
   25.4670    8.7820   -2.0550 C   0  0  0  0  0  0  0  0  0  0  0  0
   25.7700    7.5840   -2.7070 C   0  0  0  0  0  0  0  0  0  0  0  0
   25.6380   10.0150   -2.6910 C   0  0  0  0  0  0  0  0  0  0  0  0
   26.2560    7.6090   -4.0150 C   0  0  0  0  0  0  0  0  0  0  0  0
   26.1010   10.0440   -4.0080 C   0  0  0  0  0  0  0  0  0  0  0  0
   26.4240    8.8430   -4.6510 C   0  0  0  0  0  0  0  0  0  0  0  0
   27.1627    8.0141   -6.4071 H   0  0  0  0  0  0  0  0  0  0  0  0
   25.1217    8.7569   -1.1168 H   0  0  0  0  0  0  0  0  0  0  0  0
   25.6390    6.7108   -2.2376 H   0  0  0  0  0  0  0  0  0  0  0  0
   25.4312   10.8662   -2.2085 H   0  0  0  0  0  0  0  0  0  0  0  0
   26.4805    6.7580   -4.4898 H   0  0  0  0  0  0  0  0  0  0  0  0
   26.2011   10.9155   -4.4880 H   0  0  0  0  0  0  0  0  0  0  0  0
  1  7  1  0  0  0  0
  2  3  2  0  0  0  0
  2  4  1  0  0  0  0
  3  5  1  0  0  0  0
  4  6  2  0  0  0  0
  5  7  2  0  0  0  0
  6  7  1  0  0  0  0
  1  8  1  0  0  0  0
  2  9  1  0  0  0  0
  3 10  1  0  0  0  0
  4 11  1  0  0  0  0
  5 12  1  0  0  0  0
  6 13  1  0  0  0  0
M  END
$$$$
3NX8_IPH_A_353
prProtoss 05262315523D 1   1.00000     0.00000     0
Protoss beta proteinsplus
 13 13  0  0  0  0            999 V2000
   30.4820   27.8320   -3.1000 O   0  0  0  0  0  0  0  0  0  0  0  0
   31.4170   23.7880   -3.4660 C   0  0  0  0  0  0  0  0  0  0  0  0
   30.0810   24.1860   -3.5410 C   0  0  0  0  0  0  0  0  0  0  0  0
   32.4450   24.7240   -3.2990 C   0  0  0  0  0  0  0  0  0  0  0  0
   29.7720   25.5470   -3.4210 C   0  0  0  0  0  0  0  0  0  0  0  0
   32.1270   26.0730   -3.1370 C   0  0  0  0  0  0  0  0  0  0  0  0
   30.7950   26.4830   -3.2340 C   0  0  0  0  0  0  0  0  0  0  0  0
   31.2108   28.5035   -2.9662 H   0  0  0  0  0  0  0  0  0  0  0  0
   31.6441   22.8164   -3.5328 H   0  0  0  0  0  0  0  0  0  0  0  0
   29.3565   23.5106   -3.6781 H   0  0  0  0  0  0  0  0  0  0  0  0
   33.4001   24.4278   -3.2959 H   0  0  0  0  0  0  0  0  0  0  0  0
   28.8201   25.8497   -3.4690 H   0  0  0  0  0  0  0  0  0  0  0  0
   32.8475   26.7416   -2.9528 H   0  0  0  0  0  0  0  0  0  0  0  0
  1  7  1  0  0  0  0
  2  3  2  0  0  0  0
  2  4  1  0  0  0  0
  3  5  1  0  0  0  0
  4  6  2  0  0  0  0
  5  7  2  0  0  0  0
  6  7  1  0  0  0  0
  1  8  1  0  0  0  0
  2  9  1  0  0  0  0
  3 10  1  0  0  0  0
  4 11  1  0  0  0  0
  5 12  1  0  0  0  0
  6 13  1  0  0  0  0
M  END
$$$$
6Z44_IPH_A_401
prProtoss 08182323053D 1   1.00000     0.00000     0
Protoss beta proteinsplus
 13 13  0  0  0  0            999 V2000
   17.2380    3.3420   20.5700 O   0  0  0  0  0  0  0  0  0  0  0  0
   13.3730    3.7830   19.1880 C   0  0  0  0  0  0  0  0  0  0  0  0
   13.8900    2.5050   19.4370 C   0  0  0  0  0  0  0  0  0  0  0  0
   14.1590    4.9210   19.3970 C   0  0  0  0  0  0  0  0  0  0  0  0
   15.1940    2.3560   19.9080 C   0  0  0  0  0  0  0  0  0  0  0  0
   15.4720    4.7860   19.8510 C   0  0  0  0  0  0  0  0  0  0  0  0
   15.9690    3.5010   20.1110 C   0  0  0  0  0  0  0  0  0  0  0  0
   17.8175    4.1421   20.7253 H   0  0  0  0  0  0  0  0  0  0  0  0
   12.4342    3.8825   18.8581 H   0  0  0  0  0  0  0  0  0  0  0  0
   13.3224    1.6975   19.2765 H   0  0  0  0  0  0  0  0  0  0  0  0
   13.7808    5.8299   19.2214 H   0  0  0  0  0  0  0  0  0  0  0  0
   15.5672    1.4477   20.0968 H   0  0  0  0  0  0  0  0  0  0  0  0
   16.0481    5.5917   19.9884 H   0  0  0  0  0  0  0  0  0  0  0  0
  1  7  1  0  0  0  0
  2  3  2  0  0  0  0
  2  4  1  0  0  0  0
  3  5  1  0  0  0  0
  4  6  2  0  0  0  0
  5  7  2  0  0  0  0
  6  7  1  0  0  0  0
  1  8  1  0  0  0  0
  2  9  1  0  0  0  0
  3 10  1  0  0  0  0
  4 11  1  0  0  0  0
  5 12  1  0  0  0  0
  6 13  1  0  0  0  0
M  END
$$$$
6Z44_DMS_A_402
prProtoss 08182323053D 1   1.00000     0.00000     0
Protoss beta proteinsplus
 10  9  0  0  0  0            999 V2000
   26.5570   15.3990    5.8140 S   0  0  0  0  0  0  0  0  0  0  0  0
   25.5280   15.5730    4.7420 O   0  0  0  0  0  0  0  0  0  0  0  0
   27.7370   14.1250    5.3000 C   0  0  0  0  0  0  0  0  0  0  0  0
   27.6640   16.8360    5.7730 C   0  0  0  0  0  0  0  0  0  0  0  0
   28.4280   14.0037    6.0126 H   0  0  0  0  0  0  0  0  0  0  0  0
   27.2533   13.2620    5.1543 H   0  0  0  0  0  0  0  0  0  0  0  0
   28.1813   14.4059    4.4493 H   0  0  0  0  0  0  0  0  0  0  0  0
   28.3613   16.7400    6.4833 H   0  0  0  0  0  0  0  0  0  0  0  0
   28.1057   16.8910    4.8775 H   0  0  0  0  0  0  0  0  0  0  0  0
   27.1351   17.6690    5.9355 H   0  0  0  0  0  0  0  0  0  0  0  0
  1  2  2  0  0  0  0
  1  3  1  0  0  0  0
  1  4  1  0  0  0  0
  3  5  1  0  0  0  0
  3  6  1  0  0  0  0
  3  7  1  0  0  0  0
  4  8  1  0  0  0  0
  4  9  1  0  0  0  0
  4 10  1  0  0  0  0
M  END
$$$$
6Z44_DMS_A_403
prProtoss 08182323053D 1   1.00000     0.00000     0
Protoss beta proteinsplus
 10  9  0  0  0  0            999 V2000
   -6.1440   11.0260   19.5230 S   0  0  0  0  0  0  0  0  0  0  0  0
   -5.4040    9.7320   19.4220 O   0  0  0  0  0  0  0  0  0  0  0  0
   -7.9290   10.7060   19.4880 C   0  0  0  0  0  0  0  0  0  0  0  0
   -5.9720   11.6750   21.2070 C   0  0  0  0  0  0  0  0  0  0  0  0
   -8.4243   11.5721   19.5556 H   0  0  0  0  0  0  0  0  0  0  0  0
   -8.1693   10.2506   18.6307 H   0  0  0  0  0  0  0  0  0  0  0  0
   -8.1776   10.1189   20.2584 H   0  0  0  0  0  0  0  0  0  0  0  0
   -6.4651   12.5417   21.2822 H   0  0  0  0  0  0  0  0  0  0  0  0
   -6.3519   11.0178   21.8579 H   0  0  0  0  0  0  0  0  0  0  0  0
   -5.0041   11.8235   21.4098 H   0  0  0  0  0  0  0  0  0  0  0  0
  1  2  2  0  0  0  0
  1  3  1  0  0  0  0
  1  4  1  0  0  0  0
  3  5  1  0  0  0  0
  3  6  1  0  0  0  0
  3  7  1  0  0  0  0
  4  8  1  0  0  0  0
  4  9  1  0  0  0  0
  4 10  1  0  0  0  0
M  END
$$$$
6Z44_DMS_A_404
prProtoss 08182323053D 1   1.00000     0.00000     0
Protoss beta proteinsplus
 10  9  0  0  0  0            999 V2000
   23.8840   20.8670   32.5390 S   0  0  0  0  0  0  0  0  0  0  0  0
   22.7180   20.6460   31.6310 O   0  0  0  0  0  0  0  0  0  0  0  0
   23.3870   21.8470   33.9820 C   0  0  0  0  0  0  0  0  0  0  0  0
   24.4460   19.3130   33.2870 C   0  0  0  0  0  0  0  0  0  0  0  0
   24.1773   21.9859   34.5788 H   0  0  0  0  0  0  0  0  0  0  0  0
   23.0384   22.7338   33.6786 H   0  0  0  0  0  0  0  0  0  0  0  0
   22.6713   21.3616   34.4841 H   0  0  0  0  0  0  0  0  0  0  0  0
   25.2249   19.4945   33.8872 H   0  0  0  0  0  0  0  0  0  0  0  0
   23.7013   18.9110   33.8197 H   0  0  0  0  0  0  0  0  0  0  0  0
   24.7216   18.6768   32.5664 H   0  0  0  0  0  0  0  0  0  0  0  0
  1  2  2  0  0  0  0
  1  3  1  0  0  0  0
  1  4  1  0  0  0  0
  3  5  1  0  0  0  0
  3  6  1  0  0  0  0
  3  7  1  0  0  0  0
  4  8  1  0  0  0  0
  4  9  1  0  0  0  0
  4 10  1  0  0  0  0
M  END
$$$$
6Z44_MRD_A_405
prProtoss 08182323053D 1   1.00000     0.00000     0
Protoss beta proteinsplus
 22 21  0  0  0  0            999 V2000
   16.3260   18.1620   37.0600 O   0  0  0  0  0  0  0  0  0  0  0  0
   18.2040   18.1850   40.7080 O   0  0  0  0  0  0  0  0  0  0  0  0
   16.9550   19.7050   38.7990 C   0  0  0  0  0  0  0  0  0  0  0  0
   19.4730   16.3010   40.0260 C   0  0  0  0  0  0  0  0  0  0  0  0
   20.3110   18.6310   39.6660 C   0  0  0  0  0  0  0  0  0  0  0  0
   18.4150   17.7490   38.2760 C   0  0  0  0  0  0  0  0  0  0  0  0
   16.9720   18.2660   38.3370 C   0  0  2  0  0  0  0  0  0  0  0  0
   19.0900   17.7260   39.6680 C   0  0  0  0  0  0  0  0  0  0  0  0
   16.3386   17.2092   36.7567 H   0  0  0  0  0  0  0  0  0  0  0  0
   18.7388   18.6126   41.4368 H   0  0  0  0  0  0  0  0  0  0  0  0
   17.4057   19.7747   39.6890 H   0  0  0  0  0  0  0  0  0  0  0  0
   17.4394   20.2742   38.1346 H   0  0  0  0  0  0  0  0  0  0  0  0
   16.0087   20.0182   38.8791 H   0  0  0  0  0  0  0  0  0  0  0  0
   20.0911   15.9369   39.3293 H   0  0  0  0  0  0  0  0  0  0  0  0
   19.9306   16.2922   40.9151 H   0  0  0  0  0  0  0  0  0  0  0  0
   18.6495   15.7354   40.0694 H   0  0  0  0  0  0  0  0  0  0  0  0
   20.9447   18.3343   38.9516 H   0  0  0  0  0  0  0  0  0  0  0  0
   20.0271   19.5734   39.4893 H   0  0  0  0  0  0  0  0  0  0  0  0
   20.7646   18.5807   40.5558 H   0  0  0  0  0  0  0  0  0  0  0  0
   18.9446   18.3442   37.6716 H   0  0  0  0  0  0  0  0  0  0  0  0
   18.4083   16.8198   37.9065 H   0  0  0  0  0  0  0  0  0  0  0  0
   16.4633   17.7134   38.9972 H   0  0  0  0  0  0  0  0  0  0  0  0
  1  7  1  0  0  0  0
  2  8  1  0  0  0  0
  3  7  1  0  0  0  0
  4  8  1  0  0  0  0
  5  8  1  0  0  0  0
  6  7  1  0  0  0  0
  6  8  1  0  0  0  0
  1  9  1  0  0  0  0
  2 10  1  0  0  0  0
  3 11  1  0  0  0  0
  3 12  1  0  0  0  0
  3 13  1  0  0  0  0
  4 14  1  0  0  0  0
  4 15  1  0  0  0  0
  4 16  1  0  0  0  0
  5 17  1  0  0  0  0
  5 18  1  0  0  0  0
  5 19  1  0  0  0  0
  6 20  1  0  0  0  0
  6 21  1  0  0  0  0
  7 22  1  0  0  0  0
M  END
$$$$
5N3G_8KB_A_401
prProtoss 03132510033D 1   1.00000     0.00000     0
Protoss beta proteinsplus
 20 20  0  0  0  0            999 V2000
  -20.1680   10.1060  -31.5150 O   0  0  0  0  0  0  0  0  0  0  0  0
  -23.3310    9.2030  -32.0100 O   0  0  0  0  0  0  0  0  0  0  0  0
  -21.7130    8.9090  -29.4860 N   0  3  0  0  0  0  0  0  0  0  0  0
  -22.8250    7.9780  -31.4940 C   0  0  0  0  0  0  0  0  0  0  0  0
  -22.3800   10.1830  -32.4270 C   0  0  0  0  0  0  0  0  0  0  0  0
  -22.7190    7.9840  -29.9900 C   0  0  0  0  0  0  0  0  0  0  0  0
  -21.8480   10.3120  -29.8760 C   0  0  0  0  0  0  0  0  0  0  0  0
  -21.4650   10.6840  -31.3350 C   0  0  1  0  0  0  0  0  0  0  0  0
  -19.5548   10.4325  -30.7957 H   0  0  0  0  0  0  0  0  0  0  0  0
  -20.8216    8.5905  -29.8083 H   0  0  0  0  0  0  0  0  0  0  0  0
  -21.9157    7.8193  -31.8788 H   0  0  0  0  0  0  0  0  0  0  0  0
  -23.4374    7.2369  -31.7692 H   0  0  0  0  0  0  0  0  0  0  0  0
  -22.8814   10.9656  -32.7958 H   0  0  0  0  0  0  0  0  0  0  0  0
  -21.8140    9.7806  -33.1466 H   0  0  0  0  0  0  0  0  0  0  0  0
  -23.6070    8.2435  -29.6104 H   0  0  0  0  0  0  0  0  0  0  0  0
  -22.4828    7.0614  -29.6850 H   0  0  0  0  0  0  0  0  0  0  0  0
  -21.2672   10.8509  -29.2659 H   0  0  0  0  0  0  0  0  0  0  0  0
  -22.8044   10.5710  -29.7408 H   0  0  0  0  0  0  0  0  0  0  0  0
  -21.3893   11.6786  -31.4066 H   0  0  0  0  0  0  0  0  0  0  0  0
  -21.7399    8.8694  -28.4871 H   0  0  0  0  0  0  0  0  0  0  0  0
  1  8  1  0  0  0  0
  2  4  1  0  0  0  0
  2  5  1  0  0  0  0
  3  6  1  0  0  0  0
  3  7  1  0  0  0  0
  4  6  1  0  0  0  0
  5  8  1  0  0  0  0
  7  8  1  0  0  0  0
  1  9  1  0  0  0  0
  3 10  1  0  0  0  0
  4 11  1  0  0  0  0
  4 12  1  0  0  0  0
  5 13  1  0  0  0  0
  5 14  1  0  0  0  0
  6 15  1  0  0  0  0
  6 16  1  0  0  0  0
  7 17  1  0  0  0  0
  7 18  1  0  0  0  0
  8 19  1  0  0  0  0
  3 20  1  0  0  0  0
M  CHG  1   3   1
M  END
$$$$
5N3G_8KB_A_402
prProtoss 03132510033D 1   1.00000     0.00000     0
Protoss beta proteinsplus
 20 20  0  0  0  0            999 V2000
  -26.8210   24.6600  -34.8920 O   0  0  0  0  0  0  0  0  0  0  0  0
  -27.6650   21.9220  -35.4010 O   0  0  0  0  0  0  0  0  0  0  0  0
  -26.2700   22.7860  -32.9960 N   0  3  0  0  0  0  0  0  0  0  0  0
  -27.5470   21.0380  -34.2920 C   0  0  0  0  0  0  0  0  0  0  0  0
  -28.5350   23.0380  -35.2240 C   0  0  0  0  0  0  0  0  0  0  0  0
  -26.3710   21.3670  -33.4050 C   0  0  0  0  0  0  0  0  0  0  0  0
  -27.5210   23.5390  -32.9260 C   0  0  0  0  0  0  0  0  0  0  0  0
  -27.9880   24.0940  -34.2900 C   0  0  1  0  0  0  0  0  0  0  0  0
  -26.4424   25.3624  -34.2893 H   0  0  0  0  0  0  0  0  0  0  0  0
  -25.6739   23.2489  -33.6520 H   0  0  0  0  0  0  0  0  0  0  0  0
  -27.4364   20.1058  -34.6367 H   0  0  0  0  0  0  0  0  0  0  0  0
  -28.3838   21.0949  -33.7475 H   0  0  0  0  0  0  0  0  0  0  0  0
  -29.4020   22.7064  -34.8522 H   0  0  0  0  0  0  0  0  0  0  0  0
  -28.6944   23.4586  -36.1171 H   0  0  0  0  0  0  0  0  0  0  0  0
  -26.4421   20.8104  -32.5773 H   0  0  0  0  0  0  0  0  0  0  0  0
  -25.5347   21.1264  -33.8976 H   0  0  0  0  0  0  0  0  0  0  0  0
  -27.3923   24.3078  -32.2995 H   0  0  0  0  0  0  0  0  0  0  0  0
  -28.2339   22.9347  -32.5701 H   0  0  0  0  0  0  0  0  0  0  0  0
  -28.6743   24.8072  -34.1475 H   0  0  0  0  0  0  0  0  0  0  0  0
  -25.8501   22.8108  -32.0888 H   0  0  0  0  0  0  0  0  0  0  0  0
  1  8  1  0  0  0  0
  2  4  1  0  0  0  0
  2  5  1  0  0  0  0
  3  6  1  0  0  0  0
  3  7  1  0  0  0  0
  4  6  1  0  0  0  0
  5  8  1  0  0  0  0
  7  8  1  0  0  0  0
  1  9  1  0  0  0  0
  3 10  1  0  0  0  0
  4 11  1  0  0  0  0
  4 12  1  0  0  0  0
  5 13  1  0  0  0  0
  5 14  1  0  0  0  0
  6 15  1  0  0  0  0
  6 16  1  0  0  0  0
  7 17  1  0  0  0  0
  7 18  1  0  0  0  0
  8 19  1  0  0  0  0
  3 20  1  0  0  0  0
M  CHG  1   3   1
M  END
$$$$
5N3G_MPD_A_403
prProtoss 03132510033D 1   1.00000     0.00000     0
Protoss beta proteinsplus
 22 21  0  0  0  0            999 V2000
  -16.8930   26.3690  -36.1630 O   0  0  0  0  0  0  0  0  0  0  0  0
  -15.1670   25.3780  -34.1380 O   0  0  0  0  0  0  0  0  0  0  0  0
  -19.1430   25.5030  -36.2030 C   0  0  0  0  0  0  0  0  0  0  0  0
  -16.8700   25.7390  -32.4160 C   0  0  0  0  0  0  0  0  0  0  0  0
  -15.9450   23.4650  -33.0120 C   0  0  0  0  0  0  0  0  0  0  0  0
  -17.4360   24.5830  -34.6180 C   0  0  0  0  0  0  0  0  0  0  0  0
  -17.9180   25.8370  -35.3450 C   0  0  1  0  0  0  0  0  0  0  0  0
  -16.3640   24.8200  -33.5450 C   0  0  0  0  0  0  0  0  0  0  0  0
  -16.3146   25.6254  -36.4985 H   0  0  0  0  0  0  0  0  0  0  0  0
  -14.8454   24.7762  -34.8690 H   0  0  0  0  0  0  0  0  0  0  0  0
  -19.8648   25.1275  -35.6216 H   0  0  0  0  0  0  0  0  0  0  0  0
  -19.4736   26.3342  -36.6499 H   0  0  0  0  0  0  0  0  0  0  0  0
  -18.8900   24.8293  -36.8974 H   0  0  0  0  0  0  0  0  0  0  0  0
  -17.6964   25.3467  -32.0120 H   0  0  0  0  0  0  0  0  0  0  0  0
  -16.1635   25.8239  -31.7134 H   0  0  0  0  0  0  0  0  0  0  0  0
  -17.0785   26.6427  -32.7900 H   0  0  0  0  0  0  0  0  0  0  0  0
  -16.7304   23.0177  -32.5841 H   0  0  0  0  0  0  0  0  0  0  0  0
  -15.6091   22.8998  -33.7655 H   0  0  0  0  0  0  0  0  0  0  0  0
  -15.2189   23.5832  -32.3346 H   0  0  0  0  0  0  0  0  0  0  0  0
  -17.0581   23.9564  -35.2996 H   0  0  0  0  0  0  0  0  0  0  0  0
  -18.2265   24.1582  -34.1768 H   0  0  0  0  0  0  0  0  0  0  0  0
  -18.1776   26.5236  -34.6659 H   0  0  0  0  0  0  0  0  0  0  0  0
  1  7  1  0  0  0  0
  2  8  1  0  0  0  0
  3  7  1  0  0  0  0
  4  8  1  0  0  0  0
  5  8  1  0  0  0  0
  6  7  1  0  0  0  0
  6  8  1  0  0  0  0
  1  9  1  0  0  0  0
  2 10  1  0  0  0  0
  3 11  1  0  0  0  0
  3 12  1  0  0  0  0
  3 13  1  0  0  0  0
  4 14  1  0  0  0  0
  4 15  1  0  0  0  0
  4 16  1  0  0  0  0
  5 17  1  0  0  0  0
  5 18  1  0  0  0  0
  5 19  1  0  0  0  0
  6 20  1  0  0  0  0
  6 21  1  0  0  0  0
  7 22  1  0  0  0  0
M  END
$$$$
5N3G_MPD_A_404
prProtoss 03132510033D 1   1.00000     0.00000     0
Protoss beta proteinsplus
 22 21  0  0  0  0            999 V2000
   -8.5140   19.4220   -9.9300 O   0  0  0  0  0  0  0  0  0  0  0  0
   -6.6870   18.3460   -8.3070 O   0  0  0  0  0  0  0  0  0  0  0  0
   -9.2120   18.1120  -11.8390 C   0  0  0  0  0  0  0  0  0  0  0  0
   -6.7030   16.0270   -8.8670 C   0  0  0  0  0  0  0  0  0  0  0  0
   -4.8000   17.5360   -9.5780 C   0  0  0  0  0  0  0  0  0  0  0  0
   -7.0110   17.7500  -10.6780 C   0  0  0  0  0  0  0  0  0  0  0  0
   -8.4720   18.1380  -10.5030 C   0  0  1  0  0  0  0  0  0  0  0  0
   -6.3100   17.4170   -9.3580 C   0  0  0  0  0  0  0  0  0  0  0  0
   -9.4657   19.6870   -9.7752 H   0  0  0  0  0  0  0  0  0  0  0  0
   -7.3472   19.0056   -8.6662 H   0  0  0  0  0  0  0  0  0  0  0  0
   -9.1686   17.1910  -12.2262 H   0  0  0  0  0  0  0  0  0  0  0  0
  -10.1678   18.3686  -11.6957 H   0  0  0  0  0  0  0  0  0  0  0  0
   -8.7840   18.7593  -12.4697 H   0  0  0  0  0  0  0  0  0  0  0  0
   -6.4621   15.3480   -9.5605 H   0  0  0  0  0  0  0  0  0  0  0  0
   -6.2158   15.8234   -8.0178 H   0  0  0  0  0  0  0  0  0  0  0  0
   -7.6887   15.9985   -8.7009 H   0  0  0  0  0  0  0  0  0  0  0  0
   -4.5174   16.9037  -10.2993 H   0  0  0  0  0  0  0  0  0  0  0  0
   -4.5753   18.4721   -9.8485 H   0  0  0  0  0  0  0  0  0  0  0  0
   -4.3208   17.3100   -8.7299 H   0  0  0  0  0  0  0  0  0  0  0  0
   -6.5295   18.5130  -11.1093 H   0  0  0  0  0  0  0  0  0  0  0  0
   -6.9648   16.9476  -11.2730 H   0  0  0  0  0  0  0  0  0  0  0  0
   -8.9073   17.4896   -9.8784 H   0  0  0  0  0  0  0  0  0  0  0  0
  1  7  1  0  0  0  0
  2  8  1  0  0  0  0
  3  7  1  0  0  0  0
  4  8  1  0  0  0  0
  5  8  1  0  0  0  0
  6  7  1  0  0  0  0
  6  8  1  0  0  0  0
  1  9  1  0  0  0  0
  2 10  1  0  0  0  0
  3 11  1  0  0  0  0
  3 12  1  0  0  0  0
  3 13  1  0  0  0  0
  4 14  1  0  0  0  0
  4 15  1  0  0  0  0
  4 16  1  0  0  0  0
  5 17  1  0  0  0  0
  5 18  1  0  0  0  0
  5 19  1  0  0  0  0
  6 20  1  0  0  0  0
  6 21  1  0  0  0  0
  7 22  1  0  0  0  0
M  END
$$$$
6SNX_UNU_A_401
prProtoss 12092423353D 1   1.00000     0.00000     0
Protoss beta proteinsplus
 16 16  0  0  0  0            999 V2000
   16.7410    2.4570   20.2760 O   0  0  0  0  0  0  0  0  0  0  0  0
   16.3930    4.7040   20.2580 N   0  0  0  0  0  0  0  0  0  0  0  0
   12.0030    2.6920   18.6730 C   0  0  0  0  0  0  0  0  0  0  0  0
   12.4130    3.9890   18.9230 C   0  0  0  0  0  0  0  0  0  0  0  0
   12.8910    1.6460   18.8490 C   0  0  0  0  0  0  0  0  0  0  0  0
   13.7110    4.2450   19.3280 C   0  0  0  0  0  0  0  0  0  0  0  0
   14.1880    1.8960   19.2760 C   0  0  0  0  0  0  0  0  0  0  0  0
   16.0050    3.4350   20.0350 C   0  0  0  0  0  0  0  0  0  0  0  0
   14.6110    3.1990   19.5160 C   0  0  0  0  0  0  0  0  0  0  0  0
   15.7724    5.4603   20.0511 H   0  0  0  0  0  0  0  0  0  0  0  0
   17.3020    4.8908   20.6306 H   0  0  0  0  0  0  0  0  0  0  0  0
   11.0685    2.5111   18.3663 H   0  0  0  0  0  0  0  0  0  0  0  0
   11.7684    4.7452   18.8105 H   0  0  0  0  0  0  0  0  0  0  0  0
   12.5978    0.7072   18.6681 H   0  0  0  0  0  0  0  0  0  0  0  0
   14.0049    5.1876   19.4868 H   0  0  0  0  0  0  0  0  0  0  0  0
   14.8220    1.1347   19.4118 H   0  0  0  0  0  0  0  0  0  0  0  0
  1  8  2  0  0  0  0
  2  8  1  0  0  0  0
  3  4  2  0  0  0  0
  3  5  1  0  0  0  0
  4  6  1  0  0  0  0
  5  7  2  0  0  0  0
  6  9  2  0  0  0  0
  7  9  1  0  0  0  0
  8  9  1  0  0  0  0
  2 10  1  0  0  0  0
  2 11  1  0  0  0  0
  3 12  1  0  0  0  0
  4 13  1  0  0  0  0
  5 14  1  0  0  0  0
  6 15  1  0  0  0  0
  7 16  1  0  0  0  0
M  END
$$$$
6SNX_UNU_A_402
prProtoss 12092423353D 1   1.00000     0.00000     0
Protoss beta proteinsplus
 16 16  0  0  0  0            999 V2000
   19.4475    2.0978    1.6188 O   0  0  0  0  0  0  0  0  0  0  0  0
   21.1677    3.1724    2.6277 N   0  0  0  0  0  0  0  0  0  0  0  0
   17.9870    2.4230    6.4360 C   0  0  0  0  0  0  0  0  0  0  0  0
   19.3560    2.5930    6.3740 C   0  0  0  0  0  0  0  0  0  0  0  0
   17.2650    2.2400    5.2720 C   0  0  0  0  0  0  0  0  0  0  0  0
   20.0040    2.6000    5.1500 C   0  0  0  0  0  0  0  0  0  0  0  0
   17.9070    2.2470    4.0450 C   0  0  0  0  0  0  0  0  0  0  0  0
   19.9880    2.5630    2.6480 C   0  0  0  0  0  0  0  0  0  0  0  0
   19.2840    2.4430    3.9710 C   0  0  0  0  0  0  0  0  0  0  0  0
   21.5611    3.5286    3.4753 H   0  0  0  0  0  0  0  0  0  0  0  0
   21.6627    3.2750    1.7649 H   0  0  0  0  0  0  0  0  0  0  0  0
   17.5197    2.4323    7.3201 H   0  0  0  0  0  0  0  0  0  0  0  0
   19.8817    2.7115    7.2164 H   0  0  0  0  0  0  0  0  0  0  0  0
   16.2755    2.1020    5.3159 H   0  0  0  0  0  0  0  0  0  0  0  0
   20.9963    2.7188    5.1140 H   0  0  0  0  0  0  0  0  0  0  0  0
   17.3787    2.1105    3.2070 H   0  0  0  0  0  0  0  0  0  0  0  0
  1  8  2  0  0  0  0
  2  8  1  0  0  0  0
  3  4  2  0  0  0  0
  3  5  1  0  0  0  0
  4  6  1  0  0  0  0
  5  7  2  0  0  0  0
  6  9  2  0  0  0  0
  7  9  1  0  0  0  0
  8  9  1  0  0  0  0
  2 10  1  0  0  0  0
  2 11  1  0  0  0  0
  3 12  1  0  0  0  0
  4 13  1  0  0  0  0
  5 14  1  0  0  0  0
  6 15  1  0  0  0  0
  7 16  1  0  0  0  0
M  END
$$$$
6ZN0_MRD_A_401
prProtoss 03132510033D 1   1.00000     0.00000     0
Protoss beta proteinsplus
 22 21  0  0  0  0            999 V2000
   16.5080   17.9140   37.1720 O   0  0  0  0  0  0  0  0  0  0  0  0
   18.5140   18.2750   40.7970 O   0  0  0  0  0  0  0  0  0  0  0  0
   17.2220   19.7930   38.4880 C   0  0  0  0  0  0  0  0  0  0  0  0
   19.7410   16.3500   40.1310 C   0  0  0  0  0  0  0  0  0  0  0  0
   20.5830   18.6610   39.6750 C   0  0  0  0  0  0  0  0  0  0  0  0
   18.6420   17.7300   38.3630 C   0  0  0  0  0  0  0  0  0  0  0  0
   17.2070   18.2860   38.3680 C   0  0  2  0  0  0  0  0  0  0  0  0
   19.3550   17.7680   39.7430 C   0  0  0  0  0  0  0  0  0  0  0  0
   16.4960   16.9175   37.0892 H   0  0  0  0  0  0  0  0  0  0  0  0
   19.0803   18.7222   41.4894 H   0  0  0  0  0  0  0  0  0  0  0  0
   17.7087   20.0562   39.3210 H   0  0  0  0  0  0  0  0  0  0  0  0
   17.6846   20.1861   37.6933 H   0  0  0  0  0  0  0  0  0  0  0  0
   16.2826   20.1335   38.5291 H   0  0  0  0  0  0  0  0  0  0  0  0
   20.3282   15.9587   39.4225 H   0  0  0  0  0  0  0  0  0  0  0  0
   20.2333   16.3648   41.0013 H   0  0  0  0  0  0  0  0  0  0  0  0
   18.9154   15.7935   40.2245 H   0  0  0  0  0  0  0  0  0  0  0  0
   21.1914   18.3366   38.9507 H   0  0  0  0  0  0  0  0  0  0  0  0
   20.3017   19.6002   39.4782 H   0  0  0  0  0  0  0  0  0  0  0  0
   21.0639   18.6337   40.5513 H   0  0  0  0  0  0  0  0  0  0  0  0
   19.1831   18.2689   37.7174 H   0  0  0  0  0  0  0  0  0  0  0  0
   18.6070   16.7789   38.0561 H   0  0  0  0  0  0  0  0  0  0  0  0
   16.7196   17.9071   39.1547 H   0  0  0  0  0  0  0  0  0  0  0  0
  1  7  1  0  0  0  0
  2  8  1  0  0  0  0
  3  7  1  0  0  0  0
  4  8  1  0  0  0  0
  5  8  1  0  0  0  0
  6  7  1  0  0  0  0
  6  8  1  0  0  0  0
  1  9  1  0  0  0  0
  2 10  1  0  0  0  0
  3 11  1  0  0  0  0
  3 12  1  0  0  0  0
  3 13  1  0  0  0  0
  4 14  1  0  0  0  0
  4 15  1  0  0  0  0
  4 16  1  0  0  0  0
  5 17  1  0  0  0  0
  5 18  1  0  0  0  0
  5 19  1  0  0  0  0
  6 20  1  0  0  0  0
  6 21  1  0  0  0  0
  7 22  1  0  0  0  0
M  END
$$$$
6ZN0_DMS_A_402
prProtoss 03132510033D 1   1.00000     0.00000     0
Protoss beta proteinsplus
 10  9  0  0  0  0            999 V2000
    9.4400   25.2110   15.2070 S   0  0  0  0  0  0  0  0  0  0  0  0
   10.7560   25.7410   14.7470 O   0  0  0  0  0  0  0  0  0  0  0  0
    9.7320   23.5970   15.9650 C   0  0  0  0  0  0  0  0  0  0  0  0
    8.8950   26.1380   16.6690 C   0  0  0  0  0  0  0  0  0  0  0  0
    8.8639   23.2165   16.2838 H   0  0  0  0  0  0  0  0  0  0  0  0
   10.1385   22.9806   15.2906 H   0  0  0  0  0  0  0  0  0  0  0  0
   10.3552   23.7006   16.7402 H   0  0  0  0  0  0  0  0  0  0  0  0
    8.0126   25.7836   16.9785 H   0  0  0  0  0  0  0  0  0  0  0  0
    9.5702   26.0355   17.3995 H   0  0  0  0  0  0  0  0  0  0  0  0
    8.8019   27.1057   16.4345 H   0  0  0  0  0  0  0  0  0  0  0  0
  1  2  2  0  0  0  0
  1  3  1  0  0  0  0
  1  4  1  0  0  0  0
  3  5  1  0  0  0  0
  3  6  1  0  0  0  0
  3  7  1  0  0  0  0
  4  8  1  0  0  0  0
  4  9  1  0  0  0  0
  4 10  1  0  0  0  0
M  END
$$$$
6ZN0_DMS_A_403
prProtoss 03132510033D 1   1.00000     0.00000     0
Protoss beta proteinsplus
 10  9  0  0  0  0            999 V2000
   26.6040   15.5080    5.6580 S   0  0  0  0  0  0  0  0  0  0  0  0
   25.4720   15.7000    4.6930 O   0  0  0  0  0  0  0  0  0  0  0  0
   27.6460   14.1500    5.0610 C   0  0  0  0  0  0  0  0  0  0  0  0
   27.7630   16.8870    5.4540 C   0  0  0  0  0  0  0  0  0  0  0  0
   28.4064   14.0098    5.6951 H   0  0  0  0  0  0  0  0  0  0  0  0
   27.1018   13.3131    5.0028 H   0  0  0  0  0  0  0  0  0  0  0  0
   28.0045   14.3781    4.1558 H   0  0  0  0  0  0  0  0  0  0  0  0
   28.5268   16.7774    6.0901 H   0  0  0  0  0  0  0  0  0  0  0  0
   28.1091   16.8956    4.5158 H   0  0  0  0  0  0  0  0  0  0  0  0
   27.2924   17.7488    5.6436 H   0  0  0  0  0  0  0  0  0  0  0  0
  1  2  2  0  0  0  0
  1  3  1  0  0  0  0
  1  4  1  0  0  0  0
  3  5  1  0  0  0  0
  3  6  1  0  0  0  0
  3  7  1  0  0  0  0
  4  8  1  0  0  0  0
  4  9  1  0  0  0  0
  4 10  1  0  0  0  0
M  END
$$$$
6ZN0_NTN_A_404
prProtoss 03132510033D 1   1.00000     0.00000     0
Protoss beta proteinsplus
 17 17  0  0  0  0            999 V2000
   11.7770    3.7320   19.0090 N   0  3  0  0  0  0  0  0  0  0  0  0
   12.8370    5.7210   18.7290 N   0  0  0  0  0  0  0  0  0  0  0  0
   16.4960    2.7100   20.4260 N   0  0  0  0  0  0  0  0  0  0  0  0
   16.3280    4.0370   20.3580 C   0  0  0  0  0  0  0  0  0  0  0  0
   15.4650    1.9480   20.0390 C   0  0  0  0  0  0  0  0  0  0  0  0
   15.1650    4.6420   19.9180 C   0  0  0  0  0  0  0  0  0  0  0  0
   14.2610    2.4560   19.5900 C   0  0  0  0  0  0  0  0  0  0  0  0
   12.8280    4.4320   19.0810 C   0  0  0  0  0  0  0  0  0  0  0  0
   14.1000    3.8380   19.5300 C   0  0  0  0  0  0  0  0  0  0  0  0
   11.7980    2.7693   19.2789 H   0  0  0  0  0  0  0  0  0  0  0  0
   10.9251    4.1412   18.6822 H   0  0  0  0  0  0  0  0  0  0  0  0
   13.6820    6.2516   18.7957 H   0  0  0  0  0  0  0  0  0  0  0  0
   17.0867    4.6236   20.6415 H   0  0  0  0  0  0  0  0  0  0  0  0
   15.5726    0.9545   20.0771 H   0  0  0  0  0  0  0  0  0  0  0  0
   15.0918    5.6386   19.8798 H   0  0  0  0  0  0  0  0  0  0  0  0
   13.5202    1.8437   19.3137 H   0  0  0  0  0  0  0  0  0  0  0  0
   11.9988    6.1550   18.3989 H   0  0  0  0  0  0  0  0  0  0  0  0
  1  8  2  0  0  0  0
  2  8  1  0  0  0  0
  3  4  2  0  0  0  0
  3  5  1  0  0  0  0
  4  6  1  0  0  0  0
  5  7  2  0  0  0  0
  6  9  2  0  0  0  0
  7  9  1  0  0  0  0
  8  9  1  0  0  0  0
  1 10  1  0  0  0  0
  1 11  1  0  0  0  0
  2 12  1  0  0  0  0
  4 13  1  0  0  0  0
  5 14  1  0  0  0  0
  6 15  1  0  0  0  0
  7 16  1  0  0  0  0
  2 17  1  0  0  0  0
M  CHG  1   1   1
M  END
$$$$
6ZN0_NTN_A_405
prProtoss 03132510033D 1   1.00000     0.00000     0
Protoss beta proteinsplus
 17 17  0  0  0  0            999 V2000
   19.9100    6.6510   51.2240 N   0  3  0  0  0  0  0  0  0  0  0  0
   17.9140    5.9600   50.3580 N   0  0  0  0  0  0  0  0  0  0  0  0
   17.5010   10.9780   50.2850 N   0  0  0  0  0  0  0  0  0  0  0  0
   16.6140   10.0120   50.5450 C   0  0  0  0  0  0  0  0  0  0  0  0
   18.7850   10.6130   50.2060 C   0  0  0  0  0  0  0  0  0  0  0  0
   16.9550    8.6850   50.7230 C   0  0  0  0  0  0  0  0  0  0  0  0
   19.2250    9.3130   50.3670 C   0  0  0  0  0  0  0  0  0  0  0  0
   18.6970    6.9080   50.7310 C   0  0  0  0  0  0  0  0  0  0  0  0
   18.2890    8.3190   50.6210 C   0  0  0  0  0  0  0  0  0  0  0  0
   20.5038    7.4036   51.5085 H   0  0  0  0  0  0  0  0  0  0  0  0
   20.2252    5.7058   51.3089 H   0  0  0  0  0  0  0  0  0  0  0  0
   17.0087    6.1743   49.9912 H   0  0  0  0  0  0  0  0  0  0  0  0
   15.6489   10.2643   50.6146 H   0  0  0  0  0  0  0  0  0  0  0  0
   19.4658   11.3214   50.0197 H   0  0  0  0  0  0  0  0  0  0  0  0
   16.2530    8.0011   50.9217 H   0  0  0  0  0  0  0  0  0  0  0  0
   20.1982    9.0923   50.3019 H   0  0  0  0  0  0  0  0  0  0  0  0
   18.2099    5.0078   50.4345 H   0  0  0  0  0  0  0  0  0  0  0  0
  1  8  2  0  0  0  0
  2  8  1  0  0  0  0
  3  4  2  0  0  0  0
  3  5  1  0  0  0  0
  4  6  1  0  0  0  0
  5  7  2  0  0  0  0
  6  9  2  0  0  0  0
  7  9  1  0  0  0  0
  8  9  1  0  0  0  0
  1 10  1  0  0  0  0
  1 11  1  0  0  0  0
  2 12  1  0  0  0  0
  4 13  1  0  0  0  0
  5 14  1  0  0  0  0
  6 15  1  0  0  0  0
  7 16  1  0  0  0  0
  2 17  1  0  0  0  0
M  CHG  1   1   1
M  END
$$$$
6SNN_BEZ_A_401
prProtoss 07282312473D 1   1.00000     0.00000     0
Protoss beta proteinsplus
 15 15  0  0  0  0            999 V2000
  -16.8240    2.5070  -20.5390 O   0  0  0  0  0  0  0  0  0  0  0  0
  -16.6230    4.7100  -20.2900 O   0  0  0  0  0  0  0  0  0  0  0  0
  -12.0990    3.0470  -18.9660 C   0  0  0  0  0  0  0  0  0  0  0  0
  -12.6110    4.3070  -19.2020 C   0  0  0  0  0  0  0  0  0  0  0  0
  -12.8950    1.9370  -19.1580 C   0  0  0  0  0  0  0  0  0  0  0  0
  -13.9250    4.4620  -19.6160 C   0  0  0  0  0  0  0  0  0  0  0  0
  -14.2020    2.0800  -19.5930 C   0  0  0  0  0  0  0  0  0  0  0  0
  -16.1590    3.4890  -20.2340 C   0  0  0  0  0  0  0  0  0  0  0  0
  -14.7340    3.3480  -19.8240 C   0  0  0  0  0  0  0  0  0  0  0  0
  -11.1541    2.9393  -18.6569 H   0  0  0  0  0  0  0  0  0  0  0  0
  -12.0314    5.1117  -19.0737 H   0  0  0  0  0  0  0  0  0  0  0  0
  -12.5264    1.0242  -18.9822 H   0  0  0  0  0  0  0  0  0  0  0  0
  -14.2939    5.3792  -19.7661 H   0  0  0  0  0  0  0  0  0  0  0  0
  -14.7676    1.2690  -19.7423 H   0  0  0  0  0  0  0  0  0  0  0  0
  -17.5617    4.8748  -20.5929 H   0  0  0  0  0  0  0  0  0  0  0  0
  1  8  2  0  0  0  0
  2  8  1  0  0  0  0
  3  4  2  0  0  0  0
  3  5  1  0  0  0  0
  4  6  1  0  0  0  0
  5  7  2  0  0  0  0
  6  9  2  0  0  0  0
  7  9  1  0  0  0  0
  8  9  1  0  0  0  0
  7 14  1  0  0  0  0
  3 10  1  0  0  0  0
  4 11  1  0  0  0  0
  5 12  1  0  0  0  0
  6 13  1  0  0  0  0
  2 15  1  0  0  0  0
M  END
$$$$
6SNN_BEZ_A_402
prProtoss 07282312473D 1   1.00000     0.00000     0
Protoss beta proteinsplus
 14 14  0  0  0  0            999 V2000
   -5.8950   -2.1630  -51.3610 O   0  0  0  0  0  0  0  0  0  0  0  0
   -8.0950   -1.9490  -51.0460 O   0  5  0  0  0  0  0  0  0  0  0  0
   -7.8690   -2.5400  -55.9670 C   0  0  0  0  0  0  0  0  0  0  0  0
   -8.8980   -2.3140  -55.0740 C   0  0  0  0  0  0  0  0  0  0  0  0
   -6.5690   -2.6100  -55.5080 C   0  0  0  0  0  0  0  0  0  0  0  0
   -8.6340   -2.1670  -53.7220 C   0  0  0  0  0  0  0  0  0  0  0  0
   -6.2930   -2.4570  -54.1580 C   0  0  0  0  0  0  0  0  0  0  0  0
   -7.0390   -2.1150  -51.7970 C   0  0  0  0  0  0  0  0  0  0  0  0
   -7.3270   -2.2400  -53.2530 C   0  0  0  0  0  0  0  0  0  0  0  0
   -8.0647   -2.6524  -56.9412 H   0  0  0  0  0  0  0  0  0  0  0  0
   -9.8397   -2.2561  -55.4055 H   0  0  0  0  0  0  0  0  0  0  0  0
   -5.8221   -2.7720  -56.1529 H   0  0  0  0  0  0  0  0  0  0  0  0
   -9.3854   -2.0080  -53.0816 H   0  0  0  0  0  0  0  0  0  0  0  0
   -5.3481   -2.5028  -53.8339 H   0  0  0  0  0  0  0  0  0  0  0  0
  1  8  2  0  0  0  0
  2  8  1  0  0  0  0
  3  4  2  0  0  0  0
  3  5  1  0  0  0  0
  4  6  1  0  0  0  0
  5  7  2  0  0  0  0
  6  9  2  0  0  0  0
  7  9  1  0  0  0  0
  8  9  1  0  0  0  0
  7 14  1  0  0  0  0
  3 10  1  0  0  0  0
  4 11  1  0  0  0  0
  5 12  1  0  0  0  0
  6 13  1  0  0  0  0
M  CHG  1   2  -1
M  END
$$$$
5N3H_NCA_A_401
prProtoss 08292322353D 1   1.00000     0.00000     0
Protoss beta proteinsplus
 15 15  0  0  0  0            999 V2000
  -11.9220    5.9340  -29.4100 O   0  0  0  0  0  0  0  0  0  0  0  0
   -9.8530    6.4300  -28.6760 N   0  0  0  0  0  0  0  0  0  0  0  0
   -9.0360    2.3140  -28.2540 N   0  0  0  0  0  0  0  0  0  0  0  0
  -10.0140    1.4440  -28.5310 C   0  0  0  0  0  0  0  0  0  0  0  0
  -11.2590    1.8250  -28.9960 C   0  0  0  0  0  0  0  0  0  0  0  0
   -9.3040    3.6160  -28.4260 C   0  0  0  0  0  0  0  0  0  0  0  0
  -11.5120    3.1730  -29.1540 C   0  0  0  0  0  0  0  0  0  0  0  0
  -10.8110    5.5690  -29.0100 C   0  0  0  0  0  0  0  0  0  0  0  0
  -10.5230    4.0980  -28.8650 C   0  0  0  0  0  0  0  0  0  0  0  0
   -8.9672    6.0933  -28.3567 H   0  0  0  0  0  0  0  0  0  0  0  0
  -10.0188    7.4138  -28.7443 H   0  0  0  0  0  0  0  0  0  0  0  0
   -9.8355    0.4695  -28.3949 H   0  0  0  0  0  0  0  0  0  0  0  0
  -11.9574    1.1427  -29.2121 H   0  0  0  0  0  0  0  0  0  0  0  0
   -8.5806    4.2766  -28.2252 H   0  0  0  0  0  0  0  0  0  0  0  0
  -12.4073    3.4806  -29.4763 H   0  0  0  0  0  0  0  0  0  0  0  0
  1  8  2  0  0  0  0
  2  8  1  0  0  0  0
  3  4  2  0  0  0  0
  3  6  1  0  0  0  0
  4  5  1  0  0  0  0
  5  7  2  0  0  0  0
  6  9  2  0  0  0  0
  7  9  1  0  0  0  0
  8  9  1  0  0  0  0
  2 10  1  0  0  0  0
  2 11  1  0  0  0  0
  4 12  1  0  0  0  0
  5 13  1  0  0  0  0
  6 14  1  0  0  0  0
  7 15  1  0  0  0  0
M  END
$$$$
5N3H_DMS_A_402
prProtoss 08292322353D 1   1.00000     0.00000     0
Protoss beta proteinsplus
 10  9  0  0  0  0            999 V2000
   -2.0010   20.8280  -16.1420 S   0  0  0  0  0  0  0  0  0  0  0  0
   -3.1360   20.7520  -17.1130 O   0  0  0  0  0  0  0  0  0  0  0  0
   -0.5720   21.5250  -17.0100 C   0  0  0  0  0  0  0  0  0  0  0  0
   -2.3610   22.1170  -14.9170 C   0  0  0  0  0  0  0  0  0  0  0  0
    0.2028   21.5865  -16.3807 H   0  0  0  0  0  0  0  0  0  0  0  0
   -0.3297   20.9352  -17.7804 H   0  0  0  0  0  0  0  0  0  0  0  0
   -0.8002   22.4380  -17.3481 H   0  0  0  0  0  0  0  0  0  0  0  0
   -1.6069   22.1752  -14.2629 H   0  0  0  0  0  0  0  0  0  0  0  0
   -2.4688   22.9965  -15.3805 H   0  0  0  0  0  0  0  0  0  0  0  0
   -3.2057   21.8898  -14.4325 H   0  0  0  0  0  0  0  0  0  0  0  0
  1  2  2  0  0  0  0
  1  3  1  0  0  0  0
  1  4  1  0  0  0  0
  3  5  1  0  0  0  0
  3  6  1  0  0  0  0
  3  7  1  0  0  0  0
  4  8  1  0  0  0  0
  4  9  1  0  0  0  0
  4 10  1  0  0  0  0
M  END
$$$$
5N3H_DMS_A_403
prProtoss 08292322353D 1   1.00000     0.00000     0
Protoss beta proteinsplus
 10  9  0  0  0  0            999 V2000
   -8.4050    5.3400   -3.3560 S   0  0  0  0  0  0  0  0  0  0  0  0
   -8.9250    6.7070   -3.6110 O   0  0  0  0  0  0  0  0  0  0  0  0
   -7.2490    5.4080   -1.9650 C   0  0  0  0  0  0  0  0  0  0  0  0
   -9.7090    4.3070   -2.6490 C   0  0  0  0  0  0  0  0  0  0  0  0
   -6.8916    4.4919   -1.7835 H   0  0  0  0  0  0  0  0  0  0  0  0
   -6.4927    6.0224   -2.1898 H   0  0  0  0  0  0  0  0  0  0  0  0
   -7.7240    5.7474   -1.1531 H   0  0  0  0  0  0  0  0  0  0  0  0
   -9.3518    3.3884   -2.4800 H   0  0  0  0  0  0  0  0  0  0  0  0
  -10.0208    4.7071   -1.7872 H   0  0  0  0  0  0  0  0  0  0  0  0
  -10.4758    4.2540   -3.2886 H   0  0  0  0  0  0  0  0  0  0  0  0
  1  2  2  0  0  0  0
  1  3  1  0  0  0  0
  1  4  1  0  0  0  0
  3  5  1  0  0  0  0
  3  6  1  0  0  0  0
  3  7  1  0  0  0  0
  4  8  1  0  0  0  0
  4  9  1  0  0  0  0
  4 10  1  0  0  0  0
M  END
$$$$
5N3H_DMS_A_404
prProtoss 08292322353D 1   1.00000     0.00000     0
Protoss beta proteinsplus
 10  9  0  0  0  0            999 V2000
  -35.0560   -2.7230   -8.1460 S   0  0  0  0  0  0  0  0  0  0  0  0
  -34.1430   -1.5500   -7.9720 O   0  0  0  0  0  0  0  0  0  0  0  0
  -34.7070   -3.9460   -6.8520 C   0  0  0  0  0  0  0  0  0  0  0  0
  -36.7470   -2.2550   -7.6810 C   0  0  0  0  0  0  0  0  0  0  0  0
  -35.3147   -4.7322   -6.9638 H   0  0  0  0  0  0  0  0  0  0  0  0
  -33.7561   -4.2466   -6.9252 H   0  0  0  0  0  0  0  0  0  0  0  0
  -34.8579   -3.5332   -5.9538 H   0  0  0  0  0  0  0  0  0  0  0  0
  -37.3545   -3.0406   -7.7983 H   0  0  0  0  0  0  0  0  0  0  0  0
  -36.7610   -1.9627   -6.7248 H   0  0  0  0  0  0  0  0  0  0  0  0
  -37.0572   -1.5039   -8.2637 H   0  0  0  0  0  0  0  0  0  0  0  0
  1  2  2  0  0  0  0
  1  3  1  0  0  0  0
  1  4  1  0  0  0  0
  3  5  1  0  0  0  0
  3  6  1  0  0  0  0
  3  7  1  0  0  0  0
  4  8  1  0  0  0  0
  4  9  1  0  0  0  0
  4 10  1  0  0  0  0
M  END
$$$$
5N3B_MPD_A_401
prProtoss 03132510033D 1   1.00000     0.00000     0
Protoss beta proteinsplus
 22 21  0  0  0  0            999 V2000
  -22.8090  -22.7490   -6.0130 O   0  0  0  0  0  0  0  0  0  0  0  0
  -23.8870  -24.8860   -5.0370 O   0  0  0  0  0  0  0  0  0  0  0  0
  -23.3830  -20.5660   -5.2660 C   0  0  0  0  0  0  0  0  0  0  0  0
  -24.2970  -24.2630   -2.7980 C   0  0  0  0  0  0  0  0  0  0  0  0
  -26.1880  -24.7200   -4.4350 C   0  0  0  0  0  0  0  0  0  0  0  0
  -24.8170  -22.6360   -4.6840 C   0  0  0  0  0  0  0  0  0  0  0  0
  -23.4140  -22.0660   -4.9520 C   0  0  1  0  0  0  0  0  0  0  0  0
  -24.8030  -24.1040   -4.2320 C   0  0  0  0  0  0  0  0  0  0  0  0
  -21.8636  -22.4389   -6.1132 H   0  0  0  0  0  0  0  0  0  0  0  0
  -23.4401  -24.2917   -5.7056 H   0  0  0  0  0  0  0  0  0  0  0  0
  -23.8118  -20.0599   -4.5177 H   0  0  0  0  0  0  0  0  0  0  0  0
  -22.4345  -20.2668   -5.3703 H   0  0  0  0  0  0  0  0  0  0  0  0
  -23.8824  -20.3927   -6.1148 H   0  0  0  0  0  0  0  0  0  0  0  0
  -24.8859  -23.7453   -2.1774 H   0  0  0  0  0  0  0  0  0  0  0  0
  -24.3135  -25.2301   -2.5440 H   0  0  0  0  0  0  0  0  0  0  0  0
  -23.3607  -23.9177   -2.7347 H   0  0  0  0  0  0  0  0  0  0  0  0
  -26.8607  -24.2125   -3.8966 H   0  0  0  0  0  0  0  0  0  0  0  0
  -26.4339  -24.6755   -5.4033 H   0  0  0  0  0  0  0  0  0  0  0  0
  -26.1750  -25.6748   -4.1379 H   0  0  0  0  0  0  0  0  0  0  0  0
  -25.3526  -22.5686   -5.5258 H   0  0  0  0  0  0  0  0  0  0  0  0
  -25.2503  -22.0881   -3.9684 H   0  0  0  0  0  0  0  0  0  0  0  0
  -22.8599  -22.2190   -4.1337 H   0  0  0  0  0  0  0  0  0  0  0  0
  1  7  1  0  0  0  0
  2  8  1  0  0  0  0
  3  7  1  0  0  0  0
  4  8  1  0  0  0  0
  5  8  1  0  0  0  0
  6  7  1  0  0  0  0
  6  8  1  0  0  0  0
  1  9  1  0  0  0  0
  2 10  1  0  0  0  0
  3 11  1  0  0  0  0
  3 12  1  0  0  0  0
  3 13  1  0  0  0  0
  4 14  1  0  0  0  0
  4 15  1  0  0  0  0
  4 16  1  0  0  0  0
  5 17  1  0  0  0  0
  5 18  1  0  0  0  0
  5 19  1  0  0  0  0
  6 20  1  0  0  0  0
  6 21  1  0  0  0  0
  7 22  1  0  0  0  0
M  END
$$$$
5N3B_BJN_A_402
prProtoss 03132510033D 1   1.00000     0.00000     0
Protoss beta proteinsplus
 20 20  0  0  0  0            999 V2000
  -23.5780   -0.5920    6.3470 N   0  3  0  0  0  0  0  0  0  0  0  0
  -29.2320   -2.1080    6.6370 N   0  0  0  0  0  0  0  0  0  0  0  0
  -24.8270   -1.2410    6.8280 C   0  0  0  0  0  0  0  0  0  0  0  0
  -29.6020   -2.1750    7.9210 C   0  0  0  0  0  0  0  0  0  0  0  0
  -28.0830   -1.4780    6.3640 C   0  0  0  0  0  0  0  0  0  0  0  0
  -28.8620   -1.6250    8.9490 C   0  0  0  0  0  0  0  0  0  0  0  0
  -25.9550   -0.2370    6.9560 C   0  0  0  0  0  0  0  0  0  0  0  0
  -27.6760   -0.9870    8.6390 C   0  0  0  0  0  0  0  0  0  0  0  0
  -27.2600   -0.9030    7.3190 C   0  0  0  0  0  0  0  0  0  0  0  0
  -23.0440   -0.2748    7.1307 H   0  0  0  0  0  0  0  0  0  0  0  0
  -23.0402   -1.2519    5.8224 H   0  0  0  0  0  0  0  0  0  0  0  0
  -24.6558   -1.6544    7.7223 H   0  0  0  0  0  0  0  0  0  0  0  0
  -25.0958   -1.9519    6.1781 H   0  0  0  0  0  0  0  0  0  0  0  0
  -30.4549   -2.6457    8.1470 H   0  0  0  0  0  0  0  0  0  0  0  0
  -27.7996   -1.4183    5.4069 H   0  0  0  0  0  0  0  0  0  0  0  0
  -29.1771   -1.6870    9.8960 H   0  0  0  0  0  0  0  0  0  0  0  0
  -26.0660    0.2382    6.0831 H   0  0  0  0  0  0  0  0  0  0  0  0
  -25.7202    0.4246    7.6682 H   0  0  0  0  0  0  0  0  0  0  0  0
  -27.1184   -0.5863    9.3660 H   0  0  0  0  0  0  0  0  0  0  0  0
  -23.8101    0.1870    5.7645 H   0  0  0  0  0  0  0  0  0  0  0  0
  1  3  1  0  0  0  0
  2  4  2  0  0  0  0
  2  5  1  0  0  0  0
  3  7  1  0  0  0  0
  4  6  1  0  0  0  0
  5  9  2  0  0  0  0
  6  8  2  0  0  0  0
  7  9  1  0  0  0  0
  8  9  1  0  0  0  0
  1 10  1  0  0  0  0
  1 11  1  0  0  0  0
  3 12  1  0  0  0  0
  3 13  1  0  0  0  0
  4 14  1  0  0  0  0
  5 15  1  0  0  0  0
  6 16  1  0  0  0  0
  7 17  1  0  0  0  0
  7 18  1  0  0  0  0
  8 19  1  0  0  0  0
  1 20  1  0  0  0  0
M  CHG  1   1   1
M  END
$$$$
5N3C_8M2_A_401
prProtoss 03132510033D 1   1.00000     0.00000     0
Protoss beta proteinsplus
 15 15  0  0  0  0            999 V2000
  -14.1270   27.3480  -26.1410 S   0  0  0  0  0  0  0  0  0  0  0  0
  -10.4220   24.1640  -26.3790 N   0  3  0  0  0  0  0  0  0  0  0  0
  -12.4420   23.1090  -26.4360 N   0  0  0  0  0  0  0  0  0  0  0  0
  -12.5540   27.7820  -26.6970 C   0  0  0  0  0  0  0  0  0  0  0  0
  -13.6910   25.7080  -26.0030 C   0  0  0  0  0  0  0  0  0  0  0  0
  -11.7450   26.7010  -26.7600 C   0  0  0  0  0  0  0  0  0  0  0  0
  -11.7330   24.2090  -26.3880 C   0  0  0  0  0  0  0  0  0  0  0  0
  -12.3890   25.4840  -26.3670 C   0  0  0  0  0  0  0  0  0  0  0  0
   -9.8928   25.0117  -26.3421 H   0  0  0  0  0  0  0  0  0  0  0  0
   -9.9518   23.2820  -26.4090 H   0  0  0  0  0  0  0  0  0  0  0  0
  -13.4408   23.1578  -26.4423 H   0  0  0  0  0  0  0  0  0  0  0  0
  -12.2765   28.7113  -26.9408 H   0  0  0  0  0  0  0  0  0  0  0  0
  -14.3139   24.9902  -25.6919 H   0  0  0  0  0  0  0  0  0  0  0  0
  -10.7898   26.7467  -27.0526 H   0  0  0  0  0  0  0  0  0  0  0  0
  -11.9846   22.2203  -26.4664 H   0  0  0  0  0  0  0  0  0  0  0  0
  1  4  1  0  0  0  0
  1  5  1  0  0  0  0
  2  7  2  0  0  0  0
  3  7  1  0  0  0  0
  4  6  2  0  0  0  0
  5  8  2  0  0  0  0
  6  8  1  0  0  0  0
  7  8  1  0  0  0  0
  2  9  1  0  0  0  0
  2 10  1  0  0  0  0
  3 11  1  0  0  0  0
  4 12  1  0  0  0  0
  5 13  1  0  0  0  0
  6 14  1  0  0  0  0
  3 15  1  0  0  0  0
M  CHG  1   2   1
M  END
$$$$
5N3C_MPD_A_402
prProtoss 03132510033D 1   1.00000     0.00000     0
Protoss beta proteinsplus
 22 21  0  0  0  0            999 V2000
   -8.2470   12.1060   -4.4570 O   0  0  0  0  0  0  0  0  0  0  0  0
   -9.4150   13.0980   -2.3230 O   0  0  0  0  0  0  0  0  0  0  0  0
   -8.6770   13.0040   -6.6130 C   0  0  0  0  0  0  0  0  0  0  0  0
   -9.6030   15.3810   -2.9380 C   0  0  0  0  0  0  0  0  0  0  0  0
  -11.6510   13.9210   -2.5940 C   0  0  0  0  0  0  0  0  0  0  0  0
  -10.1840   13.5460   -4.5940 C   0  0  0  0  0  0  0  0  0  0  0  0
   -8.7640   13.2390   -5.1020 C   0  0  1  0  0  0  0  0  0  0  0  0
  -10.2180   13.9950   -3.1280 C   0  0  0  0  0  0  0  0  0  0  0  0
   -7.2948   11.9716   -4.7314 H   0  0  0  0  0  0  0  0  0  0  0  0
   -9.0076   12.3981   -2.9096 H   0  0  0  0  0  0  0  0  0  0  0  0
   -9.0409   13.8006   -7.0957 H   0  0  0  0  0  0  0  0  0  0  0  0
   -7.7219   12.8636   -6.8741 H   0  0  0  0  0  0  0  0  0  0  0  0
   -9.2114   12.1944   -6.8557 H   0  0  0  0  0  0  0  0  0  0  0  0
  -10.1179   16.0504   -3.4735 H   0  0  0  0  0  0  0  0  0  0  0  0
   -9.6371   15.6310   -1.9704 H   0  0  0  0  0  0  0  0  0  0  0  0
   -8.6516   15.3686   -3.2458 H   0  0  0  0  0  0  0  0  0  0  0  0
  -12.2375   14.5301   -3.1278 H   0  0  0  0  0  0  0  0  0  0  0  0
  -11.9874   12.9824   -2.6710 H   0  0  0  0  0  0  0  0  0  0  0  0
  -11.6641   14.2021   -1.6344 H   0  0  0  0  0  0  0  0  0  0  0  0
  -10.7399   12.7199   -4.6862 H   0  0  0  0  0  0  0  0  0  0  0  0
  -10.5728   14.2742   -5.1584 H   0  0  0  0  0  0  0  0  0  0  0  0
   -8.1791   14.0179   -4.8757 H   0  0  0  0  0  0  0  0  0  0  0  0
  1  7  1  0  0  0  0
  2  8  1  0  0  0  0
  3  7  1  0  0  0  0
  4  8  1  0  0  0  0
  5  8  1  0  0  0  0
  6  7  1  0  0  0  0
  6  8  1  0  0  0  0
  1  9  1  0  0  0  0
  2 10  1  0  0  0  0
  3 11  1  0  0  0  0
  3 12  1  0  0  0  0
  3 13  1  0  0  0  0
  4 14  1  0  0  0  0
  4 15  1  0  0  0  0
  4 16  1  0  0  0  0
  5 17  1  0  0  0  0
  5 18  1  0  0  0  0
  5 19  1  0  0  0  0
  6 20  1  0  0  0  0
  6 21  1  0  0  0  0
  7 22  1  0  0  0  0
M  END
$$$$
6F14_ISQ_A_401
prProtoss 03132510033D 1   1.00000     0.00000     0
Protoss beta proteinsplus
 17 18  0  0  0  0            999 V2000
  -33.4980    9.8330    4.1910 N   0  0  0  0  0  0  0  0  0  0  0  0
  -33.2290    9.7950    2.8810 C   0  0  0  0  0  0  0  0  0  0  0  0
  -28.7440   10.1470    5.0360 C   0  0  0  0  0  0  0  0  0  0  0  0
  -28.4920   10.0820    3.6770 C   0  0  0  0  0  0  0  0  0  0  0  0
  -32.4730    9.9270    5.0250 C   0  0  0  0  0  0  0  0  0  0  0  0
  -31.9720    9.8400    2.3550 C   0  0  0  0  0  0  0  0  0  0  0  0
  -30.0260   10.1030    5.5080 C   0  0  0  0  0  0  0  0  0  0  0  0
  -29.5200    9.9850    2.7840 C   0  0  0  0  0  0  0  0  0  0  0  0
  -31.1180    9.9950    4.6160 C   0  0  0  0  0  0  0  0  0  0  0  0
  -30.8650    9.9430    3.2300 C   0  0  0  0  0  0  0  0  0  0  0  0
  -33.9994    9.7294    2.2469 H   0  0  0  0  0  0  0  0  0  0  0  0
  -27.9817   10.2268    5.6783 H   0  0  0  0  0  0  0  0  0  0  0  0
  -27.5486   10.1063    3.3461 H   0  0  0  0  0  0  0  0  0  0  0  0
  -32.6679    9.9515    6.0055 H   0  0  0  0  0  0  0  0  0  0  0  0
  -31.8345    9.8008    1.3653 H   0  0  0  0  0  0  0  0  0  0  0  0
  -30.1932   10.1476    6.4929 H   0  0  0  0  0  0  0  0  0  0  0  0
  -29.3221    9.9431    1.8047 H   0  0  0  0  0  0  0  0  0  0  0  0
  1  2  2  0  0  0  0
  1  5  1  0  0  0  0
  2  6  1  0  0  0  0
  3  4  1  0  0  0  0
  3  7  2  0  0  0  0
  4  8  2  0  0  0  0
  5  9  2  0  0  0  0
  6 10  2  0  0  0  0
  7  9  1  0  0  0  0
  8 10  1  0  0  0  0
  9 10  1  0  0  0  0
  2 11  1  0  0  0  0
  3 12  1  0  0  0  0
  4 13  1  0  0  0  0
  5 14  1  0  0  0  0
  6 15  1  0  0  0  0
  7 16  1  0  0  0  0
  8 17  1  0  0  0  0
M  END
$$$$
6F14_MRD_A_402
prProtoss 03132510033D 1   1.00000     0.00000     0
Protoss beta proteinsplus
 22 21  0  0  0  0            999 V2000
  -27.3620    7.1580   15.8710 O   0  0  0  0  0  0  0  0  0  0  0  0
  -28.7120    2.6200   16.4800 O   0  0  0  0  0  0  0  0  0  0  0  0
  -26.1030    5.5120   17.0640 C   0  0  0  0  0  0  0  0  0  0  0  0
  -28.7490    3.9750   18.4300 C   0  0  0  0  0  0  0  0  0  0  0  0
  -30.6310    4.0230   16.7930 C   0  0  0  0  0  0  0  0  0  0  0  0
  -28.3900    4.9890   16.0910 C   0  0  0  0  0  0  0  0  0  0  0  0
  -27.4860    6.0440   16.7630 C   0  0  2  0  0  0  0  0  0  0  0  0
  -29.1210    3.9170   16.9580 C   0  0  0  0  0  0  0  0  0  0  0  0
  -28.2702    7.5209   15.6626 H   0  0  0  0  0  0  0  0  0  0  0  0
  -27.9170    2.3084   17.0005 H   0  0  0  0  0  0  0  0  0  0  0  0
  -26.1738    4.7327   17.6866 H   0  0  0  0  0  0  0  0  0  0  0  0
  -25.6656    5.2203   16.2133 H   0  0  0  0  0  0  0  0  0  0  0  0
  -25.5549    6.2311   17.4911 H   0  0  0  0  0  0  0  0  0  0  0  0
  -29.0155    4.8623   18.8065 H   0  0  0  0  0  0  0  0  0  0  0  0
  -29.2253    3.2470   18.9231 H   0  0  0  0  0  0  0  0  0  0  0  0
  -27.7613    3.8539   18.5292 H   0  0  0  0  0  0  0  0  0  0  0  0
  -30.9400    4.9166   17.1186 H   0  0  0  0  0  0  0  0  0  0  0  0
  -30.8689    3.9196   15.8272 H   0  0  0  0  0  0  0  0  0  0  0  0
  -31.0758    3.3024   17.3248 H   0  0  0  0  0  0  0  0  0  0  0  0
  -27.8169    4.4911   15.4401 H   0  0  0  0  0  0  0  0  0  0  0  0
  -29.0988    5.4908   15.5952 H   0  0  0  0  0  0  0  0  0  0  0  0
  -27.9134    6.3497   17.6138 H   0  0  0  0  0  0  0  0  0  0  0  0
  1  7  1  0  0  0  0
  2  8  1  0  0  0  0
  3  7  1  0  0  0  0
  4  8  1  0  0  0  0
  5  8  1  0  0  0  0
  6  7  1  0  0  0  0
  6  8  1  0  0  0  0
  1  9  1  0  0  0  0
  2 10  1  0  0  0  0
  3 11  1  0  0  0  0
  3 12  1  0  0  0  0
  3 13  1  0  0  0  0
  4 14  1  0  0  0  0
  4 15  1  0  0  0  0
  4 16  1  0  0  0  0
  5 17  1  0  0  0  0
  5 18  1  0  0  0  0
  5 19  1  0  0  0  0
  6 20  1  0  0  0  0
  6 21  1  0  0  0  0
  7 22  1  0  0  0  0
M  END
$$$$
6YPP_ISQ_A_401
prProtoss 08182323023D 1   1.00000     0.00000     0
Protoss beta proteinsplus
 17 18  0  0  0  0            999 V2000
   16.9660    2.6180   20.9410 N   0  0  0  0  0  0  0  0  0  0  0  0
   16.7130    3.9270   20.7620 C   0  0  0  0  0  0  0  0  0  0  0  0
   12.4490    1.6750   19.5080 C   0  0  0  0  0  0  0  0  0  0  0  0
   12.2130    3.0240   19.3380 C   0  0  0  0  0  0  0  0  0  0  0  0
   16.0050    1.7610   20.6280 C   0  0  0  0  0  0  0  0  0  0  0  0
   15.5310    4.4190   20.2990 C   0  0  0  0  0  0  0  0  0  0  0  0
   13.6810    1.2280   19.9000 C   0  0  0  0  0  0  0  0  0  0  0  0
   13.2020    3.9370   19.5650 C   0  0  0  0  0  0  0  0  0  0  0  0
   14.7300    2.1370   20.1470 C   0  0  0  0  0  0  0  0  0  0  0  0
   14.4890    3.5210   19.9820 C   0  0  0  0  0  0  0  0  0  0  0  0
   17.4382    4.5792   20.9827 H   0  0  0  0  0  0  0  0  0  0  0  0
   11.7129    1.0185   19.3432 H   0  0  0  0  0  0  0  0  0  0  0  0
   11.3089    3.3356   19.0457 H   0  0  0  0  0  0  0  0  0  0  0  0
   16.1939    0.7853   20.7392 H   0  0  0  0  0  0  0  0  0  0  0  0
   15.4026    5.4041   20.1849 H   0  0  0  0  0  0  0  0  0  0  0  0
   13.8391    0.2470   20.0125 H   0  0  0  0  0  0  0  0  0  0  0  0
   13.0151    4.9108   19.4352 H   0  0  0  0  0  0  0  0  0  0  0  0
  1  2  2  0  0  0  0
  1  5  1  0  0  0  0
  2  6  1  0  0  0  0
  3  4  1  0  0  0  0
  3  7  2  0  0  0  0
  4  8  2  0  0  0  0
  5  9  2  0  0  0  0
  6 10  2  0  0  0  0
  7  9  1  0  0  0  0
  8 10  1  0  0  0  0
  9 10  1  0  0  0  0
  2 11  1  0  0  0  0
  3 12  1  0  0  0  0
  4 13  1  0  0  0  0
  5 14  1  0  0  0  0
  6 15  1  0  0  0  0
  7 16  1  0  0  0  0
  8 17  1  0  0  0  0
M  END
$$$$
5N36_MPD_A_401
prProtoss 03132510043D 1   1.00000     0.00000     0
Protoss beta proteinsplus
 22 21  0  0  0  0            999 V2000
   -8.1240   12.4000   -4.6130 O   0  0  0  0  0  0  0  0  0  0  0  0
   -9.3840   13.1920   -2.4430 O   0  0  0  0  0  0  0  0  0  0  0  0
   -8.7130   13.1480   -6.7630 C   0  0  0  0  0  0  0  0  0  0  0  0
   -9.7400   15.4700   -3.0670 C   0  0  0  0  0  0  0  0  0  0  0  0
  -11.6650   13.9600   -2.6750 C   0  0  0  0  0  0  0  0  0  0  0  0
  -10.2220   13.6020   -4.7050 C   0  0  0  0  0  0  0  0  0  0  0  0
   -8.7940   13.4490   -5.2630 C   0  0  1  0  0  0  0  0  0  0  0  0
  -10.2470   14.0450   -3.2370 C   0  0  0  0  0  0  0  0  0  0  0  0
   -8.5281   12.2554   -3.7098 H   0  0  0  0  0  0  0  0  0  0  0  0
   -9.9288   12.7179   -1.7513 H   0  0  0  0  0  0  0  0  0  0  0  0
   -9.1788   13.8707   -7.2736 H   0  0  0  0  0  0  0  0  0  0  0  0
   -7.7540   13.1067   -7.0434 H   0  0  0  0  0  0  0  0  0  0  0  0
   -9.1534   12.2701   -6.9511 H   0  0  0  0  0  0  0  0  0  0  0  0
  -10.3111   16.0930   -3.6015 H   0  0  0  0  0  0  0  0  0  0  0  0
   -9.7815   15.7256   -2.1011 H   0  0  0  0  0  0  0  0  0  0  0  0
   -8.7942   15.5277   -3.3867 H   0  0  0  0  0  0  0  0  0  0  0  0
  -12.2725   14.5441   -3.2133 H   0  0  0  0  0  0  0  0  0  0  0  0
  -11.9855   13.0139   -2.7207 H   0  0  0  0  0  0  0  0  0  0  0  0
  -11.6652   14.2664   -1.7231 H   0  0  0  0  0  0  0  0  0  0  0  0
  -10.6896   12.7213   -4.7802 H   0  0  0  0  0  0  0  0  0  0  0  0
  -10.7066   14.2845   -5.2522 H   0  0  0  0  0  0  0  0  0  0  0  0
   -8.2953   14.2974   -5.0858 H   0  0  0  0  0  0  0  0  0  0  0  0
  1  7  1  0  0  0  0
  2  8  1  0  0  0  0
  3  7  1  0  0  0  0
  4  8  1  0  0  0  0
  5  8  1  0  0  0  0
  6  7  1  0  0  0  0
  6  8  1  0  0  0  0
  1  9  1  0  0  0  0
  2 10  1  0  0  0  0
  3 11  1  0  0  0  0
  3 12  1  0  0  0  0
  3 13  1  0  0  0  0
  4 14  1  0  0  0  0
  4 15  1  0  0  0  0
  4 16  1  0  0  0  0
  5 17  1  0  0  0  0
  5 18  1  0  0  0  0
  5 19  1  0  0  0  0
  6 20  1  0  0  0  0
  6 21  1  0  0  0  0
  7 22  1  0  0  0  0
M  END
$$$$
5N36_F05_A_402
prProtoss 03132510043D 1   1.00000     0.00000     0
Protoss beta proteinsplus
 18 19  0  0  0  0            999 V2000
   -9.7380   24.5020  -25.9350 N   0  0  0  0  0  0  0  0  0  0  0  0
  -10.5890   26.7260  -26.1660 N   0  0  0  0  0  0  0  0  0  0  0  0
  -11.8650   27.4400  -26.1940 C   0  0  0  0  0  0  0  0  0  0  0  0
  -14.9200   25.1950  -25.5360 C   0  0  0  0  0  0  0  0  0  0  0  0
  -14.2650   23.9750  -25.5840 C   0  0  0  0  0  0  0  0  0  0  0  0
  -14.2150   26.3710  -25.7250 C   0  0  0  0  0  0  0  0  0  0  0  0
  -12.8960   23.9210  -25.8000 C   0  0  0  0  0  0  0  0  0  0  0  0
  -10.7310   25.4210  -26.0300 C   0  0  0  0  0  0  0  0  0  0  0  0
  -12.8420   26.3290  -25.9370 C   0  0  0  0  0  0  0  0  0  0  0  0
  -12.1790   25.1080  -25.9510 C   0  0  0  0  0  0  0  0  0  0  0  0
   -9.9619   23.5326  -25.8339 H   0  0  0  0  0  0  0  0  0  0  0  0
   -8.7820   24.7938  -25.9661 H   0  0  0  0  0  0  0  0  0  0  0  0
  -12.0243   27.8667  -27.0842 H   0  0  0  0  0  0  0  0  0  0  0  0
  -11.9086   28.1366  -25.4778 H   0  0  0  0  0  0  0  0  0  0  0  0
  -15.9047   25.2260  -25.3644 H   0  0  0  0  0  0  0  0  0  0  0  0
  -14.7826   23.1281  -25.4621 H   0  0  0  0  0  0  0  0  0  0  0  0
  -14.6927   27.2494  -25.7090 H   0  0  0  0  0  0  0  0  0  0  0  0
  -12.4271   23.0390  -25.8471 H   0  0  0  0  0  0  0  0  0  0  0  0
  1  8  1  0  0  0  0
  2  3  1  0  0  0  0
  2  8  2  0  0  0  0
  3  9  1  0  0  0  0
  4  5  2  0  0  0  0
  4  6  1  0  0  0  0
  5  7  1  0  0  0  0
  6  9  2  0  0  0  0
  7 10  2  0  0  0  0
  8 10  1  0  0  0  0
  9 10  1  0  0  0  0
  1 11  1  0  0  0  0
  1 12  1  0  0  0  0
  3 13  1  0  0  0  0
  3 14  1  0  0  0  0
  4 15  1  0  0  0  0
  5 16  1  0  0  0  0
  6 17  1  0  0  0  0
  7 18  1  0  0  0  0
M  END
$$$$
4YXR_0RW_A_401
prProtoss 05262315253D 1   1.00000     0.00000     0
Protoss beta proteinsplus
 18 19  0  0  0  0            999 V2000
    2.8560    9.9360    3.7680 N   0  0  0  0  0  0  0  0  0  0  0  0
    2.9100    9.9000    2.4260 N   0  0  0  0  0  0  0  0  0  0  0  0
    4.3840   10.0420    5.7690 C   0  0  0  0  0  0  0  0  0  0  0  0
    6.1940    9.9590    0.6160 C   0  0  0  0  0  0  0  0  0  0  0  0
    6.9800   10.0080    1.7760 C   0  0  0  0  0  0  0  0  0  0  0  0
    4.7980    9.9180    0.7150 C   0  0  0  0  0  0  0  0  0  0  0  0
    6.3720   10.0210    3.0460 C   0  0  0  0  0  0  0  0  0  0  0  0
    4.0840    9.9890    4.2890 C   0  0  0  0  0  0  0  0  0  0  0  0
    4.2060    9.9300    1.9540 C   0  0  0  0  0  0  0  0  0  0  0  0
    4.9980    9.9820    3.1540 C   0  0  0  0  0  0  0  0  0  0  0  0
    2.1032    9.8564    1.8368 H   0  0  0  0  0  0  0  0  0  0  0  0
    5.3738   10.0764    5.9075 H   0  0  0  0  0  0  0  0  0  0  0  0
    3.9634   10.8581    6.1653 H   0  0  0  0  0  0  0  0  0  0  0  0
    4.0133    9.2266    6.2137 H   0  0  0  0  0  0  0  0  0  0  0  0
    6.6311    9.9533   -0.2834 H   0  0  0  0  0  0  0  0  0  0  0  0
    7.9769   10.0338    1.7011 H   0  0  0  0  0  0  0  0  0  0  0  0
    4.2357    9.8802   -0.1111 H   0  0  0  0  0  0  0  0  0  0  0  0
    6.9371   10.0585    3.8702 H   0  0  0  0  0  0  0  0  0  0  0  0
  1  2  1  0  0  0  0
  1  8  2  0  0  0  0
  2  9  1  0  0  0  0
  3  8  1  0  0  0  0
  4  5  2  0  0  0  0
  4  6  1  0  0  0  0
  5  7  1  0  0  0  0
  6  9  2  0  0  0  0
  7 10  2  0  0  0  0
  8 10  1  0  0  0  0
  9 10  1  0  0  0  0
  2 11  1  0  0  0  0
  3 12  1  0  0  0  0
  3 13  1  0  0  0  0
  3 14  1  0  0  0  0
  4 15  1  0  0  0  0
  5 16  1  0  0  0  0
  6 17  1  0  0  0  0
  7 18  1  0  0  0  0
M  END
$$$$
5N3P_MPD_A_401
prProtoss 03132510043D 1   1.00000     0.00000     0
Protoss beta proteinsplus
 22 21  0  0  0  0            999 V2000
  -16.9480   26.6030  -35.9380 O   0  0  0  0  0  0  0  0  0  0  0  0
  -15.4290   25.5540  -34.1440 O   0  0  0  0  0  0  0  0  0  0  0  0
  -18.9920   25.5330  -36.6000 C   0  0  0  0  0  0  0  0  0  0  0  0
  -17.1750   25.9470  -32.4890 C   0  0  0  0  0  0  0  0  0  0  0  0
  -16.1680   23.6800  -32.9180 C   0  0  0  0  0  0  0  0  0  0  0  0
  -17.6790   24.6990  -34.6200 C   0  0  0  0  0  0  0  0  0  0  0  0
  -18.0850   25.9300  -35.4380 C   0  0  1  0  0  0  0  0  0  0  0  0
  -16.6240   24.9860  -33.5460 C   0  0  0  0  0  0  0  0  0  0  0  0
  -16.4492   25.9985  -36.5592 H   0  0  0  0  0  0  0  0  0  0  0  0
  -15.0704   24.9253  -34.8340 H   0  0  0  0  0  0  0  0  0  0  0  0
  -19.7971   25.0565  -36.2467 H   0  0  0  0  0  0  0  0  0  0  0  0
  -19.2802   26.3537  -37.0934 H   0  0  0  0  0  0  0  0  0  0  0  0
  -18.4929   24.9287  -37.2211 H   0  0  0  0  0  0  0  0  0  0  0  0
  -17.9979   25.5544  -32.0782 H   0  0  0  0  0  0  0  0  0  0  0  0
  -16.4855   26.0932  -31.7796 H   0  0  0  0  0  0  0  0  0  0  0  0
  -17.4015   26.8210  -32.9189 H   0  0  0  0  0  0  0  0  0  0  0  0
  -16.9475   23.2293  -32.4829 H   0  0  0  0  0  0  0  0  0  0  0  0
  -15.7908   23.0833  -33.6263 H   0  0  0  0  0  0  0  0  0  0  0  0
  -15.4656   23.8677  -32.2314 H   0  0  0  0  0  0  0  0  0  0  0  0
  -17.3112   24.0120  -35.2467 H   0  0  0  0  0  0  0  0  0  0  0  0
  -18.4954   24.3368  -34.1703 H   0  0  0  0  0  0  0  0  0  0  0  0
  -18.5880   26.5558  -34.8419 H   0  0  0  0  0  0  0  0  0  0  0  0
  1  7  1  0  0  0  0
  2  8  1  0  0  0  0
  3  7  1  0  0  0  0
  4  8  1  0  0  0  0
  5  8  1  0  0  0  0
  6  7  1  0  0  0  0
  6  8  1  0  0  0  0
  1  9  1  0  0  0  0
  2 10  1  0  0  0  0
  3 11  1  0  0  0  0
  3 12  1  0  0  0  0
  3 13  1  0  0  0  0
  4 14  1  0  0  0  0
  4 15  1  0  0  0  0
  4 16  1  0  0  0  0
  5 17  1  0  0  0  0
  5 18  1  0  0  0  0
  5 19  1  0  0  0  0
  6 20  1  0  0  0  0
  6 21  1  0  0  0  0
  7 22  1  0  0  0  0
M  END
$$$$
5N3P_MPD_A_402
prProtoss 03132510043D 1   1.00000     0.00000     0
Protoss beta proteinsplus
 22 21  0  0  0  0            999 V2000
   -8.7360   19.5330  -10.0410 O   0  0  0  0  0  0  0  0  0  0  0  0
   -7.4870   18.1720   -8.0700 O   0  0  0  0  0  0  0  0  0  0  0  0
   -9.3760   18.1550  -11.9170 C   0  0  0  0  0  0  0  0  0  0  0  0
   -5.9620   16.4950   -8.7750 C   0  0  0  0  0  0  0  0  0  0  0  0
   -5.5650   18.9690   -9.1690 C   0  0  0  0  0  0  0  0  0  0  0  0
   -7.2960   17.7330  -10.5510 C   0  0  0  0  0  0  0  0  0  0  0  0
   -8.7380   18.2150  -10.5370 C   0  0  1  0  0  0  0  0  0  0  0  0
   -6.5950   17.8340   -9.1750 C   0  0  0  0  0  0  0  0  0  0  0  0
   -9.6767   19.8657   -9.9749 H   0  0  0  0  0  0  0  0  0  0  0  0
   -8.2584   18.7063   -8.4158 H   0  0  0  0  0  0  0  0  0  0  0  0
   -9.3661   17.2114  -12.2481 H   0  0  0  0  0  0  0  0  0  0  0  0
  -10.3204   18.4791  -11.8620 H   0  0  0  0  0  0  0  0  0  0  0  0
   -8.8608   18.7350  -12.5479 H   0  0  0  0  0  0  0  0  0  0  0  0
   -5.3317   16.1969   -9.4919 H   0  0  0  0  0  0  0  0  0  0  0  0
   -5.4617   16.6061   -7.9163 H   0  0  0  0  0  0  0  0  0  0  0  0
   -6.6800   15.8092   -8.6561 H   0  0  0  0  0  0  0  0  0  0  0  0
   -4.9021   18.8215   -9.9031 H   0  0  0  0  0  0  0  0  0  0  0  0
   -6.0307   19.8425   -9.3110 H   0  0  0  0  0  0  0  0  0  0  0  0
   -5.0902   18.9836   -8.2890 H   0  0  0  0  0  0  0  0  0  0  0  0
   -6.7841   18.2866  -11.2079 H   0  0  0  0  0  0  0  0  0  0  0  0
   -7.2854   16.7762  -10.8416 H   0  0  0  0  0  0  0  0  0  0  0  0
   -9.2646   17.6371   -9.9135 H   0  0  0  0  0  0  0  0  0  0  0  0
  1  7  1  0  0  0  0
  2  8  1  0  0  0  0
  3  7  1  0  0  0  0
  4  8  1  0  0  0  0
  5  8  1  0  0  0  0
  6  7  1  0  0  0  0
  6  8  1  0  0  0  0
  1  9  1  0  0  0  0
  2 10  1  0  0  0  0
  3 11  1  0  0  0  0
  3 12  1  0  0  0  0
  3 13  1  0  0  0  0
  4 14  1  0  0  0  0
  4 15  1  0  0  0  0
  4 16  1  0  0  0  0
  5 17  1  0  0  0  0
  5 18  1  0  0  0  0
  5 19  1  0  0  0  0
  6 20  1  0  0  0  0
  6 21  1  0  0  0  0
  7 22  1  0  0  0  0
M  END
$$$$
5N3P_5H1_A_403
prProtoss 03132510043D 1   1.00000     0.00000     0
Protoss beta proteinsplus
 17 18  0  0  0  0            999 V2000
   -8.8270    3.1410  -28.3470 O   0  0  0  0  0  0  0  0  0  0  0  0
  -13.9870    3.6430  -30.1130 N   0  0  0  0  0  0  0  0  0  0  0  0
  -14.3180    2.3220  -30.2670 C   0  0  0  0  0  0  0  0  0  0  0  0
  -10.5890    4.6260  -28.9750 C   0  0  0  0  0  0  0  0  0  0  0  0
  -13.2650    1.5400  -29.9310 C   0  0  0  0  0  0  0  0  0  0  0  0
  -11.8870    4.8290  -29.4230 C   0  0  0  0  0  0  0  0  0  0  0  0
  -10.8940    2.2300  -29.0990 C   0  0  0  0  0  0  0  0  0  0  0  0
  -10.0960    3.3320  -28.8120 C   0  0  0  0  0  0  0  0  0  0  0  0
  -12.6830    3.7250  -29.6830 C   0  0  0  0  0  0  0  0  0  0  0  0
  -12.1980    2.4130  -29.5410 C   0  0  0  0  0  0  0  0  0  0  0  0
   -8.2525    3.9285  -28.1238 H   0  0  0  0  0  0  0  0  0  0  0  0
  -14.5935    4.4193  -30.2849 H   0  0  0  0  0  0  0  0  0  0  0  0
  -15.2058    1.9855  -30.5810 H   0  0  0  0  0  0  0  0  0  0  0  0
  -10.0051    5.4110  -28.7683 H   0  0  0  0  0  0  0  0  0  0  0  0
  -13.2372    0.5406  -29.9512 H   0  0  0  0  0  0  0  0  0  0  0  0
  -12.2411    5.7548  -29.5556 H   0  0  0  0  0  0  0  0  0  0  0  0
  -10.5291    1.3057  -28.9872 H   0  0  0  0  0  0  0  0  0  0  0  0
  1  8  1  0  0  0  0
  2  3  1  0  0  0  0
  2  9  1  0  0  0  0
  3  5  2  0  0  0  0
  4  6  1  0  0  0  0
  4  8  2  0  0  0  0
  5 10  1  0  0  0  0
  6  9  2  0  0  0  0
  7  8  1  0  0  0  0
  7 10  2  0  0  0  0
  9 10  1  0  0  0  0
  1 11  1  0  0  0  0
  2 12  1  0  0  0  0
  3 13  1  0  0  0  0
  4 14  1  0  0  0  0
  5 15  1  0  0  0  0
  6 16  1  0  0  0  0
  7 17  1  0  0  0  0
M  END
$$$$
5N3P_DMS_A_404
prProtoss 03132510043D 1   1.00000     0.00000     0
Protoss beta proteinsplus
 10  9  0  0  0  0            999 V2000
  -34.9600   -2.4130   -8.1540 S   0  0  0  0  0  0  0  0  0  0  0  0
  -34.1760   -1.1500   -7.9830 O   0  0  0  0  0  0  0  0  0  0  0  0
  -34.8100   -3.4320   -6.6590 C   0  0  0  0  0  0  0  0  0  0  0  0
  -36.7370   -2.0520   -8.0960 C   0  0  0  0  0  0  0  0  0  0  0  0
  -35.3348   -4.2751   -6.7762 H   0  0  0  0  0  0  0  0  0  0  0  0
  -33.8480   -3.6570   -6.5041 H   0  0  0  0  0  0  0  0  0  0  0  0
  -35.1645   -2.9252   -5.8732 H   0  0  0  0  0  0  0  0  0  0  0  0
  -37.2535   -2.9006   -8.2109 H   0  0  0  0  0  0  0  0  0  0  0  0
  -36.9648   -1.6400   -7.2137 H   0  0  0  0  0  0  0  0  0  0  0  0
  -36.9722   -1.4164   -8.8313 H   0  0  0  0  0  0  0  0  0  0  0  0
  1  2  2  0  0  0  0
  1  3  1  0  0  0  0
  1  4  1  0  0  0  0
  3  5  1  0  0  0  0
  3  6  1  0  0  0  0
  3  7  1  0  0  0  0
  4  8  1  0  0  0  0
  4  9  1  0  0  0  0
  4 10  1  0  0  0  0
M  END
$$$$
6Y05_ADE_A_401
prProtoss 08182322583D 1   1.00000     0.00000     0
Protoss beta proteinsplus
 15 16  0  0  0  0            999 V2000
  -29.3290    9.8270    4.0730 N   0  0  0  0  0  0  0  0  0  0  0  0
  -31.3060    9.8720    5.2790 N   0  0  0  0  0  0  0  0  0  0  0  0
  -33.4880    9.9100    4.2570 N   0  0  0  0  0  0  0  0  0  0  0  0
  -33.3720    9.9520    1.8350 N   0  0  0  0  0  0  0  0  0  0  0  0
  -31.1440    9.9250    1.5680 N   0  0  0  0  0  0  0  0  0  0  0  0
  -32.6420    9.8940    5.2930 C   0  0  0  0  0  0  0  0  0  0  0  0
  -32.3230    9.9680    0.9740 C   0  0  0  0  0  0  0  0  0  0  0  0
  -30.6700    9.8600    4.0840 C   0  0  0  0  0  0  0  0  0  0  0  0
  -32.8360    9.9040    3.0910 C   0  0  0  0  0  0  0  0  0  0  0  0
  -31.4610    9.8840    2.9170 C   0  0  0  0  0  0  0  0  0  0  0  0
  -28.8362    9.8175    3.2029 H   0  0  0  0  0  0  0  0  0  0  0  0
  -28.8221    9.8119    4.9349 H   0  0  0  0  0  0  0  0  0  0  0  0
  -34.3432    9.9715    1.5976 H   0  0  0  0  0  0  0  0  0  0  0  0
  -33.0659    9.8992    6.1987 H   0  0  0  0  0  0  0  0  0  0  0  0
  -32.4326   10.0086   -0.0191 H   0  0  0  0  0  0  0  0  0  0  0  0
  1  8  1  0  0  0  0
  2  6  1  0  0  0  0
  2  8  2  0  0  0  0
  3  6  2  0  0  0  0
  3  9  1  0  0  0  0
  4  7  1  0  0  0  0
  4  9  1  0  0  0  0
  5  7  2  0  0  0  0
  5 10  1  0  0  0  0
  8 10  1  0  0  0  0
  9 10  2  0  0  0  0
  1 11  1  0  0  0  0
  1 12  1  0  0  0  0
  4 13  1  0  0  0  0
  6 14  1  0  0  0  0
  7 15  1  0  0  0  0
M  END
$$$$
6Y05_MRD_A_402
prProtoss 08182322583D 1   1.00000     0.00000     0
Protoss beta proteinsplus
 22 21  0  0  0  0            999 V2000
  -38.8950   -9.7940   -9.3310 O   0  0  0  0  0  0  0  0  0  0  0  0
  -41.3160  -10.2040   -9.1810 O   0  0  0  0  0  0  0  0  0  0  0  0
  -37.9750   -7.5660   -9.3880 C   0  0  0  0  0  0  0  0  0  0  0  0
  -41.1520   -9.3060   -6.9830 C   0  0  0  0  0  0  0  0  0  0  0  0
  -42.8680   -8.4850   -8.6090 C   0  0  0  0  0  0  0  0  0  0  0  0
  -40.4320   -7.8940   -8.9260 C   0  0  0  0  0  0  0  0  0  0  0  0
  -39.1850   -8.4310   -9.6710 C   0  0  2  0  0  0  0  0  0  0  0  0
  -41.4400   -8.9760   -8.4400 C   0  0  0  0  0  0  0  0  0  0  0  0
  -39.7365  -10.2526   -9.0453 H   0  0  0  0  0  0  0  0  0  0  0  0
  -42.1856  -10.4124   -9.6287 H   0  0  0  0  0  0  0  0  0  0  0  0
  -38.1808   -6.6168   -9.6261 H   0  0  0  0  0  0  0  0  0  0  0  0
  -37.7440   -7.6234   -8.4167 H   0  0  0  0  0  0  0  0  0  0  0  0
  -37.2011   -7.8864   -9.9342 H   0  0  0  0  0  0  0  0  0  0  0  0
  -41.2282   -8.4752   -6.4317 H   0  0  0  0  0  0  0  0  0  0  0  0
  -41.8119   -9.9834   -6.6579 H   0  0  0  0  0  0  0  0  0  0  0  0
  -40.2266   -9.6763   -6.9017 H   0  0  0  0  0  0  0  0  0  0  0  0
  -42.9884   -7.6300   -8.1046 H   0  0  0  0  0  0  0  0  0  0  0  0
  -43.0542   -8.3288   -9.5790 H   0  0  0  0  0  0  0  0  0  0  0  0
  -43.5012   -9.1731   -8.2546 H   0  0  0  0  0  0  0  0  0  0  0  0
  -40.9177   -7.2760   -9.5441 H   0  0  0  0  0  0  0  0  0  0  0  0
  -40.1168   -7.3847   -8.1252 H   0  0  0  0  0  0  0  0  0  0  0  0
  -39.3707   -8.3905  -10.6528 H   0  0  0  0  0  0  0  0  0  0  0  0
  1  7  1  0  0  0  0
  2  8  1  0  0  0  0
  3  7  1  0  0  0  0
  4  8  1  0  0  0  0
  5  8  1  0  0  0  0
  6  7  1  0  0  0  0
  6  8  1  0  0  0  0
  1  9  1  0  0  0  0
  2 10  1  0  0  0  0
  3 11  1  0  0  0  0
  3 12  1  0  0  0  0
  3 13  1  0  0  0  0
  4 14  1  0  0  0  0
  4 15  1  0  0  0  0
  4 16  1  0  0  0  0
  5 17  1  0  0  0  0
  5 18  1  0  0  0  0
  5 19  1  0  0  0  0
  6 20  1  0  0  0  0
  6 21  1  0  0  0  0
  7 22  1  0  0  0  0
M  END
$$$$
6Y05_MPD_A_403
prProtoss 08182322583D 1   1.00000     0.00000     0
Protoss beta proteinsplus
 22 21  0  0  0  0            999 V2000
  -26.6550    5.5020   17.3540 O   0  0  0  0  0  0  0  0  0  0  0  0
  -28.5380    4.0940   18.2470 O   0  0  0  0  0  0  0  0  0  0  0  0
  -27.0650    6.9810   15.5410 C   0  0  0  0  0  0  0  0  0  0  0  0
  -30.6470    4.0880   17.0910 C   0  0  0  0  0  0  0  0  0  0  0  0
  -28.6940    2.6750   16.3190 C   0  0  0  0  0  0  0  0  0  0  0  0
  -28.6550    5.1450   16.0340 C   0  0  0  0  0  0  0  0  0  0  0  0
  -27.6930    6.1500   16.6530 C   0  0  1  0  0  0  0  0  0  0  0  0
  -29.1300    4.0040   16.9290 C   0  0  0  0  0  0  0  0  0  0  0  0
  -25.8916    5.3269   16.7323 H   0  0  0  0  0  0  0  0  0  0  0  0
  -27.6360    4.5203   18.1789 H   0  0  0  0  0  0  0  0  0  0  0  0
  -27.7842    7.4508   15.0292 H   0  0  0  0  0  0  0  0  0  0  0  0
  -26.4441    7.6561   15.9394 H   0  0  0  0  0  0  0  0  0  0  0  0
  -26.5545    6.3815   14.9246 H   0  0  0  0  0  0  0  0  0  0  0  0
  -31.0820    4.0281   16.1926 H   0  0  0  0  0  0  0  0  0  0  0  0
  -30.9632    3.3330   17.6655 H   0  0  0  0  0  0  0  0  0  0  0  0
  -30.8886    4.9579   17.5210 H   0  0  0  0  0  0  0  0  0  0  0  0
  -29.0882    2.5826   15.4046 H   0  0  0  0  0  0  0  0  0  0  0  0
  -27.6963    2.6484   16.2561 H   0  0  0  0  0  0  0  0  0  0  0  0
  -29.0117    1.9230   16.8965 H   0  0  0  0  0  0  0  0  0  0  0  0
  -28.1992    4.7384   15.2422 H   0  0  0  0  0  0  0  0  0  0  0  0
  -29.4642    5.6483   15.7308 H   0  0  0  0  0  0  0  0  0  0  0  0
  -28.1932    6.7505   17.2769 H   0  0  0  0  0  0  0  0  0  0  0  0
  1  7  1  0  0  0  0
  2  8  1  0  0  0  0
  3  7  1  0  0  0  0
  4  8  1  0  0  0  0
  5  8  1  0  0  0  0
  6  7  1  0  0  0  0
  6  8  1  0  0  0  0
  1  9  1  0  0  0  0
  2 10  1  0  0  0  0
  3 11  1  0  0  0  0
  3 12  1  0  0  0  0
  3 13  1  0  0  0  0
  4 14  1  0  0  0  0
  4 15  1  0  0  0  0
  4 16  1  0  0  0  0
  5 17  1  0  0  0  0
  5 18  1  0  0  0  0
  5 19  1  0  0  0  0
  6 20  1  0  0  0  0
  6 21  1  0  0  0  0
  7 22  1  0  0  0  0
M  END
$$$$
6Y05_MRD_B_101
prProtoss 08182322583D 1   1.00000     0.00000     0
Protoss beta proteinsplus
 22 21  0  0  0  0            999 V2000
  -20.3880  -11.9940   17.1570 O   0  0  0  0  0  0  0  0  0  0  0  0
  -19.8550  -10.5340   21.2480 O   0  0  0  0  0  0  0  0  0  0  0  0
  -21.0590   -9.7590   16.5600 C   0  0  0  0  0  0  0  0  0  0  0  0
  -20.9100  -12.3710   20.1760 C   0  0  0  0  0  0  0  0  0  0  0  0
  -18.5320  -11.7590   19.6810 C   0  0  0  0  0  0  0  0  0  0  0  0
  -20.4160  -10.2250   18.9120 C   0  0  0  0  0  0  0  0  0  0  0  0
  -21.0550  -10.8190   17.6400 C   0  0  2  0  0  0  0  0  0  0  0  0
  -19.9230  -11.2280   19.9890 C   0  0  0  0  0  0  0  0  0  0  0  0
  -21.0202  -12.7685   17.1779 H   0  0  0  0  0  0  0  0  0  0  0  0
  -20.5439   -9.8094   21.2668 H   0  0  0  0  0  0  0  0  0  0  0  0
  -21.5241   -8.9407   16.8978 H   0  0  0  0  0  0  0  0  0  0  0  0
  -20.1171   -9.5297   16.3145 H   0  0  0  0  0  0  0  0  0  0  0  0
  -21.5385  -10.1061   15.7540 H   0  0  0  0  0  0  0  0  0  0  0  0
  -20.9906  -12.8849   19.3219 H   0  0  0  0  0  0  0  0  0  0  0  0
  -20.5837  -12.9779   20.9007 H   0  0  0  0  0  0  0  0  0  0  0  0
  -21.8043  -12.0013   20.4283 H   0  0  0  0  0  0  0  0  0  0  0  0
  -18.5474  -12.2479   18.8088 H   0  0  0  0  0  0  0  0  0  0  0  0
  -17.8888  -10.9954   19.6238 H   0  0  0  0  0  0  0  0  0  0  0  0
  -18.2449  -12.3829   20.4078 H   0  0  0  0  0  0  0  0  0  0  0  0
  -21.0962   -9.6313   19.3419 H   0  0  0  0  0  0  0  0  0  0  0  0
  -19.6289   -9.6781   18.6267 H   0  0  0  0  0  0  0  0  0  0  0  0
  -22.0032  -11.0592   17.8477 H   0  0  0  0  0  0  0  0  0  0  0  0
  1  7  1  0  0  0  0
  2  8  1  0  0  0  0
  3  7  1  0  0  0  0
  4  8  1  0  0  0  0
  5  8  1  0  0  0  0
  6  7  1  0  0  0  0
  6  8  1  0  0  0  0
  1  9  1  0  0  0  0
  2 10  1  0  0  0  0
  3 11  1  0  0  0  0
  3 12  1  0  0  0  0
  3 13  1  0  0  0  0
  4 14  1  0  0  0  0
  4 15  1  0  0  0  0
  4 16  1  0  0  0  0
  5 17  1  0  0  0  0
  5 18  1  0  0  0  0
  5 19  1  0  0  0  0
  6 20  1  0  0  0  0
  6 21  1  0  0  0  0
  7 22  1  0  0  0  0
M  END
$$$$
5N3Q_MPD_A_401
prProtoss 03132510043D 1   1.00000     0.00000     0
Protoss beta proteinsplus
 22 21  0  0  0  0            999 V2000
   -8.5820   19.5520   -9.9340 O   0  0  0  0  0  0  0  0  0  0  0  0
   -6.8220   18.4410   -8.2760 O   0  0  0  0  0  0  0  0  0  0  0  0
   -9.4570   18.1950  -11.7080 C   0  0  0  0  0  0  0  0  0  0  0  0
   -6.8490   16.1020   -8.7370 C   0  0  0  0  0  0  0  0  0  0  0  0
   -4.9780   17.5820   -9.5680 C   0  0  0  0  0  0  0  0  0  0  0  0
   -7.2320   17.7320  -10.6120 C   0  0  0  0  0  0  0  0  0  0  0  0
   -8.6520   18.2320  -10.4090 C   0  0  1  0  0  0  0  0  0  0  0  0
   -6.4800   17.4690   -9.3030 C   0  0  0  0  0  0  0  0  0  0  0  0
   -9.5059   19.8937   -9.7617 H   0  0  0  0  0  0  0  0  0  0  0  0
   -7.4984   19.0831   -8.6368 H   0  0  0  0  0  0  0  0  0  0  0  0
   -9.5051   17.2542  -12.0437 H   0  0  0  0  0  0  0  0  0  0  0  0
  -10.3815   18.5356  -11.5370 H   0  0  0  0  0  0  0  0  0  0  0  0
   -9.0110   18.7710  -12.3931 H   0  0  0  0  0  0  0  0  0  0  0  0
   -6.6322   15.3936   -9.4087 H   0  0  0  0  0  0  0  0  0  0  0  0
   -6.3292   15.9369   -7.8988 H   0  0  0  0  0  0  0  0  0  0  0  0
   -7.8276   16.0791   -8.5323 H   0  0  0  0  0  0  0  0  0  0  0  0
   -4.7133   16.9232  -10.2722 H   0  0  0  0  0  0  0  0  0  0  0  0
   -4.7632   18.5076   -9.8797 H   0  0  0  0  0  0  0  0  0  0  0  0
   -4.4754   17.3891   -8.7253 H   0  0  0  0  0  0  0  0  0  0  0  0
   -6.7267   18.4191  -11.1341 H   0  0  0  0  0  0  0  0  0  0  0  0
   -7.2688   16.8787  -11.1321 H   0  0  0  0  0  0  0  0  0  0  0  0
   -9.1062   17.6610   -9.7252 H   0  0  0  0  0  0  0  0  0  0  0  0
  1  7  1  0  0  0  0
  2  8  1  0  0  0  0
  3  7  1  0  0  0  0
  4  8  1  0  0  0  0
  5  8  1  0  0  0  0
  6  7  1  0  0  0  0
  6  8  1  0  0  0  0
  1  9  1  0  0  0  0
  2 10  1  0  0  0  0
  3 11  1  0  0  0  0
  3 12  1  0  0  0  0
  3 13  1  0  0  0  0
  4 14  1  0  0  0  0
  4 15  1  0  0  0  0
  4 16  1  0  0  0  0
  5 17  1  0  0  0  0
  5 18  1  0  0  0  0
  5 19  1  0  0  0  0
  6 20  1  0  0  0  0
  6 21  1  0  0  0  0
  7 22  1  0  0  0  0
M  END
$$$$
5N3Q_3AB_A_402
prProtoss 03132510043D 1   1.00000     0.00000     0
Protoss beta proteinsplus
 18 18  0  0  0  0            999 V2000
   -9.2370    2.2800  -28.3670 O   0  0  0  0  0  0  0  0  0  0  0  0
   -9.4770    4.5400  -28.4640 N   0  0  0  0  0  0  0  0  0  0  0  0
  -14.3900    5.1110  -29.6420 N   0  0  0  0  0  0  0  0  0  0  0  0
  -13.0840    1.6900  -29.9800 C   0  0  0  0  0  0  0  0  0  0  0  0
  -13.9500    2.7700  -30.0230 C   0  0  0  0  0  0  0  0  0  0  0  0
  -11.7790    1.8630  -29.5460 C   0  0  0  0  0  0  0  0  0  0  0  0
  -12.1990    4.2040  -29.2110 C   0  0  0  0  0  0  0  0  0  0  0  0
   -9.9250    3.2950  -28.6320 C   0  0  0  0  0  0  0  0  0  0  0  0
  -13.5220    4.0350  -29.6290 C   0  0  0  0  0  0  0  0  0  0  0  0
  -11.3300    3.1190  -29.1630 C   0  0  0  0  0  0  0  0  0  0  0  0
  -10.0641    5.3174  -28.6899 H   0  0  0  0  0  0  0  0  0  0  0  0
   -8.5541    4.6961  -28.1121 H   0  0  0  0  0  0  0  0  0  0  0  0
  -14.0705    6.0146  -29.3567 H   0  0  0  0  0  0  0  0  0  0  0  0
  -15.3373    4.9857  -29.9367 H   0  0  0  0  0  0  0  0  0  0  0  0
  -13.4005    0.7844  -30.2624 H   0  0  0  0  0  0  0  0  0  0  0  0
  -14.8897    2.6403  -30.3394 H   0  0  0  0  0  0  0  0  0  0  0  0
  -11.1586    1.0796  -29.5087 H   0  0  0  0  0  0  0  0  0  0  0  0
  -11.8748    5.1117  -28.9445 H   0  0  0  0  0  0  0  0  0  0  0  0
  1  8  2  0  0  0  0
  2  8  1  0  0  0  0
  3  9  1  0  0  0  0
  4  5  2  0  0  0  0
  4  6  1  0  0  0  0
  5  9  1  0  0  0  0
  6 10  2  0  0  0  0
  7  9  2  0  0  0  0
  7 10  1  0  0  0  0
  8 10  1  0  0  0  0
  2 11  1  0  0  0  0
  2 12  1  0  0  0  0
  3 13  1  0  0  0  0
  3 14  1  0  0  0  0
  4 15  1  0  0  0  0
  5 16  1  0  0  0  0
  6 17  1  0  0  0  0
  7 18  1  0  0  0  0
M  END
$$$$
5N3Q_3AB_A_403
prProtoss 03132510043D 1   1.00000     0.00000     0
Protoss beta proteinsplus
 18 18  0  0  0  0            999 V2000
  -10.6100    1.1260  -44.9550 O   0  0  0  0  0  0  0  0  0  0  0  0
   -9.7300    2.2860  -46.6780 N   0  0  0  0  0  0  0  0  0  0  0  0
   -4.8430    2.6670  -45.1220 N   0  0  0  0  0  0  0  0  0  0  0  0
   -7.3870    2.3060  -42.4800 C   0  0  0  0  0  0  0  0  0  0  0  0
   -6.1580    2.4560  -43.0980 C   0  0  0  0  0  0  0  0  0  0  0  0
   -8.5300    2.1170  -43.2360 C   0  0  0  0  0  0  0  0  0  0  0  0
   -7.2180    2.2350  -45.2450 C   0  0  0  0  0  0  0  0  0  0  0  0
   -9.6840    1.7930  -45.4460 C   0  0  0  0  0  0  0  0  0  0  0  0
   -6.0610    2.4370  -44.4930 C   0  0  0  0  0  0  0  0  0  0  0  0
   -8.4530    2.0650  -44.6230 C   0  0  0  0  0  0  0  0  0  0  0  0
   -8.9610    2.8177  -47.0328 H   0  0  0  0  0  0  0  0  0  0  0  0
  -10.5336    2.1256  -47.2511 H   0  0  0  0  0  0  0  0  0  0  0  0
   -4.7849    2.6511  -46.1202 H   0  0  0  0  0  0  0  0  0  0  0  0
   -4.0249    2.8484  -44.5763 H   0  0  0  0  0  0  0  0  0  0  0  0
   -7.4492    2.3344  -41.4823 H   0  0  0  0  0  0  0  0  0  0  0  0
   -5.3346    2.5787  -42.5440 H   0  0  0  0  0  0  0  0  0  0  0  0
   -9.4157    2.0173  -42.7826 H   0  0  0  0  0  0  0  0  0  0  0  0
   -7.1605    2.2119  -46.2431 H   0  0  0  0  0  0  0  0  0  0  0  0
  1  8  2  0  0  0  0
  2  8  1  0  0  0  0
  3  9  1  0  0  0  0
  4  5  2  0  0  0  0
  4  6  1  0  0  0  0
  5  9  1  0  0  0  0
  6 10  2  0  0  0  0
  7  9  2  0  0  0  0
  7 10  1  0  0  0  0
  8 10  1  0  0  0  0
  2 11  1  0  0  0  0
  2 12  1  0  0  0  0
  3 13  1  0  0  0  0
  3 14  1  0  0  0  0
  4 15  1  0  0  0  0
  5 16  1  0  0  0  0
  6 17  1  0  0  0  0
  7 18  1  0  0  0  0
M  END
$$$$
5N3Q_DMS_A_404
prProtoss 03132510043D 1   1.00000     0.00000     0
Protoss beta proteinsplus
 10  9  0  0  0  0            999 V2000
  -16.4050   25.0860  -33.5870 S   0  0  0  0  0  0  0  0  0  0  0  0
  -15.1740   25.6010  -34.2470 O   0  0  0  0  0  0  0  0  0  0  0  0
  -17.6810   24.6910  -34.8170 C   0  0  0  0  0  0  0  0  0  0  0  0
  -16.0450   23.4280  -32.9650 C   0  0  0  0  0  0  0  0  0  0  0  0
  -18.4971   24.3476  -34.3522 H   0  0  0  0  0  0  0  0  0  0  0  0
  -17.9133   25.5156  -35.3329 H   0  0  0  0  0  0  0  0  0  0  0  0
  -17.3353   23.9923  -35.4433 H   0  0  0  0  0  0  0  0  0  0  0  0
  -16.8575   23.0570  -32.5154 H   0  0  0  0  0  0  0  0  0  0  0  0
  -15.7858   22.8350  -33.7273 H   0  0  0  0  0  0  0  0  0  0  0  0
  -15.2925   23.4745  -32.3081 H   0  0  0  0  0  0  0  0  0  0  0  0
  1  2  2  0  0  0  0
  1  3  1  0  0  0  0
  1  4  1  0  0  0  0
  3  5  1  0  0  0  0
  3  6  1  0  0  0  0
  3  7  1  0  0  0  0
  4  8  1  0  0  0  0
  4  9  1  0  0  0  0
  4 10  1  0  0  0  0
M  END
$$$$
6YPS_DMS_A_401
prProtoss 08182323023D 1   1.00000     0.00000     0
Protoss beta proteinsplus
 10  9  0  0  0  0            999 V2000
    9.4310   25.2460   15.0600 S   0  0  0  0  0  0  0  0  0  0  0  0
   10.6900   25.8480   14.5240 O   0  0  0  0  0  0  0  0  0  0  0  0
    9.8120   23.6720   15.8740 C   0  0  0  0  0  0  0  0  0  0  0  0
    8.8460   26.2060   16.4850 C   0  0  0  0  0  0  0  0  0  0  0  0
    8.9696   23.2696   16.2324 H   0  0  0  0  0  0  0  0  0  0  0  0
   10.2253   23.0461   15.2126 H   0  0  0  0  0  0  0  0  0  0  0  0
   10.4513   23.8319   16.6261 H   0  0  0  0  0  0  0  0  0  0  0  0
    8.0041   25.7983   16.8386 H   0  0  0  0  0  0  0  0  0  0  0  0
    9.5449   26.2006   17.2002 H   0  0  0  0  0  0  0  0  0  0  0  0
    8.6667   27.1480   16.2013 H   0  0  0  0  0  0  0  0  0  0  0  0
  1  2  2  0  0  0  0
  1  3  1  0  0  0  0
  1  4  1  0  0  0  0
  3  5  1  0  0  0  0
  3  6  1  0  0  0  0
  3  7  1  0  0  0  0
  4  8  1  0  0  0  0
  4  9  1  0  0  0  0
  4 10  1  0  0  0  0
M  END
$$$$
6YPS_P72_A_402
prProtoss 08182323023D 1   1.00000     0.00000     0
Protoss beta proteinsplus
 19 19  0  0  0  0            999 V2000
   12.4370    7.2820   18.6870 O   0  0  0  0  0  0  0  0  0  0  0  0
   14.5800    1.4700   19.5980 N   0  3  0  0  0  0  0  0  0  0  0  0
   16.4310    2.4560   20.3770 N   0  0  0  0  0  0  0  0  0  0  0  0
   12.5350    4.9350   19.0380 C   0  0  0  0  0  0  0  0  0  0  0  0
   14.5140    6.2670   19.3410 C   0  0  0  0  0  0  0  0  0  0  0  0
   13.2540    3.7980   19.3600 C   0  0  0  0  0  0  0  0  0  0  0  0
   15.2270    5.1230   19.6630 C   0  0  0  0  0  0  0  0  0  0  0  0
   13.1640    6.1730   19.0220 C   0  0  0  0  0  0  0  0  0  0  0  0
   15.2670    2.5750   19.9010 C   0  0  0  0  0  0  0  0  0  0  0  0
   14.6070    3.8720   19.6630 C   0  0  0  0  0  0  0  0  0  0  0  0
   12.8750    8.1808   18.6707 H   0  0  0  0  0  0  0  0  0  0  0  0
   13.6570    1.5429   19.2202 H   0  0  0  0  0  0  0  0  0  0  0  0
   14.9888    0.5699   19.7490 H   0  0  0  0  0  0  0  0  0  0  0  0
   16.9615    3.2709   20.6103 H   0  0  0  0  0  0  0  0  0  0  0  0
   11.5623    4.8655   18.8167 H   0  0  0  0  0  0  0  0  0  0  0  0
   14.9692    7.1574   19.3381 H   0  0  0  0  0  0  0  0  0  0  0  0
   12.7931    2.9107   19.3748 H   0  0  0  0  0  0  0  0  0  0  0  0
   16.1964    5.1944   19.8980 H   0  0  0  0  0  0  0  0  0  0  0  0
   16.8220    1.5469   20.5206 H   0  0  0  0  0  0  0  0  0  0  0  0
  1  8  1  0  0  0  0
  2  9  2  0  0  0  0
  3  9  1  0  0  0  0
  4  6  1  0  0  0  0
  4  8  2  0  0  0  0
  5  7  2  0  0  0  0
  5  8  1  0  0  0  0
  6 10  2  0  0  0  0
  7 10  1  0  0  0  0
  9 10  1  0  0  0  0
  1 11  1  0  0  0  0
  2 12  1  0  0  0  0
  2 13  1  0  0  0  0
  3 14  1  0  0  0  0
  4 15  1  0  0  0  0
  5 16  1  0  0  0  0
  6 17  1  0  0  0  0
  7 18  1  0  0  0  0
  3 19  1  0  0  0  0
M  CHG  1   2   1
M  END
$$$$
5N3S_HBD_A_401
prProtoss 03132510043D 1   1.00000     0.00000     0
Protoss beta proteinsplus
 17 17  0  0  0  0            999 V2000
   -9.1390    2.4650  -28.3340 O   0  0  0  0  0  0  0  0  0  0  0  0
  -15.1680    2.3670  -30.2620 O   0  0  0  0  0  0  0  0  0  0  0  0
   -9.5020    4.6700  -28.4320 N   0  0  0  0  0  0  0  0  0  0  0  0
  -12.9940    1.5820  -29.6980 C   0  0  0  0  0  0  0  0  0  0  0  0
  -13.4890    3.9280  -29.5990 C   0  0  0  0  0  0  0  0  0  0  0  0
  -11.6960    1.8420  -29.2940 C   0  0  0  0  0  0  0  0  0  0  0  0
  -12.1920    4.1820  -29.2040 C   0  0  0  0  0  0  0  0  0  0  0  0
   -9.8810    3.4080  -28.5770 C   0  0  0  0  0  0  0  0  0  0  0  0
  -13.8960    2.6270  -29.8470 C   0  0  0  0  0  0  0  0  0  0  0  0
  -11.2790    3.1460  -29.0450 C   0  0  0  0  0  0  0  0  0  0  0  0
  -15.8214    3.1162  -30.3709 H   0  0  0  0  0  0  0  0  0  0  0  0
  -10.1400    5.4109  -28.6418 H   0  0  0  0  0  0  0  0  0  0  0  0
   -8.5781    4.8811  -28.1128 H   0  0  0  0  0  0  0  0  0  0  0  0
  -13.2819    0.6423  -29.8824 H   0  0  0  0  0  0  0  0  0  0  0  0
  -14.1357    4.6831  -29.7064 H   0  0  0  0  0  0  0  0  0  0  0  0
  -11.0518    1.0857  -29.1800 H   0  0  0  0  0  0  0  0  0  0  0  0
  -11.9048    5.1239  -29.0297 H   0  0  0  0  0  0  0  0  0  0  0  0
  1  8  2  0  0  0  0
  2  9  1  0  0  0  0
  3  8  1  0  0  0  0
  4  6  1  0  0  0  0
  4  9  2  0  0  0  0
  5  7  2  0  0  0  0
  5  9  1  0  0  0  0
  6 10  2  0  0  0  0
  7 10  1  0  0  0  0
  8 10  1  0  0  0  0
  2 11  1  0  0  0  0
  3 12  1  0  0  0  0
  3 13  1  0  0  0  0
  4 14  1  0  0  0  0
  5 15  1  0  0  0  0
  6 16  1  0  0  0  0
  7 17  1  0  0  0  0
M  END
$$$$
5N3S_MPD_A_402
prProtoss 03132510043D 1   1.00000     0.00000     0
Protoss beta proteinsplus
 22 21  0  0  0  0            999 V2000
  -17.1640   26.4490  -35.9580 O   0  0  0  0  0  0  0  0  0  0  0  0
  -15.5300   25.4290  -34.0830 O   0  0  0  0  0  0  0  0  0  0  0  0
  -19.2140   25.3090  -36.4450 C   0  0  0  0  0  0  0  0  0  0  0  0
  -17.2360   25.8390  -32.3890 C   0  0  0  0  0  0  0  0  0  0  0  0
  -16.2940   23.5530  -32.9190 C   0  0  0  0  0  0  0  0  0  0  0  0
  -17.7910   24.5940  -34.5270 C   0  0  0  0  0  0  0  0  0  0  0  0
  -18.2600   25.7870  -35.3510 C   0  0  1  0  0  0  0  0  0  0  0  0
  -16.7230   24.8890  -33.4720 C   0  0  0  0  0  0  0  0  0  0  0  0
  -16.3495   26.3357  -35.3890 H   0  0  0  0  0  0  0  0  0  0  0  0
  -15.2033   24.8006  -34.7889 H   0  0  0  0  0  0  0  0  0  0  0  0
  -19.9920   24.8399  -36.0272 H   0  0  0  0  0  0  0  0  0  0  0  0
  -19.5411   26.0954  -36.9690 H   0  0  0  0  0  0  0  0  0  0  0  0
  -18.7331   24.6790  -37.0547 H   0  0  0  0  0  0  0  0  0  0  0  0
  -18.0609   25.4561  -31.9732 H   0  0  0  0  0  0  0  0  0  0  0  0
  -16.5327   25.9560  -31.6878 H   0  0  0  0  0  0  0  0  0  0  0  0
  -17.4499   26.7262  -32.7979 H   0  0  0  0  0  0  0  0  0  0  0  0
  -17.0729   23.1105  -32.4747 H   0  0  0  0  0  0  0  0  0  0  0  0
  -15.9627   22.9746  -33.6644 H   0  0  0  0  0  0  0  0  0  0  0  0
  -15.5619   23.6881  -32.2513 H   0  0  0  0  0  0  0  0  0  0  0  0
  -17.4187   23.9133  -35.1579 H   0  0  0  0  0  0  0  0  0  0  0  0
  -18.5879   24.2132  -34.0581 H   0  0  0  0  0  0  0  0  0  0  0  0
  -18.7411   26.4290  -34.7540 H   0  0  0  0  0  0  0  0  0  0  0  0
  1  7  1  0  0  0  0
  2  8  1  0  0  0  0
  3  7  1  0  0  0  0
  4  8  1  0  0  0  0
  5  8  1  0  0  0  0
  6  7  1  0  0  0  0
  6  8  1  0  0  0  0
  1  9  1  0  0  0  0
  2 10  1  0  0  0  0
  3 11  1  0  0  0  0
  3 12  1  0  0  0  0
  3 13  1  0  0  0  0
  4 14  1  0  0  0  0
  4 15  1  0  0  0  0
  4 16  1  0  0  0  0
  5 17  1  0  0  0  0
  5 18  1  0  0  0  0
  5 19  1  0  0  0  0
  6 20  1  0  0  0  0
  6 21  1  0  0  0  0
  7 22  1  0  0  0  0
M  END
$$$$
5N3S_MPD_A_403
prProtoss 03132510043D 1   1.00000     0.00000     0
Protoss beta proteinsplus
 22 21  0  0  0  0            999 V2000
   -8.7150   19.5520   -9.8490 O   0  0  0  0  0  0  0  0  0  0  0  0
   -7.0730   18.5930   -8.2150 O   0  0  0  0  0  0  0  0  0  0  0  0
   -9.4880   18.3020  -11.7550 C   0  0  0  0  0  0  0  0  0  0  0  0
   -6.7120   16.2890   -8.5460 C   0  0  0  0  0  0  0  0  0  0  0  0
   -5.1090   18.0140   -9.4750 C   0  0  0  0  0  0  0  0  0  0  0  0
   -7.3620   17.7220  -10.5370 C   0  0  0  0  0  0  0  0  0  0  0  0
   -8.7800   18.2600  -10.4020 C   0  0  1  0  0  0  0  0  0  0  0  0
   -6.5790   17.6590   -9.2150 C   0  0  0  0  0  0  0  0  0  0  0  0
   -8.6750   20.2279  -10.5849 H   0  0  0  0  0  0  0  0  0  0  0  0
   -7.8581   19.0911   -8.5832 H   0  0  0  0  0  0  0  0  0  0  0  0
   -9.5286   17.3794  -12.1387 H   0  0  0  0  0  0  0  0  0  0  0  0
  -10.4162   18.6542  -11.6347 H   0  0  0  0  0  0  0  0  0  0  0  0
   -8.9827   18.8999  -12.3772 H   0  0  0  0  0  0  0  0  0  0  0  0
   -6.3901   15.5793   -9.1727 H   0  0  0  0  0  0  0  0  0  0  0  0
   -6.1619   16.2709   -7.7111 H   0  0  0  0  0  0  0  0  0  0  0  0
   -7.6709   16.1215   -8.3170 H   0  0  0  0  0  0  0  0  0  0  0  0
   -4.7318   17.3911  -10.1604 H   0  0  0  0  0  0  0  0  0  0  0  0
   -5.0473   18.9544   -9.8094 H   0  0  0  0  0  0  0  0  0  0  0  0
   -4.5899   17.9279   -8.6247 H   0  0  0  0  0  0  0  0  0  0  0  0
   -6.8617   18.3137  -11.1691 H   0  0  0  0  0  0  0  0  0  0  0  0
   -7.4127   16.7976  -10.9150 H   0  0  0  0  0  0  0  0  0  0  0  0
   -9.2954   17.6669   -9.7834 H   0  0  0  0  0  0  0  0  0  0  0  0
  1  7  1  0  0  0  0
  2  8  1  0  0  0  0
  3  7  1  0  0  0  0
  4  8  1  0  0  0  0
  5  8  1  0  0  0  0
  6  7  1  0  0  0  0
  6  8  1  0  0  0  0
  1  9  1  0  0  0  0
  2 10  1  0  0  0  0
  3 11  1  0  0  0  0
  3 12  1  0  0  0  0
  3 13  1  0  0  0  0
  4 14  1  0  0  0  0
  4 15  1  0  0  0  0
  4 16  1  0  0  0  0
  5 17  1  0  0  0  0
  5 18  1  0  0  0  0
  5 19  1  0  0  0  0
  6 20  1  0  0  0  0
  6 21  1  0  0  0  0
  7 22  1  0  0  0  0
M  END
$$$$
5N3S_DMS_A_404
prProtoss 03132510043D 1   1.00000     0.00000     0
Protoss beta proteinsplus
 10  9  0  0  0  0            999 V2000
  -35.1160   -2.6130   -8.1120 S   0  0  0  0  0  0  0  0  0  0  0  0
  -34.2140   -1.4420   -7.8770 O   0  0  0  0  0  0  0  0  0  0  0  0
  -34.7760   -3.8890   -6.8690 C   0  0  0  0  0  0  0  0  0  0  0  0
  -36.8170   -2.1650   -7.6650 C   0  0  0  0  0  0  0  0  0  0  0  0
  -35.3772   -4.6731   -7.0232 H   0  0  0  0  0  0  0  0  0  0  0  0
  -33.8223   -4.1806   -6.9428 H   0  0  0  0  0  0  0  0  0  0  0  0
  -34.9410   -3.5169   -5.9556 H   0  0  0  0  0  0  0  0  0  0  0  0
  -37.4199   -2.9472   -7.8219 H   0  0  0  0  0  0  0  0  0  0  0  0
  -36.8509   -1.9064   -6.6996 H   0  0  0  0  0  0  0  0  0  0  0  0
  -37.1175   -1.3945   -8.2272 H   0  0  0  0  0  0  0  0  0  0  0  0
  1  2  2  0  0  0  0
  1  3  1  0  0  0  0
  1  4  1  0  0  0  0
  3  5  1  0  0  0  0
  3  6  1  0  0  0  0
  3  7  1  0  0  0  0
  4  8  1  0  0  0  0
  4  9  1  0  0  0  0
  4 10  1  0  0  0  0
M  END
$$$$
5N3S_DMS_A_405
prProtoss 03132510043D 1   1.00000     0.00000     0
Protoss beta proteinsplus
 10  9  0  0  0  0            999 V2000
  -31.7370   10.8350  -29.0950 S   0  0  0  0  0  0  0  0  0  0  0  0
  -31.5510   11.4960  -27.7660 O   0  0  0  0  0  0  0  0  0  0  0  0
  -31.1920    9.1090  -28.9800 C   0  0  0  0  0  0  0  0  0  0  0  0
  -33.5100   10.5870  -29.3960 C   0  0  0  0  0  0  0  0  0  0  0  0
  -31.3138    8.6612  -29.8658 H   0  0  0  0  0  0  0  0  0  0  0  0
  -30.2262    9.0809  -28.7223 H   0  0  0  0  0  0  0  0  0  0  0  0
  -31.7355    8.6332  -28.2884 H   0  0  0  0  0  0  0  0  0  0  0  0
  -33.6388   10.1452  -30.2838 H   0  0  0  0  0  0  0  0  0  0  0  0
  -33.8923   10.0072  -28.6765 H   0  0  0  0  0  0  0  0  0  0  0  0
  -33.9755   11.4720  -29.3935 H   0  0  0  0  0  0  0  0  0  0  0  0
  1  2  2  0  0  0  0
  1  3  1  0  0  0  0
  1  4  1  0  0  0  0
  3  5  1  0  0  0  0
  3  6  1  0  0  0  0
  3  7  1  0  0  0  0
  4  8  1  0  0  0  0
  4  9  1  0  0  0  0
  4 10  1  0  0  0  0
M  END
$$$$
6SPU_DMS_A_401
prProtoss 07302417153D 1   1.00000     0.00000     0
Protoss beta proteinsplus
 10  9  0  0  0  0            999 V2000
   23.9400   20.8690   32.5730 S   0  0  0  0  0  0  0  0  0  0  0  0
   22.7680   20.2470   31.8820 O   0  0  0  0  0  0  0  0  0  0  0  0
   23.3660   21.9250   33.9300 C   0  0  0  0  0  0  0  0  0  0  0  0
   24.9840   19.6370   33.3960 C   0  0  0  0  0  0  0  0  0  0  0  0
   24.1537   22.3375   34.3875 H   0  0  0  0  0  0  0  0  0  0  0  0
   22.7772   22.6462   33.5650 H   0  0  0  0  0  0  0  0  0  0  0  0
   22.8504   21.3739   34.5861 H   0  0  0  0  0  0  0  0  0  0  0  0
   25.7520   20.0959   33.8428 H   0  0  0  0  0  0  0  0  0  0  0  0
   24.4445   19.1468   34.0806 H   0  0  0  0  0  0  0  0  0  0  0  0
   25.3315   18.9886   32.7186 H   0  0  0  0  0  0  0  0  0  0  0  0
  1  2  2  0  0  0  0
  1  3  1  0  0  0  0
  1  4  1  0  0  0  0
  3  5  1  0  0  0  0
  3  6  1  0  0  0  0
  3  7  1  0  0  0  0
  4  8  1  0  0  0  0
  4  9  1  0  0  0  0
  4 10  1  0  0  0  0
M  END
$$$$
6SPU_DMS_A_402
prProtoss 07302417153D 1   1.00000     0.00000     0
Protoss beta proteinsplus
 10  9  0  0  0  0            999 V2000
    9.2840   25.0670   15.3430 S   0  0  0  0  0  0  0  0  0  0  0  0
   10.5520   25.7010   14.8820 O   0  0  0  0  0  0  0  0  0  0  0  0
    9.6750   23.4080   15.9420 C   0  0  0  0  0  0  0  0  0  0  0  0
    8.7270   25.8640   16.8760 C   0  0  0  0  0  0  0  0  0  0  0  0
    8.8377   22.9616   16.2575 H   0  0  0  0  0  0  0  0  0  0  0  0
   10.0792   22.8725   15.2004 H   0  0  0  0  0  0  0  0  0  0  0  0
   10.3246   23.4716   16.6996 H   0  0  0  0  0  0  0  0  0  0  0  0
    7.8765   25.4373   17.1835 H   0  0  0  0  0  0  0  0  0  0  0  0
    9.4278   25.7565   17.5812 H   0  0  0  0  0  0  0  0  0  0  0  0
    8.5699   26.8371   16.7077 H   0  0  0  0  0  0  0  0  0  0  0  0
  1  2  2  0  0  0  0
  1  3  1  0  0  0  0
  1  4  1  0  0  0  0
  3  5  1  0  0  0  0
  3  6  1  0  0  0  0
  3  7  1  0  0  0  0
  4  8  1  0  0  0  0
  4  9  1  0  0  0  0
  4 10  1  0  0  0  0
M  END
$$$$
6SPU_DMS_A_403
prProtoss 07302417153D 1   1.00000     0.00000     0
Protoss beta proteinsplus
 10  9  0  0  0  0            999 V2000
   -2.0870   -8.6370   36.6160 S   0  0  0  0  0  0  0  0  0  0  0  0
   -0.9890   -8.0030   37.4110 O   0  0  0  0  0  0  0  0  0  0  0  0
   -3.6760   -8.4040   37.4610 C   0  0  0  0  0  0  0  0  0  0  0  0
   -2.3900   -7.6920   35.0960 C   0  0  0  0  0  0  0  0  0  0  0  0
   -4.4045   -8.8299   36.9244 H   0  0  0  0  0  0  0  0  0  0  0  0
   -3.6375   -8.8275   38.3661 H   0  0  0  0  0  0  0  0  0  0  0  0
   -3.8616   -7.4262   37.5581 H   0  0  0  0  0  0  0  0  0  0  0  0
   -3.1250   -8.1258   34.5748 H   0  0  0  0  0  0  0  0  0  0  0  0
   -2.6555   -6.7572   35.3320 H   0  0  0  0  0  0  0  0  0  0  0  0
   -1.5564   -7.6724   34.5439 H   0  0  0  0  0  0  0  0  0  0  0  0
  1  2  2  0  0  0  0
  1  3  1  0  0  0  0
  1  4  1  0  0  0  0
  3  5  1  0  0  0  0
  3  6  1  0  0  0  0
  3  7  1  0  0  0  0
  4  8  1  0  0  0  0
  4  9  1  0  0  0  0
  4 10  1  0  0  0  0
M  END
$$$$
6SPU_DMS_A_404
prProtoss 07302417153D 1   1.00000     0.00000     0
Protoss beta proteinsplus
 10  9  0  0  0  0            999 V2000
   -6.2720   10.7350   20.2790 S   0  0  0  0  0  0  0  0  0  0  0  0
   -5.0490   10.1670   19.6340 O   0  0  0  0  0  0  0  0  0  0  0  0
   -5.8310   12.2340   21.2010 C   0  0  0  0  0  0  0  0  0  0  0  0
   -7.3770   11.4090   19.0050 C   0  0  0  0  0  0  0  0  0  0  0  0
   -6.6498   12.6132   21.6321 H   0  0  0  0  0  0  0  0  0  0  0  0
   -5.1585   12.0064   21.9052 H   0  0  0  0  0  0  0  0  0  0  0  0
   -5.4416   12.9086   20.5739 H   0  0  0  0  0  0  0  0  0  0  0  0
   -8.1941   11.7882   19.4392 H   0  0  0  0  0  0  0  0  0  0  0  0
   -6.9027   12.1301   18.5000 H   0  0  0  0  0  0  0  0  0  0  0  0
   -7.6426   10.6798   18.3744 H   0  0  0  0  0  0  0  0  0  0  0  0
  1  2  2  0  0  0  0
  1  3  1  0  0  0  0
  1  4  1  0  0  0  0
  3  5  1  0  0  0  0
  3  6  1  0  0  0  0
  3  7  1  0  0  0  0
  4  8  1  0  0  0  0
  4  9  1  0  0  0  0
  4 10  1  0  0  0  0
M  END
$$$$
6SPU_GAB_A_405
prProtoss 07302417153D 1   1.00000     0.00000     0
Protoss beta proteinsplus
 17 17  0  0  0  0            999 V2000
   16.4040    4.7130   20.2650 O   0  0  0  0  0  0  0  0  0  0  0  0
   16.5960    2.5090   20.3860 O   0  0  0  0  0  0  0  0  0  0  0  0
   11.6500    5.6260   18.9840 N   0  0  0  0  0  0  0  0  0  0  0  0
   12.6370    2.0730   18.9890 C   0  0  0  0  0  0  0  0  0  0  0  0
   11.8730    3.2170   18.8460 C   0  0  0  0  0  0  0  0  0  0  0  0
   13.9550    2.1640   19.4200 C   0  0  0  0  0  0  0  0  0  0  0  0
   13.7620    4.5600   19.5110 C   0  0  0  0  0  0  0  0  0  0  0  0
   15.9400    3.5100   20.1240 C   0  0  0  0  0  0  0  0  0  0  0  0
   12.4110    4.4710   19.1070 C   0  0  0  0  0  0  0  0  0  0  0  0
   14.5240    3.4090   19.6640 C   0  0  0  0  0  0  0  0  0  0  0  0
   12.0595    6.5176   19.1774 H   0  0  0  0  0  0  0  0  0  0  0  0
   10.6924    5.5662   18.7020 H   0  0  0  0  0  0  0  0  0  0  0  0
   12.2402    1.1788   18.7819 H   0  0  0  0  0  0  0  0  0  0  0  0
   10.9206    3.1405   18.5508 H   0  0  0  0  0  0  0  0  0  0  0  0
   14.4948    1.3331   19.5548 H   0  0  0  0  0  0  0  0  0  0  0  0
   14.1711    5.4553   19.6875 H   0  0  0  0  0  0  0  0  0  0  0  0
   17.3354    4.8535   20.6008 H   0  0  0  0  0  0  0  0  0  0  0  0
  1  8  1  0  0  0  0
  2  8  2  0  0  0  0
  3  9  1  0  0  0  0
  4  5  2  0  0  0  0
  4  6  1  0  0  0  0
  5  9  1  0  0  0  0
  6 10  2  0  0  0  0
  7  9  2  0  0  0  0
  7 10  1  0  0  0  0
  8 10  1  0  0  0  0
  7 16  1  0  0  0  0
  3 11  1  0  0  0  0
  3 12  1  0  0  0  0
  4 13  1  0  0  0  0
  5 14  1  0  0  0  0
  6 15  1  0  0  0  0
  1 17  1  0  0  0  0
M  END
$$$$
6Z08_NPO_A_401
prProtoss 08182323043D 1   1.00000     0.00000     0
Protoss beta proteinsplus
 15 15  0  0  0  0            999 V2000
    9.9820    7.5050   18.3280 O   0  0  0  0  0  0  0  0  0  0  0  0
   12.1000    7.2560   17.7830 O   0  5  0  0  0  0  0  0  0  0  0  0
   11.1820    1.7980   20.7000 O   0  0  0  0  0  0  0  0  0  0  0  0
   11.0810    6.8380   18.3230 N   0  3  0  0  0  0  0  0  0  0  0  0
   10.0030    3.7910   20.1520 C   0  0  0  0  0  0  0  0  0  0  0  0
   12.3200    3.5570   19.5440 C   0  0  0  0  0  0  0  0  0  0  0  0
    9.9730    5.0400   19.5570 C   0  0  0  0  0  0  0  0  0  0  0  0
   12.2980    4.8110   18.9640 C   0  0  0  0  0  0  0  0  0  0  0  0
   11.1740    3.0440   20.1390 C   0  0  0  0  0  0  0  0  0  0  0  0
   11.1210    5.5340   18.9720 C   0  0  0  0  0  0  0  0  0  0  0  0
   10.3495    1.4312   21.1152 H   0  0  0  0  0  0  0  0  0  0  0  0
    9.1819    3.4263   20.5912 H   0  0  0  0  0  0  0  0  0  0  0  0
   13.1621    3.0178   19.5355 H   0  0  0  0  0  0  0  0  0  0  0  0
    9.1300    5.5778   19.5510 H   0  0  0  0  0  0  0  0  0  0  0  0
   13.1228    5.1899   18.5443 H   0  0  0  0  0  0  0  0  0  0  0  0
  1  4  2  0  0  0  0
  2  4  1  0  0  0  0
  3  9  1  0  0  0  0
  4 10  1  0  0  0  0
  5  7  1  0  0  0  0
  5  9  2  0  0  0  0
  6  8  2  0  0  0  0
  6  9  1  0  0  0  0
  7 10  2  0  0  0  0
  8 10  1  0  0  0  0
  3 11  1  0  0  0  0
  5 12  1  0  0  0  0
  6 13  1  0  0  0  0
  7 14  1  0  0  0  0
  8 15  1  0  0  0  0
M  CHG  2   2  -1   4   1
M  END
$$$$
7AXW_1SQ_A_401
prProtoss 03132510043D 1   1.00000     0.00000     0
Protoss beta proteinsplus
 19 20  0  0  0  0            999 V2000
  -24.0600   23.3850  -17.5300 N   0  0  0  0  0  0  0  0  0  0  0  0
  -26.3600   23.5810  -17.3030 N   0  0  0  0  0  0  0  0  0  0  0  0
  -27.4760   24.1270  -16.7650 C   0  0  0  0  0  0  0  0  0  0  0  0
  -24.7270   26.9770  -14.0160 C   0  0  0  0  0  0  0  0  0  0  0  0
  -23.5850   26.4140  -14.5690 C   0  0  0  0  0  0  0  0  0  0  0  0
  -27.3870   25.1430  -15.8630 C   0  0  0  0  0  0  0  0  0  0  0  0
  -25.9690   26.6090  -14.4570 C   0  0  0  0  0  0  0  0  0  0  0  0
  -23.6810   25.4670  -15.5510 C   0  0  0  0  0  0  0  0  0  0  0  0
  -25.1000   23.9810  -16.9860 C   0  0  0  0  0  0  0  0  0  0  0  0
  -26.1140   25.6200  -15.4620 C   0  0  0  0  0  0  0  0  0  0  0  0
  -24.9450   25.0320  -16.0260 C   0  0  0  0  0  0  0  0  0  0  0  0
  -23.1343   23.6814  -17.2949 H   0  0  0  0  0  0  0  0  0  0  0  0
  -24.1956   22.6358  -18.1784 H   0  0  0  0  0  0  0  0  0  0  0  0
  -28.3750   23.7805  -17.0329 H   0  0  0  0  0  0  0  0  0  0  0  0
  -24.6412   27.6578  -13.2886 H   0  0  0  0  0  0  0  0  0  0  0  0
  -22.6838   26.7035  -14.2464 H   0  0  0  0  0  0  0  0  0  0  0  0
  -28.2175   25.5516  -15.4845 H   0  0  0  0  0  0  0  0  0  0  0  0
  -26.7817   27.0417  -14.0667 H   0  0  0  0  0  0  0  0  0  0  0  0
  -22.8474   25.0751  -15.9402 H   0  0  0  0  0  0  0  0  0  0  0  0
  1  9  1  0  0  0  0
  2  3  1  0  0  0  0
  2  9  2  0  0  0  0
  3  6  2  0  0  0  0
  4  5  2  0  0  0  0
  4  7  1  0  0  0  0
  5  8  1  0  0  0  0
  6 10  1  0  0  0  0
  7 10  2  0  0  0  0
  8 11  2  0  0  0  0
  9 11  1  0  0  0  0
 10 11  1  0  0  0  0
  1 12  1  0  0  0  0
  1 13  1  0  0  0  0
  3 14  1  0  0  0  0
  4 15  1  0  0  0  0
  5 16  1  0  0  0  0
  6 17  1  0  0  0  0
  7 18  1  0  0  0  0
  8 19  1  0  0  0  0
M  END
$$$$
6Y0B_1LQ_A_401
prProtoss 08182322583D 1   1.00000     0.00000     0
Protoss beta proteinsplus
 18 19  0  0  0  0            999 V2000
  -17.5640  -24.0440   23.3430 N   0  0  0  0  0  0  0  0  0  0  0  0
  -17.2800  -26.3290   23.5590 N   0  0  0  0  0  0  0  0  0  0  0  0
  -15.8410  -27.3030   25.2040 N   0  0  0  0  0  0  0  0  0  0  0  0
  -16.7020  -27.3470   24.2010 C   0  0  0  0  0  0  0  0  0  0  0  0
  -14.0940  -24.6770   27.0370 C   0  0  0  0  0  0  0  0  0  0  0  0
  -14.6250  -23.5260   26.4720 C   0  0  0  0  0  0  0  0  0  0  0  0
  -14.5150  -25.9150   26.6350 C   0  0  0  0  0  0  0  0  0  0  0  0
  -15.5730  -23.6080   25.4950 C   0  0  0  0  0  0  0  0  0  0  0  0
  -16.9720  -25.0810   23.9570 C   0  0  0  0  0  0  0  0  0  0  0  0
  -15.4930  -26.0420   25.6200 C   0  0  0  0  0  0  0  0  0  0  0  0
  -16.0310  -24.8670   25.0340 C   0  0  0  0  0  0  0  0  0  0  0  0
  -17.3495  -23.1083   23.6231 H   0  0  0  0  0  0  0  0  0  0  0  0
  -18.2194  -24.2074   22.6056 H   0  0  0  0  0  0  0  0  0  0  0  0
  -16.9525  -28.2611   23.8822 H   0  0  0  0  0  0  0  0  0  0  0  0
  -13.3944  -24.6004   27.7474 H   0  0  0  0  0  0  0  0  0  0  0  0
  -14.3101  -22.6295   26.7837 H   0  0  0  0  0  0  0  0  0  0  0  0
  -14.1299  -26.7340   27.0603 H   0  0  0  0  0  0  0  0  0  0  0  0
  -15.9491  -22.7701   25.0995 H   0  0  0  0  0  0  0  0  0  0  0  0
  1  9  1  0  0  0  0
  2  4  1  0  0  0  0
  2  9  2  0  0  0  0
  3  4  2  0  0  0  0
  3 10  1  0  0  0  0
  5  6  2  0  0  0  0
  5  7  1  0  0  0  0
  6  8  1  0  0  0  0
  7 10  2  0  0  0  0
  8 11  2  0  0  0  0
  9 11  1  0  0  0  0
 10 11  1  0  0  0  0
  1 12  1  0  0  0  0
  1 13  1  0  0  0  0
  4 14  1  0  0  0  0
  5 15  1  0  0  0  0
  6 16  1  0  0  0  0
  7 17  1  0  0  0  0
  8 18  1  0  0  0  0
M  END
$$$$
6Y0B_DMS_A_402
prProtoss 08182322583D 1   1.00000     0.00000     0
Protoss beta proteinsplus
 10  9  0  0  0  0            999 V2000
  -11.0130  -15.1130    3.3880 S   0  0  0  0  0  0  0  0  0  0  0  0
  -10.1420  -14.2130    2.6400 O   0  0  0  0  0  0  0  0  0  0  0  0
  -10.9480  -14.5170    5.0440 C   0  0  0  0  0  0  0  0  0  0  0  0
  -12.6690  -14.5960    2.9750 C   0  0  0  0  0  0  0  0  0  0  0  0
  -11.5263  -15.0880    5.6267 H   0  0  0  0  0  0  0  0  0  0  0  0
  -10.0047  -14.5519    5.3740 H   0  0  0  0  0  0  0  0  0  0  0  0
  -11.2761  -13.5728    5.0716 H   0  0  0  0  0  0  0  0  0  0  0  0
  -13.3283  -15.1738    3.4560 H   0  0  0  0  0  0  0  0  0  0  0  0
  -12.7988  -13.6430    3.2489 H   0  0  0  0  0  0  0  0  0  0  0  0
  -12.8085  -14.6812    1.9885 H   0  0  0  0  0  0  0  0  0  0  0  0
  1  2  2  0  0  0  0
  1  3  1  0  0  0  0
  1  4  1  0  0  0  0
  3  5  1  0  0  0  0
  3  6  1  0  0  0  0
  3  7  1  0  0  0  0
  4  8  1  0  0  0  0
  4  9  1  0  0  0  0
  4 10  1  0  0  0  0
M  END
$$$$
6Y2O_DMS_A_401
prProtoss 08182322583D 1   1.00000     0.00000     0
Protoss beta proteinsplus
 10  9  0  0  0  0            999 V2000
    6.0430  -27.5950   -0.3160 S   0  0  0  0  0  0  0  0  0  0  0  0
    5.9510  -26.1440   -0.5630 O   0  0  0  0  0  0  0  0  0  0  0  0
    6.0750  -27.6320    1.4500 C   0  0  0  0  0  0  0  0  0  0  0  0
    4.4140  -28.2690   -0.6000 C   0  0  0  0  0  0  0  0  0  0  0  0
    6.1376  -28.5799    1.7625 H   0  0  0  0  0  0  0  0  0  0  0  0
    6.8676  -27.1192    1.7798 H   0  0  0  0  0  0  0  0  0  0  0  0
    5.2378  -27.2179    1.8073 H   0  0  0  0  0  0  0  0  0  0  0  0
    4.4298  -29.2565   -0.4431 H   0  0  0  0  0  0  0  0  0  0  0  0
    3.7626  -27.8422    0.0273 H   0  0  0  0  0  0  0  0  0  0  0  0
    4.1373  -28.0858   -1.5433 H   0  0  0  0  0  0  0  0  0  0  0  0
  1  2  2  0  0  0  0
  1  3  1  0  0  0  0
  1  4  1  0  0  0  0
  3  5  1  0  0  0  0
  3  6  1  0  0  0  0
  3  7  1  0  0  0  0
  4  8  1  0  0  0  0
  4  9  1  0  0  0  0
  4 10  1  0  0  0  0
M  END
$$$$
6Y2O_DMS_A_402
prProtoss 08182322583D 1   1.00000     0.00000     0
Protoss beta proteinsplus
 10  9  0  0  0  0            999 V2000
    2.7690   -5.1110  -17.4530 S   0  0  0  0  0  0  0  0  0  0  0  0
    4.1580   -5.6400  -17.4350 O   0  0  0  0  0  0  0  0  0  0  0  0
    2.9990   -3.4740  -16.8040 C   0  0  0  0  0  0  0  0  0  0  0  0
    2.5150   -4.7100  -19.1010 C   0  0  0  0  0  0  0  0  0  0  0  0
    2.1172   -3.0039  -16.7651 H   0  0  0  0  0  0  0  0  0  0  0  0
    3.3869   -3.5316  -15.8841 H   0  0  0  0  0  0  0  0  0  0  0  0
    3.6224   -2.9647  -17.3973 H   0  0  0  0  0  0  0  0  0  0  0  0
    1.5931   -4.3399  -19.2157 H   0  0  0  0  0  0  0  0  0  0  0  0
    3.1867   -4.0257  -19.3849 H   0  0  0  0  0  0  0  0  0  0  0  0
    2.6171   -5.5306  -19.6633 H   0  0  0  0  0  0  0  0  0  0  0  0
  1  2  2  0  0  0  0
  1  3  1  0  0  0  0
  1  4  1  0  0  0  0
  3  5  1  0  0  0  0
  3  6  1  0  0  0  0
  3  7  1  0  0  0  0
  4  8  1  0  0  0  0
  4  9  1  0  0  0  0
  4 10  1  0  0  0  0
M  END
$$$$
6Y2O_DMS_A_403
prProtoss 08182322583D 1   1.00000     0.00000     0
Protoss beta proteinsplus
 10  9  0  0  0  0            999 V2000
   18.6710  -11.2110   -5.2460 S   0  0  0  0  0  0  0  0  0  0  0  0
   19.7440  -11.0420   -6.2690 O   0  0  0  0  0  0  0  0  0  0  0  0
   19.3340  -10.4750   -3.7690 C   0  0  0  0  0  0  0  0  0  0  0  0
   17.4800   -9.9690   -5.6440 C   0  0  0  0  0  0  0  0  0  0  0  0
   18.6647  -10.5501   -3.0298 H   0  0  0  0  0  0  0  0  0  0  0  0
   20.1740  -10.9505   -3.5077 H   0  0  0  0  0  0  0  0  0  0  0  0
   19.5361   -9.5105   -3.9390 H   0  0  0  0  0  0  0  0  0  0  0  0
   16.7196  -10.0167   -4.9963 H   0  0  0  0  0  0  0  0  0  0  0  0
   17.9082   -9.0669   -5.5896 H   0  0  0  0  0  0  0  0  0  0  0  0
   17.1379  -10.1202   -6.5714 H   0  0  0  0  0  0  0  0  0  0  0  0
  1  2  2  0  0  0  0
  1  3  1  0  0  0  0
  1  4  1  0  0  0  0
  3  5  1  0  0  0  0
  3  6  1  0  0  0  0
  3  7  1  0  0  0  0
  4  8  1  0  0  0  0
  4  9  1  0  0  0  0
  4 10  1  0  0  0  0
M  END
$$$$
6Y2O_DMS_A_404
prProtoss 08182322583D 1   1.00000     0.00000     0
Protoss beta proteinsplus
 10  9  0  0  0  0            999 V2000
   -6.5840  -39.1660  -17.3990 S   0  0  0  0  0  0  0  0  0  0  0  0
   -5.6690  -38.0090  -17.3890 O   0  0  0  0  0  0  0  0  0  0  0  0
   -6.8770  -39.5690  -15.6970 C   0  0  0  0  0  0  0  0  0  0  0  0
   -8.1670  -38.4590  -17.7520 C   0  0  0  0  0  0  0  0  0  0  0  0
   -7.4958  -40.3526  -15.6417 H   0  0  0  0  0  0  0  0  0  0  0  0
   -6.0098  -39.7972  -15.2544 H   0  0  0  0  0  0  0  0  0  0  0  0
   -7.2906  -38.7844  -15.2351 H   0  0  0  0  0  0  0  0  0  0  0  0
   -8.8569  -39.1825  -17.7780 H   0  0  0  0  0  0  0  0  0  0  0  0
   -8.4034  -37.7984  -17.0395 H   0  0  0  0  0  0  0  0  0  0  0  0
   -8.1354  -37.9965  -18.6381 H   0  0  0  0  0  0  0  0  0  0  0  0
  1  2  2  0  0  0  0
  1  3  1  0  0  0  0
  1  4  1  0  0  0  0
  3  5  1  0  0  0  0
  3  6  1  0  0  0  0
  3  7  1  0  0  0  0
  4  8  1  0  0  0  0
  4  9  1  0  0  0  0
  4 10  1  0  0  0  0
M  END
$$$$
6Y2O_DMS_A_405
prProtoss 08182322583D 1   1.00000     0.00000     0
Protoss beta proteinsplus
 10  9  0  0  0  0            999 V2000
  -13.4070  -28.5530  -24.2150 S   0  0  0  0  0  0  0  0  0  0  0  0
  -13.2680  -27.1490  -24.6700 O   0  0  0  0  0  0  0  0  0  0  0  0
  -14.5650  -28.4880  -22.8510 C   0  0  0  0  0  0  0  0  0  0  0  0
  -14.4730  -29.3990  -25.3620 C   0  0  0  0  0  0  0  0  0  0  0  0
  -14.7079  -29.4099  -22.4908 H   0  0  0  0  0  0  0  0  0  0  0  0
  -14.1974  -27.9014  -22.1293 H   0  0  0  0  0  0  0  0  0  0  0  0
  -15.4365  -28.1164  -23.1710 H   0  0  0  0  0  0  0  0  0  0  0  0
  -14.5824  -30.3508  -25.0755 H   0  0  0  0  0  0  0  0  0  0  0  0
  -15.3669  -28.9511  -25.3788 H   0  0  0  0  0  0  0  0  0  0  0  0
  -14.0686  -29.3704  -26.2761 H   0  0  0  0  0  0  0  0  0  0  0  0
  1  2  2  0  0  0  0
  1  3  1  0  0  0  0
  1  4  1  0  0  0  0
  3  5  1  0  0  0  0
  3  6  1  0  0  0  0
  3  7  1  0  0  0  0
  4  8  1  0  0  0  0
  4  9  1  0  0  0  0
  4 10  1  0  0  0  0
M  END
$$$$
6Y2O_O72_A_406
prProtoss 08182322583D 1   1.00000     0.00000     0
Protoss beta proteinsplus
 18 19  0  0  0  0            999 V2000
   17.6680  -25.3470  -22.7300 N   0  0  0  0  0  0  0  0  0  0  0  0
   17.6490  -27.6450  -22.6800 N   0  0  0  0  0  0  0  0  0  0  0  0
   15.6960  -25.2680  -24.7080 N   0  0  0  0  0  0  0  0  0  0  0  0
   14.7910  -25.3160  -25.6720 C   0  0  0  0  0  0  0  0  0  0  0  0
   17.1590  -28.8030  -23.1450 C   0  0  0  0  0  0  0  0  0  0  0  0
   14.2670  -26.4820  -26.1910 C   0  0  0  0  0  0  0  0  0  0  0  0
   16.2000  -28.8890  -24.1020 C   0  0  0  0  0  0  0  0  0  0  0  0
   14.6970  -27.6750  -25.6910 C   0  0  0  0  0  0  0  0  0  0  0  0
   17.1610  -26.4910  -23.1960 C   0  0  0  0  0  0  0  0  0  0  0  0
   16.1480  -26.4560  -24.2070 C   0  0  0  0  0  0  0  0  0  0  0  0
   15.6680  -27.7050  -24.6660 C   0  0  0  0  0  0  0  0  0  0  0  0
   17.3362  -24.4724  -23.0835 H   0  0  0  0  0  0  0  0  0  0  0  0
   18.3795  -25.3649  -22.0275 H   0  0  0  0  0  0  0  0  0  0  0  0
   14.4651  -24.4493  -26.0496 H   0  0  0  0  0  0  0  0  0  0  0  0
   17.5214  -29.6538  -22.7644 H   0  0  0  0  0  0  0  0  0  0  0  0
   13.5840  -26.4525  -26.9209 H   0  0  0  0  0  0  0  0  0  0  0  0
   15.8716  -29.7831  -24.4065 H   0  0  0  0  0  0  0  0  0  0  0  0
   14.3242  -28.5304  -26.0506 H   0  0  0  0  0  0  0  0  0  0  0  0
  1  9  1  0  0  0  0
  2  5  1  0  0  0  0
  2  9  2  0  0  0  0
  3  4  1  0  0  0  0
  3 10  2  0  0  0  0
  4  6  2  0  0  0  0
  5  7  2  0  0  0  0
  6  8  1  0  0  0  0
  7 11  1  0  0  0  0
  8 11  2  0  0  0  0
  9 10  1  0  0  0  0
 10 11  1  0  0  0  0
  1 12  1  0  0  0  0
  1 13  1  0  0  0  0
  4 14  1  0  0  0  0
  5 15  1  0  0  0  0
  6 16  1  0  0  0  0
  7 17  1  0  0  0  0
  8 18  1  0  0  0  0
M  END
$$$$
6YNR_MPD_A_401
prProtoss 08182323023D 1   1.00000     0.00000     0
Protoss beta proteinsplus
 22 21  0  0  0  0            999 V2000
  -30.0810   -3.9420  -17.2390 O   0  0  0  0  0  0  0  0  0  0  0  0
  -27.0930   -7.0940  -15.9240 O   0  0  0  0  0  0  0  0  0  0  0  0
  -28.3590   -2.5200  -16.3450 C   0  0  0  0  0  0  0  0  0  0  0  0
  -27.5370   -6.2290  -18.1540 C   0  0  0  0  0  0  0  0  0  0  0  0
  -25.8260   -5.1860  -16.6900 C   0  0  0  0  0  0  0  0  0  0  0  0
  -28.2480   -4.9910  -16.0890 C   0  0  0  0  0  0  0  0  0  0  0  0
  -28.6910   -3.8540  -17.0060 C   0  0  1  0  0  0  0  0  0  0  0  0
  -27.1800   -5.8810  -16.7140 C   0  0  0  0  0  0  0  0  0  0  0  0
  -30.2915   -4.8184  -17.6722 H   0  0  0  0  0  0  0  0  0  0  0  0
  -26.8586   -6.8610  -14.9802 H   0  0  0  0  0  0  0  0  0  0  0  0
  -27.3738   -2.4643  -16.1829 H   0  0  0  0  0  0  0  0  0  0  0  0
  -28.6409   -1.7714  -16.9450 H   0  0  0  0  0  0  0  0  0  0  0  0
  -28.8446   -2.4497  -15.4737 H   0  0  0  0  0  0  0  0  0  0  0  0
  -27.5959   -5.3900  -18.6949 H   0  0  0  0  0  0  0  0  0  0  0  0
  -26.8311   -6.8242  -18.5379 H   0  0  0  0  0  0  0  0  0  0  0  0
  -28.4183   -6.7012  -18.1742 H   0  0  0  0  0  0  0  0  0  0  0  0
  -25.8724   -4.3468  -17.2319 H   0  0  0  0  0  0  0  0  0  0  0  0
  -25.5837   -4.9605  -15.7464 H   0  0  0  0  0  0  0  0  0  0  0  0
  -25.1323   -5.7941  -17.0760 H   0  0  0  0  0  0  0  0  0  0  0  0
  -29.0453   -5.5545  -15.8726 H   0  0  0  0  0  0  0  0  0  0  0  0
  -27.8805   -4.5961  -15.2470 H   0  0  0  0  0  0  0  0  0  0  0  0
  -28.2043   -3.9222  -17.8769 H   0  0  0  0  0  0  0  0  0  0  0  0
  1  7  1  0  0  0  0
  2  8  1  0  0  0  0
  3  7  1  0  0  0  0
  4  8  1  0  0  0  0
  5  8  1  0  0  0  0
  6  7  1  0  0  0  0
  6  8  1  0  0  0  0
  1  9  1  0  0  0  0
  2 10  1  0  0  0  0
  3 11  1  0  0  0  0
  3 12  1  0  0  0  0
  3 13  1  0  0  0  0
  4 14  1  0  0  0  0
  4 15  1  0  0  0  0
  4 16  1  0  0  0  0
  5 17  1  0  0  0  0
  5 18  1  0  0  0  0
  5 19  1  0  0  0  0
  6 20  1  0  0  0  0
  6 21  1  0  0  0  0
  7 22  1  0  0  0  0
M  END
$$$$
6YNR_DMS_A_402
prProtoss 08182323023D 1   1.00000     0.00000     0
Protoss beta proteinsplus
 10  9  0  0  0  0            999 V2000
  -40.0050  -26.0350    9.6410 S   0  0  0  0  0  0  0  0  0  0  0  0
  -39.7260  -25.0880   10.7640 O   0  0  0  0  0  0  0  0  0  0  0  0
  -40.8150  -25.1390    8.2930 C   0  0  0  0  0  0  0  0  0  0  0  0
  -38.4530  -26.5530    8.8660 C   0  0  0  0  0  0  0  0  0  0  0  0
  -41.0033  -25.7692    7.5397 H   0  0  0  0  0  0  0  0  0  0  0  0
  -41.6740  -24.7469    8.6222 H   0  0  0  0  0  0  0  0  0  0  0  0
  -40.2152  -24.4059    7.9723 H   0  0  0  0  0  0  0  0  0  0  0  0
  -38.6494  -27.1856    8.1168 H   0  0  0  0  0  0  0  0  0  0  0  0
  -37.9750  -25.7508    8.5083 H   0  0  0  0  0  0  0  0  0  0  0  0
  -37.8773  -27.0088    9.5448 H   0  0  0  0  0  0  0  0  0  0  0  0
  1  2  2  0  0  0  0
  1  3  1  0  0  0  0
  1  4  1  0  0  0  0
  3  5  1  0  0  0  0
  3  6  1  0  0  0  0
  3  7  1  0  0  0  0
  4  8  1  0  0  0  0
  4  9  1  0  0  0  0
  4 10  1  0  0  0  0
M  END
$$$$
6YNR_O72_A_403
prProtoss 08182323023D 1   1.00000     0.00000     0
Protoss beta proteinsplus
 18 19  0  0  0  0            999 V2000
  -33.0410   -9.7020   -1.8620 N   0  0  0  0  0  0  0  0  0  0  0  0
  -33.2320   -9.8360   -4.1270 N   0  0  0  0  0  0  0  0  0  0  0  0
  -30.2080   -9.9440   -2.0160 N   0  0  0  0  0  0  0  0  0  0  0  0
  -28.8970   -9.9990   -2.1880 C   0  0  0  0  0  0  0  0  0  0  0  0
  -32.6680   -9.9080   -5.3420 C   0  0  0  0  0  0  0  0  0  0  0  0
  -28.2730  -10.0510   -3.4190 C   0  0  0  0  0  0  0  0  0  0  0  0
  -31.3290   -9.9870   -5.5520 C   0  0  0  0  0  0  0  0  0  0  0  0
  -29.0400  -10.0620   -4.5450 C   0  0  0  0  0  0  0  0  0  0  0  0
  -32.4330   -9.8410   -3.0430 C   0  0  0  0  0  0  0  0  0  0  0  0
  -30.9900   -9.9380   -3.1350 C   0  0  0  0  0  0  0  0  0  0  0  0
  -30.4480  -10.0050   -4.4420 C   0  0  0  0  0  0  0  0  0  0  0  0
  -32.5021   -9.6979   -1.0196 H   0  0  0  0  0  0  0  0  0  0  0  0
  -34.0351   -9.6021   -1.8201 H   0  0  0  0  0  0  0  0  0  0  0  0
  -28.3193  -10.0032   -1.3718 H   0  0  0  0  0  0  0  0  0  0  0  0
  -33.2697   -9.9032   -6.1407 H   0  0  0  0  0  0  0  0  0  0  0  0
  -27.2755  -10.0801   -3.4828 H   0  0  0  0  0  0  0  0  0  0  0  0
  -30.9670  -10.0322   -6.4831 H   0  0  0  0  0  0  0  0  0  0  0  0
  -28.6062  -10.1104   -5.4447 H   0  0  0  0  0  0  0  0  0  0  0  0
  1  9  1  0  0  0  0
  2  5  1  0  0  0  0
  2  9  2  0  0  0  0
  3  4  1  0  0  0  0
  3 10  2  0  0  0  0
  4  6  2  0  0  0  0
  5  7  2  0  0  0  0
  6  8  1  0  0  0  0
  7 11  1  0  0  0  0
  8 11  2  0  0  0  0
  9 10  1  0  0  0  0
 10 11  1  0  0  0  0
  1 12  1  0  0  0  0
  1 13  1  0  0  0  0
  4 14  1  0  0  0  0
  5 15  1  0  0  0  0
  6 16  1  0  0  0  0
  7 17  1  0  0  0  0
  8 18  1  0  0  0  0
M  END
$$$$
6YOU_P4Q_A_401
prProtoss 08182323023D 1   1.00000     0.00000     0
Protoss beta proteinsplus
 17 18  0  0  0  0            999 V2000
   16.3380    5.1280   20.1710 N   0  0  0  0  0  0  0  0  0  0  0  0
   16.5580    2.8300   20.4340 N   0  0  0  0  0  0  0  0  0  0  0  0
   14.7810    1.3220   19.9270 N   0  0  0  0  0  0  0  0  0  0  0  0
   13.6730    4.7910   19.3560 N   0  0  0  0  0  0  0  0  0  0  0  0
   15.9940    1.6240   20.3350 C   0  0  0  0  0  0  0  0  0  0  0  0
   12.4320    4.5320   18.9740 C   0  0  0  0  0  0  0  0  0  0  0  0
   11.8940    3.2520   18.8550 C   0  0  0  0  0  0  0  0  0  0  0  0
   12.6770    2.1770   19.1560 C   0  0  0  0  0  0  0  0  0  0  0  0
   15.8140    3.9050   20.0980 C   0  0  0  0  0  0  0  0  0  0  0  0
   14.0040    2.3920   19.5780 C   0  0  0  0  0  0  0  0  0  0  0  0
   14.4670    3.7240   19.6560 C   0  0  0  0  0  0  0  0  0  0  0  0
   15.7863    5.9240   19.9219 H   0  0  0  0  0  0  0  0  0  0  0  0
   17.2829    5.2498   20.4748 H   0  0  0  0  0  0  0  0  0  0  0  0
   16.5677    0.8510   20.6059 H   0  0  0  0  0  0  0  0  0  0  0  0
   11.8402    5.3081   18.7559 H   0  0  0  0  0  0  0  0  0  0  0  0
   10.9491    3.1239   18.5538 H   0  0  0  0  0  0  0  0  0  0  0  0
   12.3142    1.2484   19.0783 H   0  0  0  0  0  0  0  0  0  0  0  0
  1  9  1  0  0  0  0
  2  5  1  0  0  0  0
  2  9  2  0  0  0  0
  3  5  2  0  0  0  0
  3 10  1  0  0  0  0
  4  6  1  0  0  0  0
  4 11  2  0  0  0  0
  6  7  2  0  0  0  0
  7  8  1  0  0  0  0
  8 10  2  0  0  0  0
  9 11  1  0  0  0  0
 10 11  1  0  0  0  0
  1 12  1  0  0  0  0
  1 13  1  0  0  0  0
  5 14  1  0  0  0  0
  6 15  1  0  0  0  0
  7 16  1  0  0  0  0
  8 17  1  0  0  0  0
M  END
$$$$
3OOG_YTP_A_2001
prProtoss 03132510053D 1   1.00000     0.00000     0
Protoss beta proteinsplus
 21 21  0  0  0  0            999 V2000
   28.1670    9.9160   -0.1100 O   0  0  0  0  0  0  0  0  0  0  0  0
   33.7180   10.2260   -3.3140 O   0  0  0  0  0  0  0  0  0  0  0  0
   27.2370    9.9640   -2.2730 C   0  0  0  0  0  0  0  0  0  0  0  0
   31.5910   10.4000   -5.1870 C   0  0  0  0  0  0  0  0  0  0  0  0
   32.2020   10.0400   -1.4260 C   0  0  0  0  0  0  0  0  0  0  0  0
   30.8940    9.9940   -0.9240 C   0  0  0  0  0  0  0  0  0  0  0  0
   30.0360   10.2240   -3.1890 C   0  0  0  0  0  0  0  0  0  0  0  0
   28.3890    9.9840   -1.3040 C   0  0  0  0  0  0  0  0  0  0  0  0
   32.4220   10.1740   -2.7970 C   0  0  0  0  0  0  0  0  0  0  0  0
   31.3410   10.2620   -3.6820 C   0  0  0  0  0  0  0  0  0  0  0  0
   29.8120   10.0850   -1.8130 C   0  0  0  0  0  0  0  0  0  0  0  0
   34.5044   10.1670   -2.6991 H   0  0  0  0  0  0  0  0  0  0  0  0
   27.5866   10.0272   -3.2078 H   0  0  0  0  0  0  0  0  0  0  0  0
   26.7256    9.1115   -2.1653 H   0  0  0  0  0  0  0  0  0  0  0  0
   26.6337   10.7401   -2.0896 H   0  0  0  0  0  0  0  0  0  0  0  0
   32.5756   10.4104   -5.3618 H   0  0  0  0  0  0  0  0  0  0  0  0
   31.1755    9.6268   -5.6662 H   0  0  0  0  0  0  0  0  0  0  0  0
   31.1851   11.2528   -5.5155 H   0  0  0  0  0  0  0  0  0  0  0  0
   32.9792    9.9766   -0.7999 H   0  0  0  0  0  0  0  0  0  0  0  0
   30.7335    9.8973    0.0583 H   0  0  0  0  0  0  0  0  0  0  0  0
   29.2614   10.2959   -3.8173 H   0  0  0  0  0  0  0  0  0  0  0  0
  1  8  2  0  0  0  0
  2  9  1  0  0  0  0
  3  8  1  0  0  0  0
  4 10  1  0  0  0  0
  5  6  1  0  0  0  0
  5  9  2  0  0  0  0
  6 11  2  0  0  0  0
  7 10  2  0  0  0  0
  7 11  1  0  0  0  0
  8 11  1  0  0  0  0
  9 10  1  0  0  0  0
  2 12  1  0  0  0  0
  3 13  1  0  0  0  0
  3 14  1  0  0  0  0
  3 15  1  0  0  0  0
  4 16  1  0  0  0  0
  4 17  1  0  0  0  0
  4 18  1  0  0  0  0
  5 19  1  0  0  0  0
  6 20  1  0  0  0  0
  7 21  1  0  0  0  0
M  END
$$$$
5N1M_MPD_A_401
prProtoss 03132510053D 1   1.00000     0.00000     0
Protoss beta proteinsplus
 22 21  0  0  0  0            999 V2000
   -8.2450   12.2510   -4.6310 O   0  0  0  0  0  0  0  0  0  0  0  0
   -9.3990   13.3870   -2.3690 O   0  0  0  0  0  0  0  0  0  0  0  0
   -8.8060   13.2400   -6.7190 C   0  0  0  0  0  0  0  0  0  0  0  0
   -9.7890   15.6030   -3.1960 C   0  0  0  0  0  0  0  0  0  0  0  0
  -11.6970   14.0320   -2.6540 C   0  0  0  0  0  0  0  0  0  0  0  0
  -10.2600   13.5750   -4.6390 C   0  0  0  0  0  0  0  0  0  0  0  0
   -8.8440   13.3890   -5.1980 C   0  0  1  0  0  0  0  0  0  0  0  0
  -10.2830   14.1580   -3.2230 C   0  0  0  0  0  0  0  0  0  0  0  0
   -7.2986   12.1805   -4.9461 H   0  0  0  0  0  0  0  0  0  0  0  0
   -8.9603   12.6670   -2.9068 H   0  0  0  0  0  0  0  0  0  0  0  0
   -9.2283   14.0411   -7.1431 H   0  0  0  0  0  0  0  0  0  0  0  0
   -7.8563   13.1637   -7.0228 H   0  0  0  0  0  0  0  0  0  0  0  0
   -9.3085   12.4177   -6.9860 H   0  0  0  0  0  0  0  0  0  0  0  0
  -10.3767   16.1671   -3.7761 H   0  0  0  0  0  0  0  0  0  0  0  0
   -9.8174   15.9475   -2.2576 H   0  0  0  0  0  0  0  0  0  0  0  0
   -8.8495   15.6405   -3.5366 H   0  0  0  0  0  0  0  0  0  0  0  0
  -12.3328   14.5543   -3.2223 H   0  0  0  0  0  0  0  0  0  0  0  0
  -11.9691   13.0698   -2.6474 H   0  0  0  0  0  0  0  0  0  0  0  0
  -11.7137   14.3896   -1.7203 H   0  0  0  0  0  0  0  0  0  0  0  0
  -10.7138   12.6841   -4.6224 H   0  0  0  0  0  0  0  0  0  0  0  0
  -10.7612   14.1932   -5.2445 H   0  0  0  0  0  0  0  0  0  0  0  0
   -8.2993   14.1891   -4.9468 H   0  0  0  0  0  0  0  0  0  0  0  0
  1  7  1  0  0  0  0
  2  8  1  0  0  0  0
  3  7  1  0  0  0  0
  4  8  1  0  0  0  0
  5  8  1  0  0  0  0
  6  7  1  0  0  0  0
  6  8  1  0  0  0  0
  1  9  1  0  0  0  0
  2 10  1  0  0  0  0
  3 11  1  0  0  0  0
  3 12  1  0  0  0  0
  3 13  1  0  0  0  0
  4 14  1  0  0  0  0
  4 15  1  0  0  0  0
  4 16  1  0  0  0  0
  5 17  1  0  0  0  0
  5 18  1  0  0  0  0
  5 19  1  0  0  0  0
  6 20  1  0  0  0  0
  6 21  1  0  0  0  0
  7 22  1  0  0  0  0
M  END
$$$$
5N1M_DMS_A_402
prProtoss 03132510053D 1   1.00000     0.00000     0
Protoss beta proteinsplus
 10  9  0  0  0  0            999 V2000
   -7.6700    0.9450  -34.8960 S   0  0  0  0  0  0  0  0  0  0  0  0
   -8.0060    2.3970  -34.7490 O   0  0  0  0  0  0  0  0  0  0  0  0
   -6.6380    0.7040  -36.3660 C   0  0  0  0  0  0  0  0  0  0  0  0
   -6.4940    0.4640  -33.6010 C   0  0  0  0  0  0  0  0  0  0  0  0
   -6.4153   -0.2662  -36.4615 H   0  0  0  0  0  0  0  0  0  0  0  0
   -7.1352    1.0133  -37.1767 H   0  0  0  0  0  0  0  0  0  0  0  0
   -5.7940    1.2319  -36.2710 H   0  0  0  0  0  0  0  0  0  0  0  0
   -6.2691   -0.5055  -33.6984 H   0  0  0  0  0  0  0  0  0  0  0  0
   -5.6607    1.0099  -33.6880 H   0  0  0  0  0  0  0  0  0  0  0  0
   -6.9040    0.6225  -32.7028 H   0  0  0  0  0  0  0  0  0  0  0  0
  1  2  2  0  0  0  0
  1  3  1  0  0  0  0
  1  4  1  0  0  0  0
  3  5  1  0  0  0  0
  3  6  1  0  0  0  0
  3  7  1  0  0  0  0
  4  8  1  0  0  0  0
  4  9  1  0  0  0  0
  4 10  1  0  0  0  0
M  END
$$$$
5N1M_BJK_A_403
prProtoss 03132510053D 1   1.00000     0.00000     0
Protoss beta proteinsplus
 23 23  0  0  0  0            999 V2000
  -13.5980   22.0090  -26.1960 O   0  0  0  0  0  0  0  0  0  0  0  0
  -15.4450   22.9870  -24.5220 O   0  0  0  0  0  0  0  0  0  0  0  0
  -10.4370   26.4110  -26.0060 N   0  3  0  0  0  0  0  0  0  0  0  0
  -16.2610   23.4580  -23.4480 C   0  0  0  0  0  0  0  0  0  0  0  0
  -11.6460   26.4320  -26.8700 C   0  0  0  0  0  0  0  0  0  0  0  0
  -14.7380   25.2730  -25.0050 C   0  0  0  0  0  0  0  0  0  0  0  0
  -13.7820   26.0860  -25.5860 C   0  0  0  0  0  0  0  0  0  0  0  0
  -12.6970   24.1790  -26.5270 C   0  0  0  0  0  0  0  0  0  0  0  0
  -13.6490   23.3490  -25.9640 C   0  0  0  0  0  0  0  0  0  0  0  0
  -14.6620   23.9010  -25.1710 C   0  0  0  0  0  0  0  0  0  0  0  0
  -12.7420   25.5520  -26.3340 C   0  0  0  0  0  0  0  0  0  0  0  0
  -12.8742   21.6284  -26.7715 H   0  0  0  0  0  0  0  0  0  0  0  0
   -9.7366   27.0073  -26.3983 H   0  0  0  0  0  0  0  0  0  0  0  0
  -10.6759   26.7348  -25.0905 H   0  0  0  0  0  0  0  0  0  0  0  0
  -16.7790   22.6941  -23.0631 H   0  0  0  0  0  0  0  0  0  0  0  0
  -15.6804   23.8579  -22.7388 H   0  0  0  0  0  0  0  0  0  0  0  0
  -16.8948   24.1517  -23.7903 H   0  0  0  0  0  0  0  0  0  0  0  0
  -11.3945   26.1129  -27.7838 H   0  0  0  0  0  0  0  0  0  0  0  0
  -11.9854   27.3710  -26.9265 H   0  0  0  0  0  0  0  0  0  0  0  0
  -15.4801   25.6741  -24.4679 H   0  0  0  0  0  0  0  0  0  0  0  0
  -13.8411   27.0769  -25.4650 H   0  0  0  0  0  0  0  0  0  0  0  0
  -11.9650   23.7835  -27.0817 H   0  0  0  0  0  0  0  0  0  0  0  0
  -10.0850   25.4768  -25.9478 H   0  0  0  0  0  0  0  0  0  0  0  0
  1  9  1  0  0  0  0
  2  4  1  0  0  0  0
  2 10  1  0  0  0  0
  3  5  1  0  0  0  0
  5 11  1  0  0  0  0
  6  7  1  0  0  0  0
  6 10  2  0  0  0  0
  7 11  2  0  0  0  0
  8  9  2  0  0  0  0
  8 11  1  0  0  0  0
  9 10  1  0  0  0  0
  1 12  1  0  0  0  0
  3 13  1  0  0  0  0
  3 14  1  0  0  0  0
  4 15  1  0  0  0  0
  4 16  1  0  0  0  0
  4 17  1  0  0  0  0
  5 18  1  0  0  0  0
  5 19  1  0  0  0  0
  6 20  1  0  0  0  0
  7 21  1  0  0  0  0
  8 22  1  0  0  0  0
  3 23  1  0  0  0  0
M  CHG  1   3   1
M  END
$$$$
5N1K_489_A_401
prProtoss 03132510053D 1   1.00000     0.00000     0
Protoss beta proteinsplus
 22 22  0  0  0  0            999 V2000
   74.4270   98.2110   23.4630 F   0  0  0  0  0  0  0  0  0  0  0  0
   69.7140   96.1390   27.1190 O   0  0  0  0  0  0  0  0  0  0  0  0
   67.3460   96.8370   25.9410 N   0  3  0  0  0  0  0  0  0  0  0  0
   68.6130   97.2400   25.3810 C   0  0  0  0  0  0  0  0  0  0  0  0
   72.7480   99.0640   24.8550 C   0  0  0  0  0  0  0  0  0  0  0  0
   72.8810   96.7160   24.4030 C   0  0  0  0  0  0  0  0  0  0  0  0
   71.5910   98.8490   25.5780 C   0  0  0  0  0  0  0  0  0  0  0  0
   71.7280   96.5170   25.1410 C   0  0  0  0  0  0  0  0  0  0  0  0
   73.3500   97.9920   24.2770 C   0  0  0  0  0  0  0  0  0  0  0  0
   69.7270   97.3630   26.4100 C   0  0  2  0  0  0  0  0  0  0  0  0
   71.0530   97.5750   25.7210 C   0  0  0  0  0  0  0  0  0  0  0  0
   69.3951   95.4078   26.5159 H   0  0  0  0  0  0  0  0  0  0  0  0
   66.6637   96.7766   25.2125 H   0  0  0  0  0  0  0  0  0  0  0  0
   67.4446   95.9440   26.3802 H   0  0  0  0  0  0  0  0  0  0  0  0
   68.4936   98.1284   24.9377 H   0  0  0  0  0  0  0  0  0  0  0  0
   68.8867   96.5614   24.6994 H   0  0  0  0  0  0  0  0  0  0  0  0
   73.1316   99.9825   24.7597 H   0  0  0  0  0  0  0  0  0  0  0  0
   73.3569   95.9480   23.9745 H   0  0  0  0  0  0  0  0  0  0  0  0
   71.1307   99.6259   26.0076 H   0  0  0  0  0  0  0  0  0  0  0  0
   71.3754   95.5885   25.2574 H   0  0  0  0  0  0  0  0  0  0  0  0
   69.5377   98.1226   27.0322 H   0  0  0  0  0  0  0  0  0  0  0  0
   67.0515   97.5110   26.6185 H   0  0  0  0  0  0  0  0  0  0  0  0
  1  9  1  0  0  0  0
  2 10  1  0  0  0  0
  3  4  1  0  0  0  0
  4 10  1  0  0  0  0
  5  7  2  0  0  0  0
  5  9  1  0  0  0  0
  6  8  1  0  0  0  0
  6  9  2  0  0  0  0
  7 11  1  0  0  0  0
  8 11  2  0  0  0  0
 10 11  1  0  0  0  0
  2 12  1  0  0  0  0
  3 13  1  0  0  0  0
  3 14  1  0  0  0  0
  4 15  1  0  0  0  0
  4 16  1  0  0  0  0
  5 17  1  0  0  0  0
  6 18  1  0  0  0  0
  7 19  1  0  0  0  0
  8 20  1  0  0  0  0
 10 21  1  0  0  0  0
  3 22  1  0  0  0  0
M  CHG  1   3   1
M  END
$$$$
5N1K_489_A_402
prProtoss 03132510053D 1   1.00000     0.00000     0
Protoss beta proteinsplus
 12 12  0  0  0  0            999 V2000
   66.9840   84.3350    6.4840 F   0  0  0  0  0  0  0  0  0  0  0  0
   67.3400   84.7930    2.3910 C   0  0  0  0  0  0  0  0  0  0  0  0
   66.1500   84.3730    2.9680 C   0  0  0  0  0  0  0  0  0  0  0  0
   68.4200   85.0410    3.2250 C   0  0  0  0  0  0  0  0  0  0  0  0
   66.0290   84.2110    4.3420 C   0  0  0  0  0  0  0  0  0  0  0  0
   68.3220   84.8600    4.5970 C   0  0  0  0  0  0  0  0  0  0  0  0
   67.1130   84.4560    5.1170 C   0  0  0  0  0  0  0  0  0  0  0  0
   67.4167   84.9135    1.4013 H   0  0  0  0  0  0  0  0  0  0  0  0
   65.3625   84.1828    2.3818 H   0  0  0  0  0  0  0  0  0  0  0  0
   69.2836   85.3555    2.8309 H   0  0  0  0  0  0  0  0  0  0  0  0
   65.1631   83.9207    4.7493 H   0  0  0  0  0  0  0  0  0  0  0  0
   69.1092   85.0189    5.1928 H   0  0  0  0  0  0  0  0  0  0  0  0
  1  7  1  0  0  0  0
  2  3  2  0  0  0  0
  2  4  1  0  0  0  0
  3  5  1  0  0  0  0
  4  6  2  0  0  0  0
  5  7  2  0  0  0  0
  6  7  1  0  0  0  0
  2  8  1  0  0  0  0
  3  9  1  0  0  0  0
  4 10  1  0  0  0  0
  5 11  1  0  0  0  0
  6 12  1  0  0  0  0
M  END
$$$$
5N1K_DMS_A_403
prProtoss 03132510053D 1   1.00000     0.00000     0
Protoss beta proteinsplus
 10  9  0  0  0  0            999 V2000
   69.1480   87.4690   32.8640 S   0  0  0  0  0  0  0  0  0  0  0  0
   68.3010   87.2070   34.0840 O   0  0  0  0  0  0  0  0  0  0  0  0
   68.6280   86.4070   31.4750 C   0  0  0  0  0  0  0  0  0  0  0  0
   68.6310   89.0890   32.2510 C   0  0  0  0  0  0  0  0  0  0  0  0
   69.2013   86.5964   30.6778 H   0  0  0  0  0  0  0  0  0  0  0  0
   68.7256   85.4464   31.7352 H   0  0  0  0  0  0  0  0  0  0  0  0
   67.6720   86.5961   31.2506 H   0  0  0  0  0  0  0  0  0  0  0  0
   69.1609   89.3214   31.4354 H   0  0  0  0  0  0  0  0  0  0  0  0
   67.6583   89.0632   32.0203 H   0  0  0  0  0  0  0  0  0  0  0  0
   68.7878   89.7785   32.9581 H   0  0  0  0  0  0  0  0  0  0  0  0
  1  2  2  0  0  0  0
  1  3  1  0  0  0  0
  1  4  1  0  0  0  0
  3  5  1  0  0  0  0
  3  6  1  0  0  0  0
  3  7  1  0  0  0  0
  4  8  1  0  0  0  0
  4  9  1  0  0  0  0
  4 10  1  0  0  0  0
M  END
$$$$
5N1K_489_B_101
prProtoss 03132510053D 1   1.00000     0.00000     0
Protoss beta proteinsplus
 12 12  0  0  0  0            999 V2000
   60.4700  104.8390   31.2650 F   0  0  0  0  0  0  0  0  0  0  0  0
   64.2520  104.1310   32.4900 C   0  0  0  0  0  0  0  0  0  0  0  0
   63.2550  104.4050   33.4130 C   0  0  0  0  0  0  0  0  0  0  0  0
   63.9220  104.1490   31.1410 C   0  0  0  0  0  0  0  0  0  0  0  0
   61.9640  104.6680   33.0040 C   0  0  0  0  0  0  0  0  0  0  0  0
   62.6470  104.4090   30.7250 C   0  0  0  0  0  0  0  0  0  0  0  0
   61.7010  104.6440   31.6650 C   0  0  0  0  0  0  0  0  0  0  0  0
   65.1844  103.9258   32.7875 H   0  0  0  0  0  0  0  0  0  0  0  0
   63.4745  104.4121   34.3886 H   0  0  0  0  0  0  0  0  0  0  0  0
   64.6320  103.9680   30.4605 H   0  0  0  0  0  0  0  0  0  0  0  0
   61.2437  104.8698   33.6676 H   0  0  0  0  0  0  0  0  0  0  0  0
   62.4182  104.4254   29.7517 H   0  0  0  0  0  0  0  0  0  0  0  0
  1  7  1  0  0  0  0
  2  3  2  0  0  0  0
  2  4  1  0  0  0  0
  3  5  1  0  0  0  0
  4  6  2  0  0  0  0
  5  7  2  0  0  0  0
  6  7  1  0  0  0  0
  2  8  1  0  0  0  0
  3  9  1  0  0  0  0
  4 10  1  0  0  0  0
  5 11  1  0  0  0  0
  6 12  1  0  0  0  0
M  END
$$$$
2UW3_GVG_A_1351
prProtoss 05262315173D 1   1.00000     0.00000     0
Protoss beta proteinsplus
 22 23  0  0  0  0            999 V2000
    2.9110    9.4710    4.1780 N   0  0  0  0  0  0  0  0  0  0  0  0
    3.0070    9.7620    2.8590 N   0  0  0  0  0  0  0  0  0  0  0  0
    4.6250   10.3550    1.0850 C   0  0  0  0  0  0  0  0  0  0  0  0
    4.1570    9.5300    4.6500 C   0  0  0  0  0  0  0  0  0  0  0  0
    9.2680   10.0700    4.1770 C   0  0  0  0  0  0  0  0  0  0  0  0
    8.7420    9.8510    2.9240 C   0  0  0  0  0  0  0  0  0  0  0  0
    8.4300   10.2530    5.2530 C   0  0  0  0  0  0  0  0  0  0  0  0
    7.3780    9.7740    2.7500 C   0  0  0  0  0  0  0  0  0  0  0  0
    7.0640   10.1810    5.0860 C   0  0  0  0  0  0  0  0  0  0  0  0
    4.2930   10.0190    2.4950 C   0  0  0  0  0  0  0  0  0  0  0  0
    6.5190    9.9590    3.8280 C   0  0  0  0  0  0  0  0  0  0  0  0
    5.0650    9.8650    3.6530 C   0  0  0  0  0  0  0  0  0  0  0  0
    5.6092   10.5115    1.0025 H   0  0  0  0  0  0  0  0  0  0  0  0
    4.3569    9.5975    0.4898 H   0  0  0  0  0  0  0  0  0  0  0  0
    4.1321   11.1820    0.8145 H   0  0  0  0  0  0  0  0  0  0  0  0
    4.4066    9.3550    5.6024 H   0  0  0  0  0  0  0  0  0  0  0  0
   10.2594   10.0961    4.3054 H   0  0  0  0  0  0  0  0  0  0  0  0
    9.3517    9.7476    2.1382 H   0  0  0  0  0  0  0  0  0  0  0  0
    8.8130   10.4386    6.1579 H   0  0  0  0  0  0  0  0  0  0  0  0
    7.0028    9.5839    1.8427 H   0  0  0  0  0  0  0  0  0  0  0  0
    6.4609   10.2894    5.8762 H   0  0  0  0  0  0  0  0  0  0  0  0
    2.2296    9.7852    2.2305 H   0  0  0  0  0  0  0  0  0  0  0  0
  1  2  1  0  0  0  0
  1  4  2  0  0  0  0
  2 10  1  0  0  0  0
  3 10  1  0  0  0  0
  4 12  1  0  0  0  0
  5  6  2  0  0  0  0
  5  7  1  0  0  0  0
  6  8  1  0  0  0  0
  7  9  2  0  0  0  0
  8 11  2  0  0  0  0
  9 11  1  0  0  0  0
 10 12  2  0  0  0  0
 11 12  1  0  0  0  0
  9 21  1  0  0  0  0
  3 13  1  0  0  0  0
  3 14  1  0  0  0  0
  3 15  1  0  0  0  0
  4 16  1  0  0  0  0
  5 17  1  0  0  0  0
  6 18  1  0  0  0  0
  7 19  1  0  0  0  0
  8 20  1  0  0  0  0
  2 22  1  0  0  0  0
M  END
$$$$
5N3O_MPD_A_401
prProtoss 03132510053D 1   1.00000     0.00000     0
Protoss beta proteinsplus
 22 21  0  0  0  0            999 V2000
  -17.4250   26.3680  -35.9890 O   0  0  0  0  0  0  0  0  0  0  0  0
  -15.7930   25.3520  -34.1670 O   0  0  0  0  0  0  0  0  0  0  0  0
  -19.3840   25.1200  -36.6050 C   0  0  0  0  0  0  0  0  0  0  0  0
  -17.5180   25.7470  -32.4510 C   0  0  0  0  0  0  0  0  0  0  0  0
  -16.5190   23.4890  -32.9470 C   0  0  0  0  0  0  0  0  0  0  0  0
  -18.0360   24.4730  -34.5820 C   0  0  0  0  0  0  0  0  0  0  0  0
  -18.5160   25.6380  -35.4530 C   0  0  1  0  0  0  0  0  0  0  0  0
  -16.9770   24.8040  -33.5290 C   0  0  0  0  0  0  0  0  0  0  0  0
  -16.8814   25.7703  -36.5784 H   0  0  0  0  0  0  0  0  0  0  0  0
  -15.4647   24.7146  -34.8641 H   0  0  0  0  0  0  0  0  0  0  0  0
  -20.1561   24.6037  -36.2345 H   0  0  0  0  0  0  0  0  0  0  0  0
  -19.7256   25.8935  -37.1388 H   0  0  0  0  0  0  0  0  0  0  0  0
  -18.8366   24.5248  -37.1933 H   0  0  0  0  0  0  0  0  0  0  0  0
  -18.3308   25.3425  -32.0317 H   0  0  0  0  0  0  0  0  0  0  0  0
  -16.8180   25.8899  -31.7513 H   0  0  0  0  0  0  0  0  0  0  0  0
  -17.7586   26.6245  -32.8659 H   0  0  0  0  0  0  0  0  0  0  0  0
  -17.2860   23.0439  -32.4848 H   0  0  0  0  0  0  0  0  0  0  0  0
  -16.1839   22.8983  -33.6810 H   0  0  0  0  0  0  0  0  0  0  0  0
  -15.7837   23.6535  -32.2896 H   0  0  0  0  0  0  0  0  0  0  0  0
  -17.6543   23.7761  -35.1891 H   0  0  0  0  0  0  0  0  0  0  0  0
  -18.8326   24.1003  -34.1060 H   0  0  0  0  0  0  0  0  0  0  0  0
  -19.0667   26.2535  -34.8891 H   0  0  0  0  0  0  0  0  0  0  0  0
  1  7  1  0  0  0  0
  2  8  1  0  0  0  0
  3  7  1  0  0  0  0
  4  8  1  0  0  0  0
  5  8  1  0  0  0  0
  6  7  1  0  0  0  0
  6  8  1  0  0  0  0
  1  9  1  0  0  0  0
  2 10  1  0  0  0  0
  3 11  1  0  0  0  0
  3 12  1  0  0  0  0
  3 13  1  0  0  0  0
  4 14  1  0  0  0  0
  4 15  1  0  0  0  0
  4 16  1  0  0  0  0
  5 17  1  0  0  0  0
  5 18  1  0  0  0  0
  5 19  1  0  0  0  0
  6 20  1  0  0  0  0
  6 21  1  0  0  0  0
  7 22  1  0  0  0  0
M  END
$$$$
5N3O_MPD_A_402
prProtoss 03132510053D 1   1.00000     0.00000     0
Protoss beta proteinsplus
 22 21  0  0  0  0            999 V2000
   -9.0140   19.9110  -10.1360 O   0  0  0  0  0  0  0  0  0  0  0  0
   -7.5870   18.8940   -8.1600 O   0  0  0  0  0  0  0  0  0  0  0  0
   -9.6250   18.4140  -11.9010 C   0  0  0  0  0  0  0  0  0  0  0  0
   -6.5620   16.8220   -8.5720 C   0  0  0  0  0  0  0  0  0  0  0  0
   -5.4830   19.0000   -9.3010 C   0  0  0  0  0  0  0  0  0  0  0  0
   -7.5000   18.1180  -10.5570 C   0  0  0  0  0  0  0  0  0  0  0  0
   -8.9610   18.5590  -10.5360 C   0  0  1  0  0  0  0  0  0  0  0  0
   -6.7970   18.2090   -9.1820 C   0  0  0  0  0  0  0  0  0  0  0  0
   -9.9683   20.2043  -10.0780 H   0  0  0  0  0  0  0  0  0  0  0  0
   -8.1885   19.5631   -8.5965 H   0  0  0  0  0  0  0  0  0  0  0  0
   -9.5898   17.4570  -12.1888 H   0  0  0  0  0  0  0  0  0  0  0  0
  -10.5785   18.7092  -11.8409 H   0  0  0  0  0  0  0  0  0  0  0  0
   -9.1421   18.9808  -12.5685 H   0  0  0  0  0  0  0  0  0  0  0  0
   -6.0216   16.2670   -9.2044 H   0  0  0  0  0  0  0  0  0  0  0  0
   -6.0690   16.9174   -7.7072 H   0  0  0  0  0  0  0  0  0  0  0  0
   -7.4422   16.3771   -8.4066 H   0  0  0  0  0  0  0  0  0  0  0  0
   -4.8986   18.5735   -9.9913 H   0  0  0  0  0  0  0  0  0  0  0  0
   -5.6841   19.9418   -9.5703 H   0  0  0  0  0  0  0  0  0  0  0  0
   -5.0122   18.9988   -8.4188 H   0  0  0  0  0  0  0  0  0  0  0  0
   -7.0050   18.6995  -11.2026 H   0  0  0  0  0  0  0  0  0  0  0  0
   -7.4624   17.1681  -10.8674 H   0  0  0  0  0  0  0  0  0  0  0  0
   -9.4594   18.0029   -9.8708 H   0  0  0  0  0  0  0  0  0  0  0  0
  1  7  1  0  0  0  0
  2  8  1  0  0  0  0
  3  7  1  0  0  0  0
  4  8  1  0  0  0  0
  5  8  1  0  0  0  0
  6  7  1  0  0  0  0
  6  8  1  0  0  0  0
  1  9  1  0  0  0  0
  2 10  1  0  0  0  0
  3 11  1  0  0  0  0
  3 12  1  0  0  0  0
  3 13  1  0  0  0  0
  4 14  1  0  0  0  0
  4 15  1  0  0  0  0
  4 16  1  0  0  0  0
  5 17  1  0  0  0  0
  5 18  1  0  0  0  0
  5 19  1  0  0  0  0
  6 20  1  0  0  0  0
  6 21  1  0  0  0  0
  7 22  1  0  0  0  0
M  END
$$$$
5N3O_5AO_A_403
prProtoss 03132510053D 1   1.00000     0.00000     0
Protoss beta proteinsplus
 20 21  0  0  0  0            999 V2000
  -20.9550   33.3770  -29.2400 O   0  0  0  0  0  0  0  0  0  0  0  0
  -22.3300   27.4940  -29.8740 N   0  0  0  0  0  0  0  0  0  0  0  0
  -18.9970   33.1410  -28.2060 N   0  0  0  0  0  0  0  0  0  0  0  0
  -19.8830   33.9580  -28.6480 C   0  0  0  0  0  0  0  0  0  0  0  0
  -23.7220   30.7280  -30.9360 C   0  0  0  0  0  0  0  0  0  0  0  0
  -19.5120   31.9040  -28.5320 C   0  0  0  0  0  0  0  0  0  0  0  0
  -23.5880   29.3650  -30.7430 C   0  0  0  0  0  0  0  0  0  0  0  0
  -22.7780   31.6000  -30.4280 C   0  0  0  0  0  0  0  0  0  0  0  0
  -21.5280   29.7390  -29.5600 C   0  0  0  0  0  0  0  0  0  0  0  0
  -22.4840   28.8510  -30.0520 C   0  0  0  0  0  0  0  0  0  0  0  0
  -20.6970   32.0300  -29.1540 C   0  0  0  0  0  0  0  0  0  0  0  0
  -21.6730   31.1120  -29.7360 C   0  0  0  0  0  0  0  0  0  0  0  0
  -21.5362   27.1416  -29.3783 H   0  0  0  0  0  0  0  0  0  0  0  0
  -23.0120   26.8611  -30.2405 H   0  0  0  0  0  0  0  0  0  0  0  0
  -19.7892   34.9499  -28.5619 H   0  0  0  0  0  0  0  0  0  0  0  0
  -24.5054   31.0840  -31.4454 H   0  0  0  0  0  0  0  0  0  0  0  0
  -19.0648   31.0320  -28.3328 H   0  0  0  0  0  0  0  0  0  0  0  0
  -24.2845   28.7422  -31.0995 H   0  0  0  0  0  0  0  0  0  0  0  0
  -22.8890   32.5853  -30.5580 H   0  0  0  0  0  0  0  0  0  0  0  0
  -20.7285   29.3850  -29.0748 H   0  0  0  0  0  0  0  0  0  0  0  0
  1  4  1  0  0  0  0
  1 11  1  0  0  0  0
  2 10  1  0  0  0  0
  3  4  2  0  0  0  0
  3  6  1  0  0  0  0
  5  7  1  0  0  0  0
  5  8  2  0  0  0  0
  6 11  2  0  0  0  0
  7 10  2  0  0  0  0
  8 12  1  0  0  0  0
  9 10  1  0  0  0  0
  9 12  2  0  0  0  0
 11 12  1  0  0  0  0
  2 13  1  0  0  0  0
  2 14  1  0  0  0  0
  4 15  1  0  0  0  0
  5 16  1  0  0  0  0
  6 17  1  0  0  0  0
  7 18  1  0  0  0  0
  8 19  1  0  0  0  0
  9 20  1  0  0  0  0
M  END
$$$$
5N3O_5AO_A_404
prProtoss 03132510053D 1   1.00000     0.00000     0
Protoss beta proteinsplus
 20 21  0  0  0  0            999 V2000
  -10.4630    4.0210  -28.6640 O   0  0  0  0  0  0  0  0  0  0  0  0
  -15.3700    4.8580  -29.2950 N   0  0  0  0  0  0  0  0  0  0  0  0
   -8.8930    2.5500  -28.1190 N   0  0  0  0  0  0  0  0  0  0  0  0
   -9.2020    3.7870  -28.2350 C   0  0  0  0  0  0  0  0  0  0  0  0
  -14.2830    1.4260  -30.0340 C   0  0  0  0  0  0  0  0  0  0  0  0
  -10.0400    1.8920  -28.5180 C   0  0  0  0  0  0  0  0  0  0  0  0
  -15.0840    2.5470  -29.9340 C   0  0  0  0  0  0  0  0  0  0  0  0
  -12.9420    1.4960  -29.6990 C   0  0  0  0  0  0  0  0  0  0  0  0
  -13.1930    3.8290  -29.1950 C   0  0  0  0  0  0  0  0  0  0  0  0
  -14.5520    3.7590  -29.4920 C   0  0  0  0  0  0  0  0  0  0  0  0
  -10.9950    2.7730  -28.8590 C   0  0  0  0  0  0  0  0  0  0  0  0
  -12.3820    2.7030  -29.2960 C   0  0  0  0  0  0  0  0  0  0  0  0
  -14.9789    5.7220  -28.9780 H   0  0  0  0  0  0  0  0  0  0  0  0
  -16.3521    4.7880  -29.4696 H   0  0  0  0  0  0  0  0  0  0  0  0
   -8.5598    4.5241  -28.0244 H   0  0  0  0  0  0  0  0  0  0  0  0
  -14.6734    0.5611  -30.3495 H   0  0  0  0  0  0  0  0  0  0  0  0
  -10.1449    0.8980  -28.5487 H   0  0  0  0  0  0  0  0  0  0  0  0
  -16.0516    2.4896  -30.1800 H   0  0  0  0  0  0  0  0  0  0  0  0
  -12.3734    0.6748  -29.7470 H   0  0  0  0  0  0  0  0  0  0  0  0
  -12.7951    4.6996  -28.9055 H   0  0  0  0  0  0  0  0  0  0  0  0
  1  4  1  0  0  0  0
  1 11  1  0  0  0  0
  2 10  1  0  0  0  0
  3  4  2  0  0  0  0
  3  6  1  0  0  0  0
  5  7  1  0  0  0  0
  5  8  2  0  0  0  0
  6 11  2  0  0  0  0
  7 10  2  0  0  0  0
  8 12  1  0  0  0  0
  9 10  1  0  0  0  0
  9 12  2  0  0  0  0
 11 12  1  0  0  0  0
  2 13  1  0  0  0  0
  2 14  1  0  0  0  0
  4 15  1  0  0  0  0
  5 16  1  0  0  0  0
  6 17  1  0  0  0  0
  7 18  1  0  0  0  0
  8 19  1  0  0  0  0
  9 20  1  0  0  0  0
M  END
$$$$
5N3O_5AO_A_405
prProtoss 03132510053D 1   1.00000     0.00000     0
Protoss beta proteinsplus
 20 21  0  0  0  0            999 V2000
  -16.8540   30.6340  -24.7870 O   0  0  0  0  0  0  0  0  0  0  0  0
  -15.0700   30.1630  -29.5180 N   0  0  0  0  0  0  0  0  0  0  0  0
  -18.2220   29.8530  -23.2120 N   0  0  0  0  0  0  0  0  0  0  0  0
  -17.2690   30.6660  -23.4950 C   0  0  0  0  0  0  0  0  0  0  0  0
  -18.0760   28.1680  -28.7840 C   0  0  0  0  0  0  0  0  0  0  0  0
  -18.4710   29.2210  -24.4130 C   0  0  0  0  0  0  0  0  0  0  0  0
  -17.0450   28.7640  -29.4850 C   0  0  0  0  0  0  0  0  0  0  0  0
  -18.2790   28.4710  -27.4500 C   0  0  0  0  0  0  0  0  0  0  0  0
  -16.4150   29.9880  -27.5120 C   0  0  0  0  0  0  0  0  0  0  0  0
  -16.1840   29.6640  -28.8510 C   0  0  0  0  0  0  0  0  0  0  0  0
  -17.6540   29.6880  -25.3780 C   0  0  0  0  0  0  0  0  0  0  0  0
  -17.4560   29.3900  -26.8030 C   0  0  0  0  0  0  0  0  0  0  0  0
  -14.4585   30.8066  -29.0578 H   0  0  0  0  0  0  0  0  0  0  0  0
  -14.8807   29.8781  -30.4577 H   0  0  0  0  0  0  0  0  0  0  0  0
  -16.8633   31.2766  -22.8149 H   0  0  0  0  0  0  0  0  0  0  0  0
  -18.6779   27.5148  -29.2433 H   0  0  0  0  0  0  0  0  0  0  0  0
  -19.1636   28.5126  -24.5490 H   0  0  0  0  0  0  0  0  0  0  0  0
  -16.9140   28.5498  -30.4530 H   0  0  0  0  0  0  0  0  0  0  0  0
  -19.0209   28.0278  -26.9469 H   0  0  0  0  0  0  0  0  0  0  0  0
  -15.8270   30.6565  -27.0567 H   0  0  0  0  0  0  0  0  0  0  0  0
  1  4  1  0  0  0  0
  1 11  1  0  0  0  0
  2 10  1  0  0  0  0
  3  4  2  0  0  0  0
  3  6  1  0  0  0  0
  5  7  1  0  0  0  0
  5  8  2  0  0  0  0
  6 11  2  0  0  0  0
  7 10  2  0  0  0  0
  8 12  1  0  0  0  0
  9 10  1  0  0  0  0
  9 12  2  0  0  0  0
 11 12  1  0  0  0  0
  2 13  1  0  0  0  0
  2 14  1  0  0  0  0
  4 15  1  0  0  0  0
  5 16  1  0  0  0  0
  6 17  1  0  0  0  0
  7 18  1  0  0  0  0
  8 19  1  0  0  0  0
  9 20  1  0  0  0  0
M  END
$$$$
5N3O_DMS_A_406
prProtoss 03132510053D 1   1.00000     0.00000     0
Protoss beta proteinsplus
 10  9  0  0  0  0            999 V2000
  -34.9050   -2.8080   -8.0100 S   0  0  0  0  0  0  0  0  0  0  0  0
  -34.0380   -1.5920   -7.9170 O   0  0  0  0  0  0  0  0  0  0  0  0
  -34.4260   -3.9890   -6.7170 C   0  0  0  0  0  0  0  0  0  0  0  0
  -36.5810   -2.3830   -7.4570 C   0  0  0  0  0  0  0  0  0  0  0  0
  -35.0045   -4.8024   -6.7776 H   0  0  0  0  0  0  0  0  0  0  0  0
  -33.4690   -4.2505   -6.8423 H   0  0  0  0  0  0  0  0  0  0  0  0
  -34.5407   -3.5646   -5.8188 H   0  0  0  0  0  0  0  0  0  0  0  0
  -37.1666   -3.1914   -7.5164 H   0  0  0  0  0  0  0  0  0  0  0  0
  -36.5486   -2.0637   -6.5099 H   0  0  0  0  0  0  0  0  0  0  0  0
  -36.9510   -1.6598   -8.0401 H   0  0  0  0  0  0  0  0  0  0  0  0
  1  2  2  0  0  0  0
  1  3  1  0  0  0  0
  1  4  1  0  0  0  0
  3  5  1  0  0  0  0
  3  6  1  0  0  0  0
  3  7  1  0  0  0  0
  4  8  1  0  0  0  0
  4  9  1  0  0  0  0
  4 10  1  0  0  0  0
M  END
$$$$
5N3N_MPD_A_401
prProtoss 03132510063D 1   1.00000     0.00000     0
Protoss beta proteinsplus
 22 21  0  0  0  0            999 V2000
   -9.1550   18.2450  -11.7840 O   0  0  0  0  0  0  0  0  0  0  0  0
   -6.5730   18.5180   -8.1510 O   0  0  0  0  0  0  0  0  0  0  0  0
   -8.7830   19.7640  -10.0820 C   0  0  0  0  0  0  0  0  0  0  0  0
   -6.3130   16.2090   -8.4190 C   0  0  0  0  0  0  0  0  0  0  0  0
   -5.2160   17.8230  -10.0480 C   0  0  0  0  0  0  0  0  0  0  0  0
   -7.7270   17.4230  -10.0330 C   0  0  0  0  0  0  0  0  0  0  0  0
   -8.1510   18.6300  -10.8680 C   0  0  1  0  0  0  0  0  0  0  0  0
   -6.4520   17.5160   -9.1930 C   0  0  0  0  0  0  0  0  0  0  0  0
   -8.8189   17.4923  -12.3501 H   0  0  0  0  0  0  0  0  0  0  0  0
   -5.7547   18.5019   -7.5765 H   0  0  0  0  0  0  0  0  0  0  0  0
   -8.1323   20.1011   -9.4016 H   0  0  0  0  0  0  0  0  0  0  0  0
   -9.0275   20.5063  -10.7059 H   0  0  0  0  0  0  0  0  0  0  0  0
   -9.6056   19.4318   -9.6206 H   0  0  0  0  0  0  0  0  0  0  0  0
   -6.2225   15.4487   -9.0622 H   0  0  0  0  0  0  0  0  0  0  0  0
   -5.5013   16.2513   -7.8365 H   0  0  0  0  0  0  0  0  0  0  0  0
   -7.1241   16.0702   -7.8508 H   0  0  0  0  0  0  0  0  0  0  0  0
   -5.1291   17.1342  -10.7677 H   0  0  0  0  0  0  0  0  0  0  0  0
   -5.3138   18.7278  -10.4625 H   0  0  0  0  0  0  0  0  0  0  0  0
   -4.3993   17.8072   -9.4711 H   0  0  0  0  0  0  0  0  0  0  0  0
   -7.6071   16.6569  -10.6644 H   0  0  0  0  0  0  0  0  0  0  0  0
   -8.4785   17.2225   -9.4045 H   0  0  0  0  0  0  0  0  0  0  0  0
   -7.3601   18.9777  -11.3715 H   0  0  0  0  0  0  0  0  0  0  0  0
  1  7  1  0  0  0  0
  2  8  1  0  0  0  0
  3  7  1  0  0  0  0
  4  8  1  0  0  0  0
  5  8  1  0  0  0  0
  6  7  1  0  0  0  0
  6  8  1  0  0  0  0
  1  9  1  0  0  0  0
  2 10  1  0  0  0  0
  3 11  1  0  0  0  0
  3 12  1  0  0  0  0
  3 13  1  0  0  0  0
  4 14  1  0  0  0  0
  4 15  1  0  0  0  0
  4 16  1  0  0  0  0
  5 17  1  0  0  0  0
  5 18  1  0  0  0  0
  5 19  1  0  0  0  0
  6 20  1  0  0  0  0
  6 21  1  0  0  0  0
  7 22  1  0  0  0  0
M  END
$$$$
5N3N_MPD_A_402
prProtoss 03132510063D 1   1.00000     0.00000     0
Protoss beta proteinsplus
 22 21  0  0  0  0            999 V2000
  -17.0230   26.4100  -36.1240 O   0  0  0  0  0  0  0  0  0  0  0  0
  -15.2310   25.4350  -34.1470 O   0  0  0  0  0  0  0  0  0  0  0  0
  -19.2400   25.4180  -36.1310 C   0  0  0  0  0  0  0  0  0  0  0  0
  -16.9230   25.7150  -32.3860 C   0  0  0  0  0  0  0  0  0  0  0  0
  -15.9210   23.4990  -33.0430 C   0  0  0  0  0  0  0  0  0  0  0  0
  -17.4580   24.5730  -34.6170 C   0  0  0  0  0  0  0  0  0  0  0  0
  -18.0140   25.8140  -35.3030 C   0  0  1  0  0  0  0  0  0  0  0  0
  -16.4020   24.8460  -33.5390 C   0  0  0  0  0  0  0  0  0  0  0  0
  -16.4100   25.7017  -36.4740 H   0  0  0  0  0  0  0  0  0  0  0  0
  -14.9130   24.8502  -34.8932 H   0  0  0  0  0  0  0  0  0  0  0  0
  -19.9249   25.0006  -35.5338 H   0  0  0  0  0  0  0  0  0  0  0  0
  -19.6270   26.2321  -36.5639 H   0  0  0  0  0  0  0  0  0  0  0  0
  -18.9686   24.7627  -36.8360 H   0  0  0  0  0  0  0  0  0  0  0  0
  -17.7316   25.2855  -31.9839 H   0  0  0  0  0  0  0  0  0  0  0  0
  -16.2119   25.8050  -31.6887 H   0  0  0  0  0  0  0  0  0  0  0  0
  -17.1649   26.6207  -32.7342 H   0  0  0  0  0  0  0  0  0  0  0  0
  -16.6778   23.0164  -32.6022 H   0  0  0  0  0  0  0  0  0  0  0  0
  -15.5864   22.9594  -33.8156 H   0  0  0  0  0  0  0  0  0  0  0  0
  -15.1810   23.6314  -32.3836 H   0  0  0  0  0  0  0  0  0  0  0  0
  -17.0436   23.9912  -35.3168 H   0  0  0  0  0  0  0  0  0  0  0  0
  -18.2202   24.0877  -34.1886 H   0  0  0  0  0  0  0  0  0  0  0  0
  -18.2941   26.4721  -34.6042 H   0  0  0  0  0  0  0  0  0  0  0  0
  1  7  1  0  0  0  0
  2  8  1  0  0  0  0
  3  7  1  0  0  0  0
  4  8  1  0  0  0  0
  5  8  1  0  0  0  0
  6  7  1  0  0  0  0
  6  8  1  0  0  0  0
  1  9  1  0  0  0  0
  2 10  1  0  0  0  0
  3 11  1  0  0  0  0
  3 12  1  0  0  0  0
  3 13  1  0  0  0  0
  4 14  1  0  0  0  0
  4 15  1  0  0  0  0
  4 16  1  0  0  0  0
  5 17  1  0  0  0  0
  5 18  1  0  0  0  0
  5 19  1  0  0  0  0
  6 20  1  0  0  0  0
  6 21  1  0  0  0  0
  7 22  1  0  0  0  0
M  END
$$$$
5N3N_152_A_403
prProtoss 03132510063D 1   1.00000     0.00000     0
Protoss beta proteinsplus
 26 25  0  0  0  0            999 V2000
    1.9530   -1.4970  -30.7150 O   0  0  0  0  0  0  0  0  0  0  0  0
    1.0670    0.4490  -30.1860 O   0  5  0  0  0  0  0  0  0  0  0  0
    4.1600   -2.3260  -29.3570 O   0  0  0  0  0  0  0  0  0  0  0  0
    6.4040   -0.6680  -30.9190 N   0  3  0  0  0  0  0  0  0  0  0  0
    6.7890   -2.1080  -30.7830 C   0  0  0  0  0  0  0  0  0  0  0  0
    7.2140    0.1540  -29.9700 C   0  0  0  0  0  0  0  0  0  0  0  0
    6.7210   -0.2380  -32.3080 C   0  0  0  0  0  0  0  0  0  0  0  0
    4.9140   -0.4800  -30.6970 C   0  0  0  0  0  0  0  0  0  0  0  0
    3.0480   -0.2000  -29.0390 C   0  0  0  0  0  0  0  0  0  0  0  0
    1.9480   -0.4320  -30.0710 C   0  0  0  0  0  0  0  0  0  0  0  0
    4.3720   -0.9120  -29.3040 C   0  0  1  0  0  0  0  0  0  0  0  0
    3.2280   -2.5119  -29.6682 H   0  0  0  0  0  0  0  0  0  0  0  0
    6.2475   -2.6592  -31.4178 H   0  0  0  0  0  0  0  0  0  0  0  0
    7.7606   -2.2146  -30.9942 H   0  0  0  0  0  0  0  0  0  0  0  0
    6.6161   -2.4122  -29.8462 H   0  0  0  0  0  0  0  0  0  0  0  0
    6.9576    1.1164  -30.0600 H   0  0  0  0  0  0  0  0  0  0  0  0
    7.0410   -0.1509  -29.0335 H   0  0  0  0  0  0  0  0  0  0  0  0
    8.1855    0.0467  -30.1814 H   0  0  0  0  0  0  0  0  0  0  0  0
    6.4721    0.7235  -32.4243 H   0  0  0  0  0  0  0  0  0  0  0  0
    7.7001   -0.3516  -32.4769 H   0  0  0  0  0  0  0  0  0  0  0  0
    6.2039   -0.7969  -32.9562 H   0  0  0  0  0  0  0  0  0  0  0  0
    4.4315   -1.0133  -31.3918 H   0  0  0  0  0  0  0  0  0  0  0  0
    4.7067    0.4907  -30.8183 H   0  0  0  0  0  0  0  0  0  0  0  0
    2.7059   -0.5095  -28.1518 H   0  0  0  0  0  0  0  0  0  0  0  0
    3.2306    0.7825  -29.0015 H   0  0  0  0  0  0  0  0  0  0  0  0
    5.0349   -0.6877  -28.5897 H   0  0  0  0  0  0  0  0  0  0  0  0
  1 10  2  0  0  0  0
  2 10  1  0  0  0  0
  3 11  1  0  0  0  0
  4  5  1  0  0  0  0
  4  6  1  0  0  0  0
  4  7  1  0  0  0  0
  4  8  1  0  0  0  0
  8 11  1  0  0  0  0
  9 10  1  0  0  0  0
  9 11  1  0  0  0  0
 11 26  1  0  0  0  0
  3 12  1  0  0  0  0
  5 13  1  0  0  0  0
  5 14  1  0  0  0  0
  5 15  1  0  0  0  0
  6 16  1  0  0  0  0
  6 17  1  0  0  0  0
  6 18  1  0  0  0  0
  7 19  1  0  0  0  0
  7 20  1  0  0  0  0
  7 21  1  0  0  0  0
  8 22  1  0  0  0  0
  8 23  1  0  0  0  0
  9 24  1  0  0  0  0
  9 25  1  0  0  0  0
M  CHG  2   2  -1   4   1
M  END
$$$$
5N3N_DMS_A_404
prProtoss 03132510063D 1   1.00000     0.00000     0
Protoss beta proteinsplus
 10  9  0  0  0  0            999 V2000
  -34.9590   -2.6480   -8.0680 S   0  0  0  0  0  0  0  0  0  0  0  0
  -34.0650   -1.4630   -7.8880 O   0  0  0  0  0  0  0  0  0  0  0  0
  -34.6670   -3.8480   -6.7380 C   0  0  0  0  0  0  0  0  0  0  0  0
  -36.6800   -2.1860   -7.7230 C   0  0  0  0  0  0  0  0  0  0  0  0
  -35.2674   -4.6377   -6.8638 H   0  0  0  0  0  0  0  0  0  0  0  0
  -33.7131   -4.1472   -6.7625 H   0  0  0  0  0  0  0  0  0  0  0  0
  -34.8596   -3.4202   -5.8549 H   0  0  0  0  0  0  0  0  0  0  0  0
  -37.2703   -2.9838   -7.8457 H   0  0  0  0  0  0  0  0  0  0  0  0
  -36.7547   -1.8578   -6.7814 H   0  0  0  0  0  0  0  0  0  0  0  0
  -36.9632   -1.4619   -8.3518 H   0  0  0  0  0  0  0  0  0  0  0  0
  1  2  2  0  0  0  0
  1  3  1  0  0  0  0
  1  4  1  0  0  0  0
  3  5  1  0  0  0  0
  3  6  1  0  0  0  0
  3  7  1  0  0  0  0
  4  8  1  0  0  0  0
  4  9  1  0  0  0  0
  4 10  1  0  0  0  0
M  END
$$$$
5N3F_MPD_A_401
prProtoss 03132510063D 1   1.00000     0.00000     0
Protoss beta proteinsplus
 22 21  0  0  0  0            999 V2000
   -7.8560   12.3840   -4.3780 O   0  0  0  0  0  0  0  0  0  0  0  0
   -9.0130   13.1170   -2.2430 O   0  0  0  0  0  0  0  0  0  0  0  0
   -8.8840   12.3390   -6.5410 C   0  0  0  0  0  0  0  0  0  0  0  0
   -9.5300   15.2210   -3.1660 C   0  0  0  0  0  0  0  0  0  0  0  0
  -11.3510   13.7070   -2.3570 C   0  0  0  0  0  0  0  0  0  0  0  0
  -10.1310   13.0800   -4.4190 C   0  0  0  0  0  0  0  0  0  0  0  0
   -8.8070   13.0400   -5.1640 C   0  0  1  0  0  0  0  0  0  0  0  0
  -10.0030   13.7680   -3.0520 C   0  0  0  0  0  0  0  0  0  0  0  0
   -8.1100   12.4609   -3.4139 H   0  0  0  0  0  0  0  0  0  0  0  0
   -9.4444   12.7509   -1.4185 H   0  0  0  0  0  0  0  0  0  0  0  0
   -9.5624   12.8007   -7.1126 H   0  0  0  0  0  0  0  0  0  0  0  0
   -7.9896   12.3799   -6.9863 H   0  0  0  0  0  0  0  0  0  0  0  0
   -9.1499   11.3834   -6.4141 H   0  0  0  0  0  0  0  0  0  0  0  0
  -10.1788   15.7401   -3.7224 H   0  0  0  0  0  0  0  0  0  0  0  0
   -9.4747   15.6261   -2.2534 H   0  0  0  0  0  0  0  0  0  0  0  0
   -8.6278   15.2450   -3.5966 H   0  0  0  0  0  0  0  0  0  0  0  0
  -12.0388   14.1614   -2.9231 H   0  0  0  0  0  0  0  0  0  0  0  0
  -11.6117   12.7516   -2.2184 H   0  0  0  0  0  0  0  0  0  0  0  0
  -11.2907   14.1678   -1.4716 H   0  0  0  0  0  0  0  0  0  0  0  0
  -10.4513   12.1430   -4.2798 H   0  0  0  0  0  0  0  0  0  0  0  0
  -10.7970   13.5813   -4.9714 H   0  0  0  0  0  0  0  0  0  0  0  0
   -8.4998   13.9807   -5.3079 H   0  0  0  0  0  0  0  0  0  0  0  0
  1  7  1  0  0  0  0
  2  8  1  0  0  0  0
  3  7  1  0  0  0  0
  4  8  1  0  0  0  0
  5  8  1  0  0  0  0
  6  7  1  0  0  0  0
  6  8  1  0  0  0  0
  1  9  1  0  0  0  0
  2 10  1  0  0  0  0
  3 11  1  0  0  0  0
  3 12  1  0  0  0  0
  3 13  1  0  0  0  0
  4 14  1  0  0  0  0
  4 15  1  0  0  0  0
  4 16  1  0  0  0  0
  5 17  1  0  0  0  0
  5 18  1  0  0  0  0
  5 19  1  0  0  0  0
  6 20  1  0  0  0  0
  6 21  1  0  0  0  0
  7 22  1  0  0  0  0
M  END
$$$$
5N3F_MPD_A_402
prProtoss 03132510063D 1   1.00000     0.00000     0
Protoss beta proteinsplus
 22 21  0  0  0  0            999 V2000
    7.8260    3.4170  -16.4660 O   0  0  0  0  0  0  0  0  0  0  0  0
    9.9830    2.4100  -18.1100 O   0  0  0  0  0  0  0  0  0  0  0  0
    6.9400    1.8810  -14.8810 C   0  0  0  0  0  0  0  0  0  0  0  0
   11.1220    1.9320  -16.0340 C   0  0  0  0  0  0  0  0  0  0  0  0
   10.5930    0.1180  -17.7280 C   0  0  0  0  0  0  0  0  0  0  0  0
    8.7520    1.1670  -16.4330 C   0  0  0  0  0  0  0  0  0  0  0  0
    8.1930    2.3470  -15.6200 C   0  0  1  0  0  0  0  0  0  0  0  0
   10.1120    1.4190  -17.0630 C   0  0  0  0  0  0  0  0  0  0  0  0
    8.4209    3.4256  -17.2698 H   0  0  0  0  0  0  0  0  0  0  0  0
   10.8720    2.5529  -18.5451 H   0  0  0  0  0  0  0  0  0  0  0  0
    7.1741    1.1217  -14.2738 H   0  0  0  0  0  0  0  0  0  0  0  0
    6.5705    2.6375  -14.3415 H   0  0  0  0  0  0  0  0  0  0  0  0
    6.2551    1.5786  -15.5439 H   0  0  0  0  0  0  0  0  0  0  0  0
   11.2235    1.2583  -15.3020 H   0  0  0  0  0  0  0  0  0  0  0  0
   12.0060    2.0772  -16.4783 H   0  0  0  0  0  0  0  0  0  0  0  0
   10.7964    2.7957  -15.6493 H   0  0  0  0  0  0  0  0  0  0  0  0
   10.6944   -0.5939  -17.0330 H   0  0  0  0  0  0  0  0  0  0  0  0
    9.9231   -0.1751  -18.4101 H   0  0  0  0  0  0  0  0  0  0  0  0
   11.4742    0.2772  -18.1731 H   0  0  0  0  0  0  0  0  0  0  0  0
    8.1034    0.9577  -17.1648 H   0  0  0  0  0  0  0  0  0  0  0  0
    8.8323    0.3786  -15.8231 H   0  0  0  0  0  0  0  0  0  0  0  0
    8.8779    2.6574  -14.9608 H   0  0  0  0  0  0  0  0  0  0  0  0
  1  7  1  0  0  0  0
  2  8  1  0  0  0  0
  3  7  1  0  0  0  0
  4  8  1  0  0  0  0
  5  8  1  0  0  0  0
  6  7  1  0  0  0  0
  6  8  1  0  0  0  0
  1  9  1  0  0  0  0
  2 10  1  0  0  0  0
  3 11  1  0  0  0  0
  3 12  1  0  0  0  0
  3 13  1  0  0  0  0
  4 14  1  0  0  0  0
  4 15  1  0  0  0  0
  4 16  1  0  0  0  0
  5 17  1  0  0  0  0
  5 18  1  0  0  0  0
  5 19  1  0  0  0  0
  6 20  1  0  0  0  0
  6 21  1  0  0  0  0
  7 22  1  0  0  0  0
M  END
$$$$
5N3F_463_A_403
prProtoss 03132510063D 1   1.00000     0.00000     0
Protoss beta proteinsplus
 25 25  0  0  0  0            999 V2000
  -15.7570   24.9630  -24.4000 O   0  0  0  0  0  0  0  0  0  0  0  0
   -8.8360   24.1160  -26.2490 N   0  3  0  0  0  0  0  0  0  0  0  0
  -14.1730   23.5890  -25.2400 N   0  0  0  0  0  0  0  0  0  0  0  0
  -16.0330   22.6070  -24.0660 C   0  0  0  0  0  0  0  0  0  0  0  0
   -9.7990   24.5700  -27.2830 C   0  0  0  0  0  0  0  0  0  0  0  0
  -12.7200   26.8070  -26.3740 C   0  0  0  0  0  0  0  0  0  0  0  0
  -13.6240   25.8940  -25.8590 C   0  0  0  0  0  0  0  0  0  0  0  0
  -11.4730   26.3850  -26.7990 C   0  0  0  0  0  0  0  0  0  0  0  0
  -12.0050   24.1460  -26.1600 C   0  0  0  0  0  0  0  0  0  0  0  0
  -15.3240   23.8290  -24.5810 C   0  0  0  0  0  0  0  0  0  0  0  0
  -13.2650   24.5540  -25.7480 C   0  0  0  0  0  0  0  0  0  0  0  0
  -11.1040   25.0490  -26.7100 C   0  0  0  0  0  0  0  0  0  0  0  0
   -8.2499   23.4011  -26.6303 H   0  0  0  0  0  0  0  0  0  0  0  0
   -8.2723   24.8884  -25.9564 H   0  0  0  0  0  0  0  0  0  0  0  0
  -13.9335   22.6292  -25.3865 H   0  0  0  0  0  0  0  0  0  0  0  0
  -15.5160   21.7897  -24.3203 H   0  0  0  0  0  0  0  0  0  0  0  0
  -16.1059   22.6589  -23.0700 H   0  0  0  0  0  0  0  0  0  0  0  0
  -16.9486   22.5598  -24.4653 H   0  0  0  0  0  0  0  0  0  0  0  0
   -9.9849   23.8061  -27.9010 H   0  0  0  0  0  0  0  0  0  0  0  0
   -9.3831   25.3206  -27.7965 H   0  0  0  0  0  0  0  0  0  0  0  0
  -12.9688   27.7734  -26.4390 H   0  0  0  0  0  0  0  0  0  0  0  0
  -14.5317   26.1962  -25.5678 H   0  0  0  0  0  0  0  0  0  0  0  0
  -10.8287   27.0508  -27.1753 H   0  0  0  0  0  0  0  0  0  0  0  0
  -11.7410   23.1867  -26.0595 H   0  0  0  0  0  0  0  0  0  0  0  0
   -9.3370   23.7526  -25.4635 H   0  0  0  0  0  0  0  0  0  0  0  0
  1 10  2  0  0  0  0
  2  5  1  0  0  0  0
  3 10  1  0  0  0  0
  3 11  1  0  0  0  0
  4 10  1  0  0  0  0
  5 12  1  0  0  0  0
  6  7  1  0  0  0  0
  6  8  2  0  0  0  0
  7 11  2  0  0  0  0
  8 12  1  0  0  0  0
  9 11  1  0  0  0  0
  9 12  2  0  0  0  0
  2 13  1  0  0  0  0
  2 14  1  0  0  0  0
  3 15  1  0  0  0  0
  4 16  1  0  0  0  0
  4 17  1  0  0  0  0
  4 18  1  0  0  0  0
  5 19  1  0  0  0  0
  5 20  1  0  0  0  0
  6 21  1  0  0  0  0
  7 22  1  0  0  0  0
  8 23  1  0  0  0  0
  9 24  1  0  0  0  0
  2 25  1  0  0  0  0
M  CHG  1   2   1
M  END
$$$$
5N3F_463_A_404
prProtoss 03132510063D 1   1.00000     0.00000     0
Protoss beta proteinsplus
 25 25  0  0  0  0            999 V2000
  -18.6700    3.7400    3.2070 O   0  0  0  0  0  0  0  0  0  0  0  0
  -12.6540    4.0850    7.2070 N   0  3  0  0  0  0  0  0  0  0  0  0
  -17.5970    3.1440    5.1480 N   0  0  0  0  0  0  0  0  0  0  0  0
  -20.0200    3.1930    5.1000 C   0  0  0  0  0  0  0  0  0  0  0  0
  -12.7390    2.8840    6.3260 C   0  0  0  0  0  0  0  0  0  0  0  0
  -14.6310    2.5010    3.0690 C   0  0  0  0  0  0  0  0  0  0  0  0
  -15.9410    2.7370    3.4490 C   0  0  0  0  0  0  0  0  0  0  0  0
  -13.6020    2.5850    3.9920 C   0  0  0  0  0  0  0  0  0  0  0  0
  -15.1820    3.1710    5.6900 C   0  0  0  0  0  0  0  0  0  0  0  0
  -18.7140    3.3830    4.3850 C   0  0  0  0  0  0  0  0  0  0  0  0
  -16.2260    3.0660    4.7710 C   0  0  0  0  0  0  0  0  0  0  0  0
  -13.8590    2.9120    5.3190 C   0  0  0  0  0  0  0  0  0  0  0  0
  -13.2061    3.9363    8.0274 H   0  0  0  0  0  0  0  0  0  0  0  0
  -11.7015    4.2390    7.4696 H   0  0  0  0  0  0  0  0  0  0  0  0
  -17.7746    3.0025    6.1219 H   0  0  0  0  0  0  0  0  0  0  0  0
  -19.8457    2.9034    6.0411 H   0  0  0  0  0  0  0  0  0  0  0  0
  -20.5259    4.0556    5.1049 H   0  0  0  0  0  0  0  0  0  0  0  0
  -20.5585    2.4934    4.6303 H   0  0  0  0  0  0  0  0  0  0  0  0
  -12.8649    2.0805    6.9079 H   0  0  0  0  0  0  0  0  0  0  0  0
  -11.8757    2.8028    5.8278 H   0  0  0  0  0  0  0  0  0  0  0  0
  -14.4257    2.2675    2.1186 H   0  0  0  0  0  0  0  0  0  0  0  0
  -16.6788    2.6714    2.7771 H   0  0  0  0  0  0  0  0  0  0  0  0
  -12.6619    2.4082    3.7005 H   0  0  0  0  0  0  0  0  0  0  0  0
  -15.3837    3.4367    6.6327 H   0  0  0  0  0  0  0  0  0  0  0  0
  -12.9975    4.8847    6.7145 H   0  0  0  0  0  0  0  0  0  0  0  0
  1 10  2  0  0  0  0
  2  5  1  0  0  0  0
  3 10  1  0  0  0  0
  3 11  1  0  0  0  0
  4 10  1  0  0  0  0
  5 12  1  0  0  0  0
  6  7  1  0  0  0  0
  6  8  2  0  0  0  0
  7 11  2  0  0  0  0
  8 12  1  0  0  0  0
  9 11  1  0  0  0  0
  9 12  2  0  0  0  0
  2 13  1  0  0  0  0
  2 14  1  0  0  0  0
  3 15  1  0  0  0  0
  4 16  1  0  0  0  0
  4 17  1  0  0  0  0
  4 18  1  0  0  0  0
  5 19  1  0  0  0  0
  5 20  1  0  0  0  0
  6 21  1  0  0  0  0
  7 22  1  0  0  0  0
  8 23  1  0  0  0  0
  9 24  1  0  0  0  0
  2 25  1  0  0  0  0
M  CHG  1   2   1
M  END
$$$$
5BX7_4W1_A_401
prProtoss 03132510063D 1   1.00000     0.00000     0
Protoss beta proteinsplus
 19 20  0  0  0  0            999 V2000
  -29.8580    9.8880    1.4920 S   0  0  0  0  0  0  0  0  0  0  0  0
  -27.9140    8.5870    5.4150 O   0  0  0  0  0  0  0  0  0  0  0  0
  -28.6150    9.9180    2.6050 C   0  0  0  0  0  0  0  0  0  0  0  0
  -28.3370    9.9210    5.0980 C   0  0  0  0  0  0  0  0  0  0  0  0
  -33.2900    9.7880    3.5460 C   0  0  0  0  0  0  0  0  0  0  0  0
  -32.7350    9.8080    4.8280 C   0  0  0  0  0  0  0  0  0  0  0  0
  -32.4380    9.8110    2.4420 C   0  0  0  0  0  0  0  0  0  0  0  0
  -31.3430    9.8450    4.9450 C   0  0  0  0  0  0  0  0  0  0  0  0
  -31.1100    9.8510    2.6210 C   0  0  0  0  0  0  0  0  0  0  0  0
  -29.1910    9.9020    3.8190 C   0  0  0  0  0  0  0  0  0  0  0  0
  -30.5480    9.8670    3.8580 C   0  0  0  0  0  0  0  0  0  0  0  0
  -27.0319    8.6198    5.8850 H   0  0  0  0  0  0  0  0  0  0  0  0
  -27.6350    9.9430    2.4076 H   0  0  0  0  0  0  0  0  0  0  0  0
  -27.5340   10.4991    4.9533 H   0  0  0  0  0  0  0  0  0  0  0  0
  -28.8791   10.2868    5.8546 H   0  0  0  0  0  0  0  0  0  0  0  0
  -34.2818    9.7577    3.4220 H   0  0  0  0  0  0  0  0  0  0  0  0
  -33.3183    9.7962    5.6402 H   0  0  0  0  0  0  0  0  0  0  0  0
  -32.8177    9.7977    1.5170 H   0  0  0  0  0  0  0  0  0  0  0  0
  -30.9284    9.8554    5.8549 H   0  0  0  0  0  0  0  0  0  0  0  0
  1  3  1  0  0  0  0
  1  9  1  0  0  0  0
  2  4  1  0  0  0  0
  3 10  2  0  0  0  0
  4 10  1  0  0  0  0
  5  6  2  0  0  0  0
  5  7  1  0  0  0  0
  6  8  1  0  0  0  0
  7  9  2  0  0  0  0
  8 11  2  0  0  0  0
  9 11  1  0  0  0  0
 10 11  1  0  0  0  0
  2 12  1  0  0  0  0
  3 13  1  0  0  0  0
  4 14  1  0  0  0  0
  4 15  1  0  0  0  0
  5 16  1  0  0  0  0
  6 17  1  0  0  0  0
  7 18  1  0  0  0  0
  8 19  1  0  0  0  0
M  END
$$$$
5BX7_MPD_A_402
prProtoss 03132510063D 1   1.00000     0.00000     0
Protoss beta proteinsplus
 22 21  0  0  0  0            999 V2000
  -27.0640    6.5270   15.2860 O   0  0  0  0  0  0  0  0  0  0  0  0
  -30.4710    3.9770   16.7930 O   0  0  0  0  0  0  0  0  0  0  0  0
  -26.3640    6.0680   17.4940 C   0  0  0  0  0  0  0  0  0  0  0  0
  -28.3580    3.0410   16.1700 C   0  0  0  0  0  0  0  0  0  0  0  0
  -28.8070    3.8040   18.4670 C   0  0  0  0  0  0  0  0  0  0  0  0
  -28.6410    5.4900   16.6920 C   0  0  0  0  0  0  0  0  0  0  0  0
  -27.1800    5.5810   16.3190 C   0  0  1  0  0  0  0  0  0  0  0  0
  -29.0820    4.0760   17.0100 C   0  0  0  0  0  0  0  0  0  0  0  0
  -27.5973    6.2249   14.4959 H   0  0  0  0  0  0  0  0  0  0  0  0
  -30.9447    4.6606   17.3482 H   0  0  0  0  0  0  0  0  0  0  0  0
  -26.4318    5.4089   18.2430 H   0  0  0  0  0  0  0  0  0  0  0  0
  -25.4072    6.1627   17.2190 H   0  0  0  0  0  0  0  0  0  0  0  0
  -26.7129    6.9546   17.7976 H   0  0  0  0  0  0  0  0  0  0  0  0
  -27.3731    3.1143   16.3266 H   0  0  0  0  0  0  0  0  0  0  0  0
  -28.6692    2.1261   16.4271 H   0  0  0  0  0  0  0  0  0  0  0  0
  -28.5544    3.2003   15.2025 H   0  0  0  0  0  0  0  0  0  0  0  0
  -27.8241    3.8703   18.6387 H   0  0  0  0  0  0  0  0  0  0  0  0
  -29.2896    4.4762   19.0285 H   0  0  0  0  0  0  0  0  0  0  0  0
  -29.1249    2.8850   18.7003 H   0  0  0  0  0  0  0  0  0  0  0  0
  -29.1874    5.8300   15.9266 H   0  0  0  0  0  0  0  0  0  0  0  0
  -28.8012    6.0625   17.4961 H   0  0  0  0  0  0  0  0  0  0  0  0
  -26.8456    4.6902   16.0113 H   0  0  0  0  0  0  0  0  0  0  0  0
  1  7  1  0  0  0  0
  2  8  1  0  0  0  0
  3  7  1  0  0  0  0
  4  8  1  0  0  0  0
  5  8  1  0  0  0  0
  6  7  1  0  0  0  0
  6  8  1  0  0  0  0
  1  9  1  0  0  0  0
  2 10  1  0  0  0  0
  3 11  1  0  0  0  0
  3 12  1  0  0  0  0
  3 13  1  0  0  0  0
  4 14  1  0  0  0  0
  4 15  1  0  0  0  0
  4 16  1  0  0  0  0
  5 17  1  0  0  0  0
  5 18  1  0  0  0  0
  5 19  1  0  0  0  0
  6 20  1  0  0  0  0
  6 21  1  0  0  0  0
  7 22  1  0  0  0  0
M  END
$$$$
5BX7_EDO_A_403
prProtoss 03132510063D 1   1.00000     0.00000     0
Protoss beta proteinsplus
 10  9  0  0  0  0            999 V2000
  -41.5640   -9.8450   -9.0030 O   0  0  0  0  0  0  0  0  0  0  0  0
  -38.9840   -9.1040   -9.6050 O   0  0  0  0  0  0  0  0  0  0  0  0
  -40.9780   -8.7730   -8.2520 C   0  0  0  0  0  0  0  0  0  0  0  0
  -39.8740   -8.1070   -9.0720 C   0  0  0  0  0  0  0  0  0  0  0  0
  -41.5090   -9.6368   -9.9795 H   0  0  0  0  0  0  0  0  0  0  0  0
  -38.2659   -8.6583  -10.1394 H   0  0  0  0  0  0  0  0  0  0  0  0
  -40.5893   -9.1353   -7.4049 H   0  0  0  0  0  0  0  0  0  0  0  0
  -41.6822   -8.0975   -8.0334 H   0  0  0  0  0  0  0  0  0  0  0  0
  -40.2853   -7.5941   -9.8255 H   0  0  0  0  0  0  0  0  0  0  0  0
  -39.3579   -7.4823   -8.4860 H   0  0  0  0  0  0  0  0  0  0  0  0
  1  3  1  0  0  0  0
  2  4  1  0  0  0  0
  3  4  1  0  0  0  0
  1  5  1  0  0  0  0
  2  6  1  0  0  0  0
  3  7  1  0  0  0  0
  3  8  1  0  0  0  0
  4  9  1  0  0  0  0
  4 10  1  0  0  0  0
M  END
$$$$
5BX7_MPD_B_101
prProtoss 03132510063D 1   1.00000     0.00000     0
Protoss beta proteinsplus
 22 21  0  0  0  0            999 V2000
  -21.7680   -9.8570   18.4360 O   0  0  0  0  0  0  0  0  0  0  0  0
  -21.3230  -11.6170   20.2700 O   0  0  0  0  0  0  0  0  0  0  0  0
  -20.3790  -10.2980   16.5460 C   0  0  0  0  0  0  0  0  0  0  0  0
  -19.1070  -12.3830   20.6460 C   0  0  0  0  0  0  0  0  0  0  0  0
  -19.7790  -10.0760   21.2190 C   0  0  0  0  0  0  0  0  0  0  0  0
  -19.5930  -10.7540   18.8460 C   0  0  0  0  0  0  0  0  0  0  0  0
  -20.7980  -10.7460   17.9300 C   0  0  1  0  0  0  0  0  0  0  0  0
  -19.9760  -11.2130   20.2410 C   0  0  0  0  0  0  0  0  0  0  0  0
  -22.5642   -9.8528   17.8310 H   0  0  0  0  0  0  0  0  0  0  0  0
  -21.8410  -11.0992   19.5891 H   0  0  0  0  0  0  0  0  0  0  0  0
  -19.6908  -10.9279   16.1858 H   0  0  0  0  0  0  0  0  0  0  0  0
  -21.1757  -10.2936   15.9416 H   0  0  0  0  0  0  0  0  0  0  0  0
  -19.9937   -9.3766   16.5963 H   0  0  0  0  0  0  0  0  0  0  0  0
  -18.1462  -12.1063   20.6287 H   0  0  0  0  0  0  0  0  0  0  0  0
  -19.3527  -12.6767   21.5698 H   0  0  0  0  0  0  0  0  0  0  0  0
  -19.2476  -13.1395   20.0073 H   0  0  0  0  0  0  0  0  0  0  0  0
  -18.8226   -9.7843   21.2028 H   0  0  0  0  0  0  0  0  0  0  0  0
  -20.3659   -9.3087   20.9607 H   0  0  0  0  0  0  0  0  0  0  0  0
  -20.0182  -10.3833   22.1400 H   0  0  0  0  0  0  0  0  0  0  0  0
  -19.2150   -9.8297   18.8978 H   0  0  0  0  0  0  0  0  0  0  0  0
  -18.9035  -11.3758   18.4745 H   0  0  0  0  0  0  0  0  0  0  0  0
  -21.1842  -11.6670   17.8794 H   0  0  0  0  0  0  0  0  0  0  0  0
  1  7  1  0  0  0  0
  2  8  1  0  0  0  0
  3  7  1  0  0  0  0
  4  8  1  0  0  0  0
  5  8  1  0  0  0  0
  6  7  1  0  0  0  0
  6  8  1  0  0  0  0
  1  9  1  0  0  0  0
  2 10  1  0  0  0  0
  3 11  1  0  0  0  0
  3 12  1  0  0  0  0
  3 13  1  0  0  0  0
  4 14  1  0  0  0  0
  4 15  1  0  0  0  0
  4 16  1  0  0  0  0
  5 17  1  0  0  0  0
  5 18  1  0  0  0  0
  5 19  1  0  0  0  0
  6 20  1  0  0  0  0
  6 21  1  0  0  0  0
  7 22  1  0  0  0  0
M  END
$$$$
6SOX_LQ2_A_401
prProtoss 03132510063D 1   1.00000     0.00000     0
Protoss beta proteinsplus
 18 18  0  0  0  0            999 V2000
   10.0830    1.1410   18.0850 O   0  0  0  0  0  0  0  0  0  0  0  0
    9.6990    3.3370   18.1340 O   0  5  0  0  0  0  0  0  0  0  0  0
   16.5250    2.3740   20.4630 O   0  0  0  0  0  0  0  0  0  0  0  0
   16.2240    4.5870   20.2540 N   0  0  0  0  0  0  0  0  0  0  0  0
   12.7090    1.5200   19.0420 C   0  0  0  0  0  0  0  0  0  0  0  0
   12.2480    3.8730   19.0690 C   0  0  0  0  0  0  0  0  0  0  0  0
   14.0020    1.7680   19.4670 C   0  0  0  0  0  0  0  0  0  0  0  0
   13.5390    4.1200   19.4990 C   0  0  0  0  0  0  0  0  0  0  0  0
   10.4510    2.2910   18.3130 C   0  0  0  0  0  0  0  0  0  0  0  0
   15.8200    3.3240   20.1680 C   0  0  0  0  0  0  0  0  0  0  0  0
   11.8190    2.5710   18.8260 C   0  0  0  0  0  0  0  0  0  0  0  0
   14.4300    3.0730   19.7010 C   0  0  0  0  0  0  0  0  0  0  0  0
   15.6038    5.3288   19.9988 H   0  0  0  0  0  0  0  0  0  0  0  0
   17.1482    4.7957   20.5739 H   0  0  0  0  0  0  0  0  0  0  0  0
   12.4101    0.5782   18.8883 H   0  0  0  0  0  0  0  0  0  0  0  0
   11.6170    4.6365   18.9314 H   0  0  0  0  0  0  0  0  0  0  0  0
   14.6336    1.0055   19.6072 H   0  0  0  0  0  0  0  0  0  0  0  0
   13.8340    5.0608   19.6661 H   0  0  0  0  0  0  0  0  0  0  0  0
  1  9  2  0  0  0  0
  2  9  1  0  0  0  0
  3 10  2  0  0  0  0
  4 10  1  0  0  0  0
  5  7  1  0  0  0  0
  5 11  2  0  0  0  0
  6  8  2  0  0  0  0
  6 11  1  0  0  0  0
  7 12  2  0  0  0  0
  8 12  1  0  0  0  0
  9 11  1  0  0  0  0
 10 12  1  0  0  0  0
  8 18  1  0  0  0  0
  4 13  1  0  0  0  0
  4 14  1  0  0  0  0
  5 15  1  0  0  0  0
  6 16  1  0  0  0  0
  7 17  1  0  0  0  0
M  CHG  1   2  -1
M  END
$$$$
6SOX_MPD_A_402
prProtoss 03132510063D 1   1.00000     0.00000     0
Protoss beta proteinsplus
 22 21  0  0  0  0            999 V2000
   17.2650   19.2480   39.1260 O   0  0  0  0  0  0  0  0  0  0  0  0
   19.1150   18.1490   40.6530 O   0  0  0  0  0  0  0  0  0  0  0  0
   16.5630   18.0120   37.1770 C   0  0  0  0  0  0  0  0  0  0  0  0
   19.2900   15.8440   39.9830 C   0  0  0  0  0  0  0  0  0  0  0  0
   21.0230   17.4960   39.3210 C   0  0  0  0  0  0  0  0  0  0  0  0
   18.7820   17.6050   38.2750 C   0  0  0  0  0  0  0  0  0  0  0  0
   17.3280   17.9850   38.5010 C   0  0  1  0  0  0  0  0  0  0  0  0
   19.5330   17.2870   39.5640 C   0  0  0  0  0  0  0  0  0  0  0  0
   16.3099   19.4842   39.3047 H   0  0  0  0  0  0  0  0  0  0  0  0
   18.3905   18.7605   40.3348 H   0  0  0  0  0  0  0  0  0  0  0  0
   16.6147   17.1122   36.7437 H   0  0  0  0  0  0  0  0  0  0  0  0
   15.6058   18.2442   37.3498 H   0  0  0  0  0  0  0  0  0  0  0  0
   16.9683   18.6972   36.5718 H   0  0  0  0  0  0  0  0  0  0  0  0
   19.5719   15.2307   39.2452 H   0  0  0  0  0  0  0  0  0  0  0  0
   19.8212   15.6418   40.8058 H   0  0  0  0  0  0  0  0  0  0  0  0
   18.3173   15.7115   40.1734 H   0  0  0  0  0  0  0  0  0  0  0  0
   21.3244   16.9066   38.5715 H   0  0  0  0  0  0  0  0  0  0  0  0
   21.1907   18.4522   39.0813 H   0  0  0  0  0  0  0  0  0  0  0  0
   21.5315   17.2663   40.1508 H   0  0  0  0  0  0  0  0  0  0  0  0
   19.2419   18.3677   37.8203 H   0  0  0  0  0  0  0  0  0  0  0  0
   18.8106   16.7986   37.6844 H   0  0  0  0  0  0  0  0  0  0  0  0
   16.9071   17.3062   39.1027 H   0  0  0  0  0  0  0  0  0  0  0  0
  1  7  1  0  0  0  0
  2  8  1  0  0  0  0
  3  7  1  0  0  0  0
  4  8  1  0  0  0  0
  5  8  1  0  0  0  0
  6  7  1  0  0  0  0
  6  8  1  0  0  0  0
  1  9  1  0  0  0  0
  2 10  1  0  0  0  0
  3 11  1  0  0  0  0
  3 12  1  0  0  0  0
  3 13  1  0  0  0  0
  4 14  1  0  0  0  0
  4 15  1  0  0  0  0
  4 16  1  0  0  0  0
  5 17  1  0  0  0  0
  5 18  1  0  0  0  0
  5 19  1  0  0  0  0
  6 20  1  0  0  0  0
  6 21  1  0  0  0  0
  7 22  1  0  0  0  0
M  END
$$$$
6SOX_DMS_A_403
prProtoss 03132510063D 1   1.00000     0.00000     0
Protoss beta proteinsplus
 10  9  0  0  0  0            999 V2000
   23.9830   20.5290   32.6810 S   0  0  0  0  0  0  0  0  0  0  0  0
   22.8460   20.2700   31.7410 O   0  0  0  0  0  0  0  0  0  0  0  0
   23.4660   21.6330   34.0240 C   0  0  0  0  0  0  0  0  0  0  0  0
   24.4820   19.0140   33.5460 C   0  0  0  0  0  0  0  0  0  0  0  0
   24.2377   21.7933   34.6395 H   0  0  0  0  0  0  0  0  0  0  0  0
   23.1593   22.5040   33.6401 H   0  0  0  0  0  0  0  0  0  0  0  0
   22.7160   21.2104   34.5328 H   0  0  0  0  0  0  0  0  0  0  0  0
   25.2407   19.2179   34.1647 H   0  0  0  0  0  0  0  0  0  0  0  0
   23.7086   18.6605   34.0722 H   0  0  0  0  0  0  0  0  0  0  0  0
   24.7716   18.3287   32.8778 H   0  0  0  0  0  0  0  0  0  0  0  0
  1  2  2  0  0  0  0
  1  3  1  0  0  0  0
  1  4  1  0  0  0  0
  3  5  1  0  0  0  0
  3  6  1  0  0  0  0
  3  7  1  0  0  0  0
  4  8  1  0  0  0  0
  4  9  1  0  0  0  0
  4 10  1  0  0  0  0
M  END
$$$$
6SOX_DMS_A_404
prProtoss 03132510063D 1   1.00000     0.00000     0
Protoss beta proteinsplus
 10  9  0  0  0  0            999 V2000
    9.4110   24.9120   15.3780 S   0  0  0  0  0  0  0  0  0  0  0  0
   10.6320   25.5920   14.8450 O   0  0  0  0  0  0  0  0  0  0  0  0
    9.9090   23.3370   16.1050 C   0  0  0  0  0  0  0  0  0  0  0  0
    8.8380   25.7960   16.8500 C   0  0  0  0  0  0  0  0  0  0  0  0
    9.1037   22.8676   16.4672 H   0  0  0  0  0  0  0  0  0  0  0  0
   10.3396   22.7679   15.4045 H   0  0  0  0  0  0  0  0  0  0  0  0
   10.5596   23.5028   16.8461 H   0  0  0  0  0  0  0  0  0  0  0  0
    8.0213   25.3465   17.2119 H   0  0  0  0  0  0  0  0  0  0  0  0
    9.5577   25.7890   17.5443 H   0  0  0  0  0  0  0  0  0  0  0  0
    8.6184   26.7409   16.6070 H   0  0  0  0  0  0  0  0  0  0  0  0
  1  2  2  0  0  0  0
  1  3  1  0  0  0  0
  1  4  1  0  0  0  0
  3  5  1  0  0  0  0
  3  6  1  0  0  0  0
  3  7  1  0  0  0  0
  4  8  1  0  0  0  0
  4  9  1  0  0  0  0
  4 10  1  0  0  0  0
M  END
$$$$
6SOX_DMS_A_405
prProtoss 03132510063D 1   1.00000     0.00000     0
Protoss beta proteinsplus
 10  9  0  0  0  0            999 V2000
   26.9440   15.4460    5.5280 S   0  0  0  0  0  0  0  0  0  0  0  0
   27.2050   14.2300    6.3560 O   0  0  0  0  0  0  0  0  0  0  0  0
   28.1400   15.4900    4.1660 C   0  0  0  0  0  0  0  0  0  0  0  0
   25.4090   15.2260    4.5890 C   0  0  0  0  0  0  0  0  0  0  0  0
   27.9753   16.3005    3.6039 H   0  0  0  0  0  0  0  0  0  0  0  0
   29.0676   15.5251    4.5379 H   0  0  0  0  0  0  0  0  0  0  0  0
   28.0367   14.6686    3.6050 H   0  0  0  0  0  0  0  0  0  0  0  0
   25.2369   16.0411    4.0359 H   0  0  0  0  0  0  0  0  0  0  0  0
   25.4955   14.4294    3.9907 H   0  0  0  0  0  0  0  0  0  0  0  0
   24.6479   15.0861    5.2224 H   0  0  0  0  0  0  0  0  0  0  0  0
  1  2  2  0  0  0  0
  1  3  1  0  0  0  0
  1  4  1  0  0  0  0
  3  5  1  0  0  0  0
  3  6  1  0  0  0  0
  3  7  1  0  0  0  0
  4  8  1  0  0  0  0
  4  9  1  0  0  0  0
  4 10  1  0  0  0  0
M  END
$$$$
5N3E_46L_A_401
prProtoss 03132510063D 1   1.00000     0.00000     0
Protoss beta proteinsplus
 22 22  0  0  0  0            999 V2000
  -17.1480   26.6070  -22.8580 O   0  0  0  0  0  0  0  0  0  0  0  0
  -16.9770   24.3860  -22.7370 O   0  0  0  0  0  0  0  0  0  0  0  0
  -13.8950   24.3870  -25.5180 N   0  0  0  0  0  0  0  0  0  0  0  0
  -12.3650   25.4990  -26.8660 N   0  0  0  0  0  0  0  0  0  0  0  0
  -11.5560   24.2940  -26.9240 C   0  0  0  0  0  0  0  0  0  0  0  0
  -11.7040   26.7200  -27.3030 C   0  0  0  0  0  0  0  0  0  0  0  0
  -14.9050   24.4010  -24.6410 C   0  0  0  0  0  0  0  0  0  0  0  0
  -14.0570   26.7870  -25.6530 C   0  0  0  0  0  0  0  0  0  0  0  0
  -15.0930   26.7640  -24.7420 C   0  0  0  0  0  0  0  0  0  0  0  0
  -16.6390   25.5140  -23.1940 C   0  0  0  0  0  0  0  0  0  0  0  0
  -13.4810   25.5680  -26.0000 C   0  0  0  0  0  0  0  0  0  0  0  0
  -15.5330   25.5600  -24.2120 C   0  0  0  0  0  0  0  0  0  0  0  0
  -12.0956   23.5146  -26.6057 H   0  0  0  0  0  0  0  0  0  0  0  0
  -11.2634   24.1340  -27.8668 H   0  0  0  0  0  0  0  0  0  0  0  0
  -10.7521   24.4038  -26.3395 H   0  0  0  0  0  0  0  0  0  0  0  0
  -12.3390   27.4887  -27.2262 H   0  0  0  0  0  0  0  0  0  0  0  0
  -10.9038   26.8900  -26.7279 H   0  0  0  0  0  0  0  0  0  0  0  0
  -11.4151   26.6202  -28.2551 H   0  0  0  0  0  0  0  0  0  0  0  0
  -15.2247   23.5272  -24.2746 H   0  0  0  0  0  0  0  0  0  0  0  0
  -13.7324   27.6461  -26.0487 H   0  0  0  0  0  0  0  0  0  0  0  0
  -15.5288   27.6195  -24.4624 H   0  0  0  0  0  0  0  0  0  0  0  0
  -17.7032   24.3210  -22.0526 H   0  0  0  0  0  0  0  0  0  0  0  0
  1 10  2  0  0  0  0
  2 10  1  0  0  0  0
  3  7  1  0  0  0  0
  3 11  2  0  0  0  0
  4  5  1  0  0  0  0
  4  6  1  0  0  0  0
  4 11  1  0  0  0  0
  7 12  2  0  0  0  0
  8  9  2  0  0  0  0
  8 11  1  0  0  0  0
  9 12  1  0  0  0  0
 10 12  1  0  0  0  0
  9 21  1  0  0  0  0
  5 13  1  0  0  0  0
  5 14  1  0  0  0  0
  5 15  1  0  0  0  0
  6 16  1  0  0  0  0
  6 17  1  0  0  0  0
  6 18  1  0  0  0  0
  7 19  1  0  0  0  0
  8 20  1  0  0  0  0
  2 22  1  0  0  0  0
M  END
$$$$
5N3E_MPD_A_402
prProtoss 03132510063D 1   1.00000     0.00000     0
Protoss beta proteinsplus
 22 21  0  0  0  0            999 V2000
   -8.0650   12.3110   -4.6020 O   0  0  0  0  0  0  0  0  0  0  0  0
   -9.2350   13.2700   -2.3810 O   0  0  0  0  0  0  0  0  0  0  0  0
   -8.8620   13.0340   -6.7250 C   0  0  0  0  0  0  0  0  0  0  0  0
   -9.8420   15.4350   -3.2150 C   0  0  0  0  0  0  0  0  0  0  0  0
  -11.6120   13.7460   -2.5830 C   0  0  0  0  0  0  0  0  0  0  0  0
  -10.2390   13.3680   -4.6080 C   0  0  0  0  0  0  0  0  0  0  0  0
   -8.8410   13.3010   -5.2230 C   0  0  1  0  0  0  0  0  0  0  0  0
  -10.2280   13.9580   -3.1990 C   0  0  0  0  0  0  0  0  0  0  0  0
   -7.1122   12.6116   -4.5604 H   0  0  0  0  0  0  0  0  0  0  0  0
   -8.7713   12.5766   -2.9326 H   0  0  0  0  0  0  0  0  0  0  0  0
   -9.4127   13.7336   -7.1803 H   0  0  0  0  0  0  0  0  0  0  0  0
   -7.9280   13.0607   -7.0814 H   0  0  0  0  0  0  0  0  0  0  0  0
   -9.2590   12.1326   -6.8978 H   0  0  0  0  0  0  0  0  0  0  0  0
  -10.5005   15.9456   -3.7679 H   0  0  0  0  0  0  0  0  0  0  0  0
   -9.8449   15.7904   -2.2803 H   0  0  0  0  0  0  0  0  0  0  0  0
   -8.9278   15.5364   -3.6073 H   0  0  0  0  0  0  0  0  0  0  0  0
  -12.2992   14.2147   -3.1380 H   0  0  0  0  0  0  0  0  0  0  0  0
  -11.8176   12.7678   -2.5539 H   0  0  0  0  0  0  0  0  0  0  0  0
  -11.6239   14.1169   -1.6544 H   0  0  0  0  0  0  0  0  0  0  0  0
  -10.6159   12.4427   -4.5657 H   0  0  0  0  0  0  0  0  0  0  0  0
  -10.8189   13.9378   -5.1902 H   0  0  0  0  0  0  0  0  0  0  0  0
   -8.3947   14.1831   -5.0723 H   0  0  0  0  0  0  0  0  0  0  0  0
  1  7  1  0  0  0  0
  2  8  1  0  0  0  0
  3  7  1  0  0  0  0
  4  8  1  0  0  0  0
  5  8  1  0  0  0  0
  6  7  1  0  0  0  0
  6  8  1  0  0  0  0
  1  9  1  0  0  0  0
  2 10  1  0  0  0  0
  3 11  1  0  0  0  0
  3 12  1  0  0  0  0
  3 13  1  0  0  0  0
  4 14  1  0  0  0  0
  4 15  1  0  0  0  0
  4 16  1  0  0  0  0
  5 17  1  0  0  0  0
  5 18  1  0  0  0  0
  5 19  1  0  0  0  0
  6 20  1  0  0  0  0
  6 21  1  0  0  0  0
  7 22  1  0  0  0  0
M  END
$$$$
5N3E_DMS_A_403
prProtoss 03132510063D 1   1.00000     0.00000     0
Protoss beta proteinsplus
 10  9  0  0  0  0            999 V2000
  -13.4030    3.1690  -27.6440 S   0  0  0  0  0  0  0  0  0  0  0  0
  -14.7610    2.5710  -27.8360 O   0  0  0  0  0  0  0  0  0  0  0  0
  -12.5980    3.3910  -29.2540 C   0  0  0  0  0  0  0  0  0  0  0  0
  -13.5810    4.9060  -27.1900 C   0  0  0  0  0  0  0  0  0  0  0  0
  -11.6911    3.7907  -29.1209 H   0  0  0  0  0  0  0  0  0  0  0  0
  -12.5081    2.5040  -29.7069 H   0  0  0  0  0  0  0  0  0  0  0  0
  -13.1509    4.0007  -29.8219 H   0  0  0  0  0  0  0  0  0  0  0  0
  -12.6760    5.3111  -27.0603 H   0  0  0  0  0  0  0  0  0  0  0  0
  -14.0630    5.3932  -27.9182 H   0  0  0  0  0  0  0  0  0  0  0  0
  -14.1027    4.9765  -26.3398 H   0  0  0  0  0  0  0  0  0  0  0  0
  1  2  2  0  0  0  0
  1  3  1  0  0  0  0
  1  4  1  0  0  0  0
  3  5  1  0  0  0  0
  3  6  1  0  0  0  0
  3  7  1  0  0  0  0
  4  8  1  0  0  0  0
  4  9  1  0  0  0  0
  4 10  1  0  0  0  0
M  END
$$$$
5N1H_MPD_A_401
prProtoss 03132510063D 1   1.00000     0.00000     0
Protoss beta proteinsplus
 22 21  0  0  0  0            999 V2000
   -9.1280   18.0450  -11.9740 O   0  0  0  0  0  0  0  0  0  0  0  0
   -6.4440   18.2760   -8.4360 O   0  0  0  0  0  0  0  0  0  0  0  0
   -8.7940   19.4000  -10.1750 C   0  0  0  0  0  0  0  0  0  0  0  0
   -6.2340   15.9570   -8.7170 C   0  0  0  0  0  0  0  0  0  0  0  0
   -4.9810   17.5720  -10.2170 C   0  0  0  0  0  0  0  0  0  0  0  0
   -7.4630   17.1850  -10.4740 C   0  0  0  0  0  0  0  0  0  0  0  0
   -8.0850   18.4290  -11.0970 C   0  0  1  0  0  0  0  0  0  0  0  0
   -6.2930   17.2820   -9.4830 C   0  0  0  0  0  0  0  0  0  0  0  0
   -8.7765   17.3910  -12.6438 H   0  0  0  0  0  0  0  0  0  0  0  0
   -5.5411   18.5817   -8.1339 H   0  0  0  0  0  0  0  0  0  0  0  0
   -8.1473   19.7477   -9.4961 H   0  0  0  0  0  0  0  0  0  0  0  0
   -9.1578   20.1625  -10.7100 H   0  0  0  0  0  0  0  0  0  0  0  0
   -9.5449   18.9306   -9.7103 H   0  0  0  0  0  0  0  0  0  0  0  0
   -6.1290   15.2021   -9.3644 H   0  0  0  0  0  0  0  0  0  0  0  0
   -5.4552   15.9690   -8.0898 H   0  0  0  0  0  0  0  0  0  0  0  0
   -7.0792   15.8348   -8.1967 H   0  0  0  0  0  0  0  0  0  0  0  0
   -4.8513   16.8999  -10.9460 H   0  0  0  0  0  0  0  0  0  0  0  0
   -5.0160   18.4899  -10.6122 H   0  0  0  0  0  0  0  0  0  0  0  0
   -4.2188   17.5155   -9.5722 H   0  0  0  0  0  0  0  0  0  0  0  0
   -7.1428   16.6192  -11.2338 H   0  0  0  0  0  0  0  0  0  0  0  0
   -8.2010   16.7112   -9.9935 H   0  0  0  0  0  0  0  0  0  0  0  0
   -7.3853   18.9207  -11.6154 H   0  0  0  0  0  0  0  0  0  0  0  0
  1  7  1  0  0  0  0
  2  8  1  0  0  0  0
  3  7  1  0  0  0  0
  4  8  1  0  0  0  0
  5  8  1  0  0  0  0
  6  7  1  0  0  0  0
  6  8  1  0  0  0  0
  1  9  1  0  0  0  0
  2 10  1  0  0  0  0
  3 11  1  0  0  0  0
  3 12  1  0  0  0  0
  3 13  1  0  0  0  0
  4 14  1  0  0  0  0
  4 15  1  0  0  0  0
  4 16  1  0  0  0  0
  5 17  1  0  0  0  0
  5 18  1  0  0  0  0
  5 19  1  0  0  0  0
  6 20  1  0  0  0  0
  6 21  1  0  0  0  0
  7 22  1  0  0  0  0
M  END
$$$$
5N1H_MPD_A_402
prProtoss 03132510063D 1   1.00000     0.00000     0
Protoss beta proteinsplus
 22 21  0  0  0  0            999 V2000
  -16.9890   26.6670  -36.1250 O   0  0  0  0  0  0  0  0  0  0  0  0
  -15.3630   25.5320  -34.1770 O   0  0  0  0  0  0  0  0  0  0  0  0
  -19.0510   25.5410  -36.6320 C   0  0  0  0  0  0  0  0  0  0  0  0
  -17.1700   25.8240  -32.5560 C   0  0  0  0  0  0  0  0  0  0  0  0
  -16.1690   23.5850  -33.1120 C   0  0  0  0  0  0  0  0  0  0  0  0
  -17.5640   24.6920  -34.8190 C   0  0  0  0  0  0  0  0  0  0  0  0
  -18.0590   25.9470  -35.5430 C   0  0  1  0  0  0  0  0  0  0  0  0
  -16.5830   24.9380  -33.6630 C   0  0  0  0  0  0  0  0  0  0  0  0
  -16.5269   26.0906  -36.7990 H   0  0  0  0  0  0  0  0  0  0  0  0
  -14.9865   24.9496  -34.8974 H   0  0  0  0  0  0  0  0  0  0  0  0
  -19.8074   25.0321  -36.2210 H   0  0  0  0  0  0  0  0  0  0  0  0
  -19.4061   26.3605  -37.0818 H   0  0  0  0  0  0  0  0  0  0  0  0
  -18.5887   24.9647  -37.3059 H   0  0  0  0  0  0  0  0  0  0  0  0
  -18.0100   25.4086  -32.2068 H   0  0  0  0  0  0  0  0  0  0  0  0
  -16.5072   25.9113  -31.8123 H   0  0  0  0  0  0  0  0  0  0  0  0
  -17.3754   26.7294  -32.9275 H   0  0  0  0  0  0  0  0  0  0  0  0
  -16.9704   23.1178  -32.7384 H   0  0  0  0  0  0  0  0  0  0  0  0
  -15.7734   23.0330  -33.8461 H   0  0  0  0  0  0  0  0  0  0  0  0
  -15.4905   23.7131  -32.3886 H   0  0  0  0  0  0  0  0  0  0  0  0
  -17.1079   24.1085  -35.4910 H   0  0  0  0  0  0  0  0  0  0  0  0
  -18.3615   24.2148  -34.4498 H   0  0  0  0  0  0  0  0  0  0  0  0
  -18.5256   26.5374  -34.8844 H   0  0  0  0  0  0  0  0  0  0  0  0
  1  7  1  0  0  0  0
  2  8  1  0  0  0  0
  3  7  1  0  0  0  0
  4  8  1  0  0  0  0
  5  8  1  0  0  0  0
  6  7  1  0  0  0  0
  6  8  1  0  0  0  0
  1  9  1  0  0  0  0
  2 10  1  0  0  0  0
  3 11  1  0  0  0  0
  3 12  1  0  0  0  0
  3 13  1  0  0  0  0
  4 14  1  0  0  0  0
  4 15  1  0  0  0  0
  4 16  1  0  0  0  0
  5 17  1  0  0  0  0
  5 18  1  0  0  0  0
  5 19  1  0  0  0  0
  6 20  1  0  0  0  0
  6 21  1  0  0  0  0
  7 22  1  0  0  0  0
M  END
$$$$
5N1H_8G2_A_403
prProtoss 03132510063D 1   1.00000     0.00000     0
Protoss beta proteinsplus
 24 24  0  0  0  0            999 V2000
   -9.7710    2.3420  -28.6730 O   0  0  0  0  0  0  0  0  0  0  0  0
  -10.6350    4.4060  -28.7700 O   0  0  0  0  0  0  0  0  0  0  0  0
  -16.4770    0.2250  -29.7300 N   0  3  0  0  0  0  0  0  0  0  0  0
   -9.4020    4.9330  -28.2380 C   0  0  0  0  0  0  0  0  0  0  0  0
  -15.9600    1.3420  -30.5620 C   0  0  0  0  0  0  0  0  0  0  0  0
  -14.3160    3.1360  -29.9340 C   0  0  0  0  0  0  0  0  0  0  0  0
  -13.5750    0.8750  -29.9230 C   0  0  0  0  0  0  0  0  0  0  0  0
  -13.0560    3.5550  -29.5460 C   0  0  0  0  0  0  0  0  0  0  0  0
  -12.3130    1.2850  -29.5340 C   0  0  0  0  0  0  0  0  0  0  0  0
  -10.6970    3.0830  -28.9040 C   0  0  0  0  0  0  0  0  0  0  0  0
  -14.5920    1.7930  -30.1300 C   0  0  0  0  0  0  0  0  0  0  0  0
  -12.0370    2.6320  -29.3390 C   0  0  0  0  0  0  0  0  0  0  0  0
  -16.9845    0.5959  -28.9523 H   0  0  0  0  0  0  0  0  0  0  0  0
  -17.0835   -0.3481  -30.2811 H   0  0  0  0  0  0  0  0  0  0  0  0
   -9.4630    5.9294  -28.1797 H   0  0  0  0  0  0  0  0  0  0  0  0
   -9.2439    4.5548  -27.3259 H   0  0  0  0  0  0  0  0  0  0  0  0
   -8.6443    4.6801  -28.8396 H   0  0  0  0  0  0  0  0  0  0  0  0
  -16.5906    2.1148  -30.4898 H   0  0  0  0  0  0  0  0  0  0  0  0
  -15.9124    1.0383  -31.5136 H   0  0  0  0  0  0  0  0  0  0  0  0
  -15.0384    3.8129  -30.0751 H   0  0  0  0  0  0  0  0  0  0  0  0
  -13.7565   -0.0992  -30.0570 H   0  0  0  0  0  0  0  0  0  0  0  0
  -12.8766    4.5298  -29.4133 H   0  0  0  0  0  0  0  0  0  0  0  0
  -11.5930    0.6058  -29.3919 H   0  0  0  0  0  0  0  0  0  0  0  0
  -15.7110   -0.3246  -29.3966 H   0  0  0  0  0  0  0  0  0  0  0  0
  1 10  2  0  0  0  0
  2  4  1  0  0  0  0
  2 10  1  0  0  0  0
  3  5  1  0  0  0  0
  5 11  1  0  0  0  0
  6  8  1  0  0  0  0
  6 11  2  0  0  0  0
  7  9  2  0  0  0  0
  7 11  1  0  0  0  0
  8 12  2  0  0  0  0
  9 12  1  0  0  0  0
 10 12  1  0  0  0  0
  3 13  1  0  0  0  0
  3 14  1  0  0  0  0
  4 15  1  0  0  0  0
  4 16  1  0  0  0  0
  4 17  1  0  0  0  0
  5 18  1  0  0  0  0
  5 19  1  0  0  0  0
  6 20  1  0  0  0  0
  7 21  1  0  0  0  0
  8 22  1  0  0  0  0
  9 23  1  0  0  0  0
  3 24  1  0  0  0  0
M  CHG  1   3   1
M  END
$$$$
5N3J_MPD_A_401
prProtoss 03132510063D 1   1.00000     0.00000     0
Protoss beta proteinsplus
 22 21  0  0  0  0            999 V2000
   -8.7160   19.5180  -10.0420 O   0  0  0  0  0  0  0  0  0  0  0  0
   -7.0230   16.4710   -8.7120 O   0  0  0  0  0  0  0  0  0  0  0  0
   -9.2140   18.0710  -11.8910 C   0  0  0  0  0  0  0  0  0  0  0  0
   -4.9280   17.0630   -9.7100 C   0  0  0  0  0  0  0  0  0  0  0  0
   -6.2690   18.7220   -8.3490 C   0  0  0  0  0  0  0  0  0  0  0  0
   -7.0210   17.9800  -10.6480 C   0  0  0  0  0  0  0  0  0  0  0  0
   -8.5220   18.2170  -10.5380 C   0  0  1  0  0  0  0  0  0  0  0  0
   -6.3250   17.5690   -9.3500 C   0  0  0  0  0  0  0  0  0  0  0  0
   -9.1939   19.4725   -9.1648 H   0  0  0  0  0  0  0  0  0  0  0  0
   -6.3639   15.8886   -8.2362 H   0  0  0  0  0  0  0  0  0  0  0  0
   -9.0730   17.1443  -12.2392 H   0  0  0  0  0  0  0  0  0  0  0  0
  -10.1936   18.2417  -11.7845 H   0  0  0  0  0  0  0  0  0  0  0  0
   -8.8287   18.7315  -12.5355 H   0  0  0  0  0  0  0  0  0  0  0  0
   -4.4125   17.7955  -10.1546 H   0  0  0  0  0  0  0  0  0  0  0  0
   -4.4521   16.7780   -8.8780 H   0  0  0  0  0  0  0  0  0  0  0  0
   -5.0057   16.2845  -10.3329 H   0  0  0  0  0  0  0  0  0  0  0  0
   -5.7915   19.4981   -8.7609 H   0  0  0  0  0  0  0  0  0  0  0  0
   -7.1989   18.9953   -8.1029 H   0  0  0  0  0  0  0  0  0  0  0  0
   -5.7799   18.4273   -7.5281 H   0  0  0  0  0  0  0  0  0  0  0  0
   -6.5978   18.8268  -10.9702 H   0  0  0  0  0  0  0  0  0  0  0  0
   -6.8716   17.2556  -11.3209 H   0  0  0  0  0  0  0  0  0  0  0  0
   -8.9131   17.5580   -9.8955 H   0  0  0  0  0  0  0  0  0  0  0  0
  1  7  1  0  0  0  0
  2  8  1  0  0  0  0
  3  7  1  0  0  0  0
  4  8  1  0  0  0  0
  5  8  1  0  0  0  0
  6  7  1  0  0  0  0
  6  8  1  0  0  0  0
  1  9  1  0  0  0  0
  2 10  1  0  0  0  0
  3 11  1  0  0  0  0
  3 12  1  0  0  0  0
  3 13  1  0  0  0  0
  4 14  1  0  0  0  0
  4 15  1  0  0  0  0
  4 16  1  0  0  0  0
  5 17  1  0  0  0  0
  5 18  1  0  0  0  0
  5 19  1  0  0  0  0
  6 20  1  0  0  0  0
  6 21  1  0  0  0  0
  7 22  1  0  0  0  0
M  END
$$$$
5N3J_4NB_A_402
prProtoss 03132510063D 1   1.00000     0.00000     0
Protoss beta proteinsplus
 16 16  0  0  0  0            999 V2000
  -11.0710    1.6030  -29.4220 O   0  0  0  0  0  0  0  0  0  0  0  0
   -9.4930    2.6520  -28.3750 O   0  5  0  0  0  0  0  0  0  0  0  0
  -12.9740    8.5420  -29.0260 O   0  0  0  0  0  0  0  0  0  0  0  0
  -14.5920    7.5230  -30.1630 O   0  5  0  0  0  0  0  0  0  0  0  0
  -10.5800    2.6270  -28.9650 N   0  3  0  0  0  0  0  0  0  0  0  0
  -12.6140    3.8490  -29.6380 C   0  0  0  0  0  0  0  0  0  0  0  0
  -10.6850    5.0790  -28.8580 C   0  0  0  0  0  0  0  0  0  0  0  0
  -13.3080    5.0340  -29.7860 C   0  0  0  0  0  0  0  0  0  0  0  0
  -11.3920    6.2560  -29.0170 C   0  0  0  0  0  0  0  0  0  0  0  0
  -13.4770    7.5420  -29.5780 C   0  0  0  0  0  0  0  0  0  0  0  0
  -11.3080    3.8940  -29.1730 C   0  0  0  0  0  0  0  0  0  0  0  0
  -12.7070    6.2500  -29.4800 C   0  0  0  0  0  0  0  0  0  0  0  0
  -13.0451    2.9749  -29.8619 H   0  0  0  0  0  0  0  0  0  0  0  0
   -9.7432    5.0888  -28.5220 H   0  0  0  0  0  0  0  0  0  0  0  0
  -14.2517    5.0173  -30.1164 H   0  0  0  0  0  0  0  0  0  0  0  0
  -10.9527    7.1268  -28.7961 H   0  0  0  0  0  0  0  0  0  0  0  0
  1  5  2  0  0  0  0
  2  5  1  0  0  0  0
  3 10  2  0  0  0  0
  4 10  1  0  0  0  0
  5 11  1  0  0  0  0
  6  8  1  0  0  0  0
  6 11  2  0  0  0  0
  7  9  2  0  0  0  0
  7 11  1  0  0  0  0
  8 12  2  0  0  0  0
  9 12  1  0  0  0  0
 10 12  1  0  0  0  0
  9 16  1  0  0  0  0
  6 13  1  0  0  0  0
  7 14  1  0  0  0  0
  8 15  1  0  0  0  0
M  CHG  3   2  -1   4  -1   5   1
M  END
$$$$
5N3J_DMS_A_403
prProtoss 03132510063D 1   1.00000     0.00000     0
Protoss beta proteinsplus
 10  9  0  0  0  0            999 V2000
   -1.8310   20.5870  -16.1260 S   0  0  0  0  0  0  0  0  0  0  0  0
   -2.9390   20.6010  -17.1220 O   0  0  0  0  0  0  0  0  0  0  0  0
   -0.3000   21.0980  -16.9480 C   0  0  0  0  0  0  0  0  0  0  0  0
   -2.0870   21.9230  -14.9320 C   0  0  0  0  0  0  0  0  0  0  0  0
    0.4509   21.0920  -16.2876 H   0  0  0  0  0  0  0  0  0  0  0  0
   -0.0938   20.4635  -17.6929 H   0  0  0  0  0  0  0  0  0  0  0  0
   -0.4118   22.0206  -17.3173 H   0  0  0  0  0  0  0  0  0  0  0  0
   -1.3453   21.9173  -14.2613 H   0  0  0  0  0  0  0  0  0  0  0  0
   -2.0966   22.8008  -15.4109 H   0  0  0  0  0  0  0  0  0  0  0  0
   -2.9606   21.7890  -14.4641 H   0  0  0  0  0  0  0  0  0  0  0  0
  1  2  2  0  0  0  0
  1  3  1  0  0  0  0
  1  4  1  0  0  0  0
  3  5  1  0  0  0  0
  3  6  1  0  0  0  0
  3  7  1  0  0  0  0
  4  8  1  0  0  0  0
  4  9  1  0  0  0  0
  4 10  1  0  0  0  0
M  END
$$$$
5N3J_DMS_A_404
prProtoss 03132510063D 1   1.00000     0.00000     0
Protoss beta proteinsplus
 10  9  0  0  0  0            999 V2000
  -16.3580   25.1930  -33.5610 S   0  0  0  0  0  0  0  0  0  0  0  0
  -15.0890   25.7070  -34.0950 O   0  0  0  0  0  0  0  0  0  0  0  0
  -15.9850   23.5810  -32.8820 C   0  0  0  0  0  0  0  0  0  0  0  0
  -16.8630   26.1190  -32.0970 C   0  0  0  0  0  0  0  0  0  0  0  0
  -16.8176   23.1790  -32.5009 H   0  0  0  0  0  0  0  0  0  0  0  0
  -15.6297   22.9888  -33.6052 H   0  0  0  0  0  0  0  0  0  0  0  0
  -15.2992   23.6739  -32.1602 H   0  0  0  0  0  0  0  0  0  0  0  0
  -17.7270   25.7521  -31.7521 H   0  0  0  0  0  0  0  0  0  0  0  0
  -16.1599   26.0355  -31.3908 H   0  0  0  0  0  0  0  0  0  0  0  0
  -16.9820   27.0825  -32.3367 H   0  0  0  0  0  0  0  0  0  0  0  0
  1  2  2  0  0  0  0
  1  3  1  0  0  0  0
  1  4  1  0  0  0  0
  3  5  1  0  0  0  0
  3  6  1  0  0  0  0
  3  7  1  0  0  0  0
  4  8  1  0  0  0  0
  4  9  1  0  0  0  0
  4 10  1  0  0  0  0
M  END
$$$$
5N3L_MPD_A_401
prProtoss 03132510063D 1   1.00000     0.00000     0
Protoss beta proteinsplus
 22 21  0  0  0  0            999 V2000
   -8.7200   19.5450   -9.9400 O   0  0  0  0  0  0  0  0  0  0  0  0
   -7.2080   18.2560   -8.0060 O   0  0  0  0  0  0  0  0  0  0  0  0
   -9.4490   18.0680  -11.7050 C   0  0  0  0  0  0  0  0  0  0  0  0
   -6.2770   16.2400   -8.7630 C   0  0  0  0  0  0  0  0  0  0  0  0
   -5.1800   18.5120   -9.1590 C   0  0  0  0  0  0  0  0  0  0  0  0
   -7.2030   17.8470  -10.5100 C   0  0  0  0  0  0  0  0  0  0  0  0
   -8.6760   18.2140  -10.3920 C   0  0  1  0  0  0  0  0  0  0  0  0
   -6.4830   17.7060   -9.1480 C   0  0  0  0  0  0  0  0  0  0  0  0
   -9.6711   19.8144   -9.7887 H   0  0  0  0  0  0  0  0  0  0  0  0
   -7.7993   19.0012   -8.3141 H   0  0  0  0  0  0  0  0  0  0  0  0
   -9.4078   17.1172  -12.0121 H   0  0  0  0  0  0  0  0  0  0  0  0
  -10.4031   18.3308  -11.5611 H   0  0  0  0  0  0  0  0  0  0  0  0
   -9.0411   18.6606  -12.3996 H   0  0  0  0  0  0  0  0  0  0  0  0
   -5.7811   15.7701   -9.4933 H   0  0  0  0  0  0  0  0  0  0  0  0
   -5.7490   16.1890   -7.9153 H   0  0  0  0  0  0  0  0  0  0  0  0
   -7.1661   15.8025   -8.6288 H   0  0  0  0  0  0  0  0  0  0  0  0
   -4.6048   18.2054   -9.9174 H   0  0  0  0  0  0  0  0  0  0  0  0
   -5.3898   19.4833   -9.2712 H   0  0  0  0  0  0  0  0  0  0  0  0
   -4.6950   18.3733   -8.2956 H   0  0  0  0  0  0  0  0  0  0  0  0
   -6.7418   18.5601  -11.0380 H   0  0  0  0  0  0  0  0  0  0  0  0
   -7.1332   16.9753  -10.9951 H   0  0  0  0  0  0  0  0  0  0  0  0
   -9.0995   17.6263   -9.7026 H   0  0  0  0  0  0  0  0  0  0  0  0
  1  7  1  0  0  0  0
  2  8  1  0  0  0  0
  3  7  1  0  0  0  0
  4  8  1  0  0  0  0
  5  8  1  0  0  0  0
  6  7  1  0  0  0  0
  6  8  1  0  0  0  0
  1  9  1  0  0  0  0
  2 10  1  0  0  0  0
  3 11  1  0  0  0  0
  3 12  1  0  0  0  0
  3 13  1  0  0  0  0
  4 14  1  0  0  0  0
  4 15  1  0  0  0  0
  4 16  1  0  0  0  0
  5 17  1  0  0  0  0
  5 18  1  0  0  0  0
  5 19  1  0  0  0  0
  6 20  1  0  0  0  0
  6 21  1  0  0  0  0
  7 22  1  0  0  0  0
M  END
$$$$
5N3L_MPD_A_402
prProtoss 03132510063D 1   1.00000     0.00000     0
Protoss beta proteinsplus
 22 21  0  0  0  0            999 V2000
  -17.0270   26.5610  -36.0710 O   0  0  0  0  0  0  0  0  0  0  0  0
  -15.3330   25.7410  -33.9400 O   0  0  0  0  0  0  0  0  0  0  0  0
  -19.2950   25.7610  -36.1000 C   0  0  0  0  0  0  0  0  0  0  0  0
  -16.9990   26.0200  -32.2130 C   0  0  0  0  0  0  0  0  0  0  0  0
  -16.1370   23.7570  -32.9130 C   0  0  0  0  0  0  0  0  0  0  0  0
  -17.6360   24.9240  -34.4300 C   0  0  0  0  0  0  0  0  0  0  0  0
  -18.0820   26.1360  -35.2330 C   0  0  1  0  0  0  0  0  0  0  0  0
  -16.5340   25.1440  -33.3810 C   0  0  0  0  0  0  0  0  0  0  0  0
  -16.1510   26.3431  -35.6407 H   0  0  0  0  0  0  0  0  0  0  0  0
  -14.7521   25.0236  -34.3245 H   0  0  0  0  0  0  0  0  0  0  0  0
  -20.0450   25.4593  -35.5113 H   0  0  0  0  0  0  0  0  0  0  0  0
  -19.5862   26.5584  -36.6286 H   0  0  0  0  0  0  0  0  0  0  0  0
  -19.0428   25.0214  -36.7240 H   0  0  0  0  0  0  0  0  0  0  0  0
  -17.8266   25.6280  -31.8112 H   0  0  0  0  0  0  0  0  0  0  0  0
  -16.2792   26.0611  -31.5200 H   0  0  0  0  0  0  0  0  0  0  0  0
  -17.1947   26.9426  -32.5455 H   0  0  0  0  0  0  0  0  0  0  0  0
  -16.9325   23.2985  -32.5168 H   0  0  0  0  0  0  0  0  0  0  0  0
  -15.7997   23.2266  -33.6908 H   0  0  0  0  0  0  0  0  0  0  0  0
  -15.4171   23.8314  -32.2229 H   0  0  0  0  0  0  0  0  0  0  0  0
  -17.3021   24.2397  -35.0783 H   0  0  0  0  0  0  0  0  0  0  0  0
  -18.4390   24.5671  -33.9527 H   0  0  0  0  0  0  0  0  0  0  0  0
  -18.3328   26.8765  -34.6094 H   0  0  0  0  0  0  0  0  0  0  0  0
  1  7  1  0  0  0  0
  2  8  1  0  0  0  0
  3  7  1  0  0  0  0
  4  8  1  0  0  0  0
  5  8  1  0  0  0  0
  6  7  1  0  0  0  0
  6  8  1  0  0  0  0
  1  9  1  0  0  0  0
  2 10  1  0  0  0  0
  3 11  1  0  0  0  0
  3 12  1  0  0  0  0
  3 13  1  0  0  0  0
  4 14  1  0  0  0  0
  4 15  1  0  0  0  0
  4 16  1  0  0  0  0
  5 17  1  0  0  0  0
  5 18  1  0  0  0  0
  5 19  1  0  0  0  0
  6 20  1  0  0  0  0
  6 21  1  0  0  0  0
  7 22  1  0  0  0  0
M  END
$$$$
5N3L_E5E_A_403
prProtoss 03132510063D 1   1.00000     0.00000     0
Protoss beta proteinsplus
 24 24  0  0  0  0            999 V2000
  -15.5300    2.6730  -30.1500 O   0  0  0  0  0  0  0  0  0  0  0  0
   -9.3470    3.2720  -28.4210 O   0  0  0  0  0  0  0  0  0  0  0  0
  -10.5570    5.6470  -28.6710 O   0  0  0  0  0  0  0  0  0  0  0  0
  -17.0140    3.6170  -27.7650 N   0  3  0  0  0  0  0  0  0  0  0  0
  -15.5680    3.2580  -27.8400 C   0  0  0  0  0  0  0  0  0  0  0  0
  -11.4310    2.1430  -28.9130 C   0  0  0  0  0  0  0  0  0  0  0  0
  -12.7970    2.2240  -29.1200 C   0  0  0  0  0  0  0  0  0  0  0  0
  -12.6820    4.6180  -29.0510 C   0  0  0  0  0  0  0  0  0  0  0  0
  -14.9610    3.5780  -29.2040 C   0  0  1  0  0  0  0  0  0  0  0  0
  -10.6830    3.3020  -28.7490 C   0  0  0  0  0  0  0  0  0  0  0  0
  -11.3190    4.5460  -28.8330 C   0  0  0  0  0  0  0  0  0  0  0  0
  -13.4450    3.4630  -29.1690 C   0  0  0  0  0  0  0  0  0  0  0  0
  -14.8713    2.4981  -30.8818 H   0  0  0  0  0  0  0  0  0  0  0  0
   -8.8399    4.1268  -28.3110 H   0  0  0  0  0  0  0  0  0  0  0  0
   -9.5734    5.5558  -28.5151 H   0  0  0  0  0  0  0  0  0  0  0  0
  -17.3670    3.3905  -26.8572 H   0  0  0  0  0  0  0  0  0  0  0  0
  -17.1231    4.5972  -27.9300 H   0  0  0  0  0  0  0  0  0  0  0  0
  -15.4706    2.2780  -27.6667 H   0  0  0  0  0  0  0  0  0  0  0  0
  -15.0725    3.7712  -27.1392 H   0  0  0  0  0  0  0  0  0  0  0  0
  -10.9823    1.2499  -28.8815 H   0  0  0  0  0  0  0  0  0  0  0  0
  -13.3285    1.3849  -29.2362 H   0  0  0  0  0  0  0  0  0  0  0  0
  -13.1241    5.5119  -29.1246 H   0  0  0  0  0  0  0  0  0  0  0  0
  -15.2097    4.5125  -29.4587 H   0  0  0  0  0  0  0  0  0  0  0  0
  -17.5212    3.1039  -28.4575 H   0  0  0  0  0  0  0  0  0  0  0  0
  1  9  1  0  0  0  0
  2 10  1  0  0  0  0
  3 11  1  0  0  0  0
  4  5  1  0  0  0  0
  5  9  1  0  0  0  0
  6  7  1  0  0  0  0
  6 10  2  0  0  0  0
  7 12  2  0  0  0  0
  8 11  2  0  0  0  0
  8 12  1  0  0  0  0
  9 12  1  0  0  0  0
 10 11  1  0  0  0  0
  1 13  1  0  0  0  0
  2 14  1  0  0  0  0
  3 15  1  0  0  0  0
  4 16  1  0  0  0  0
  4 17  1  0  0  0  0
  5 18  1  0  0  0  0
  5 19  1  0  0  0  0
  6 20  1  0  0  0  0
  7 21  1  0  0  0  0
  8 22  1  0  0  0  0
  9 23  1  0  0  0  0
  4 24  1  0  0  0  0
M  CHG  1   4   1
M  END
$$$$
5N3L_DMS_A_404
prProtoss 03132510063D 1   1.00000     0.00000     0
Protoss beta proteinsplus
 10  9  0  0  0  0            999 V2000
  -26.2650    8.7740    4.3880 S   0  0  0  0  0  0  0  0  0  0  0  0
  -25.1050    9.2930    3.5810 O   0  0  0  0  0  0  0  0  0  0  0  0
  -25.9320    7.1440    5.0720 C   0  0  0  0  0  0  0  0  0  0  0  0
  -26.3110    9.7940    5.8810 C   0  0  0  0  0  0  0  0  0  0  0  0
  -26.7238    6.8356    5.5992 H   0  0  0  0  0  0  0  0  0  0  0  0
  -25.7557    6.4998    4.3277 H   0  0  0  0  0  0  0  0  0  0  0  0
  -25.1313    7.1904    5.6693 H   0  0  0  0  0  0  0  0  0  0  0  0
  -27.0668    9.4969    6.4645 H   0  0  0  0  0  0  0  0  0  0  0  0
  -25.4485    9.6971    6.3776 H   0  0  0  0  0  0  0  0  0  0  0  0
  -26.4431   10.7519    5.6263 H   0  0  0  0  0  0  0  0  0  0  0  0
  1  2  2  0  0  0  0
  1  3  1  0  0  0  0
  1  4  1  0  0  0  0
  3  5  1  0  0  0  0
  3  6  1  0  0  0  0
  3  7  1  0  0  0  0
  4  8  1  0  0  0  0
  4  9  1  0  0  0  0
  4 10  1  0  0  0  0
M  END
$$$$
5MHI_MPD_A_401
prProtoss 03132510063D 1   1.00000     0.00000     0
Protoss beta proteinsplus
 22 21  0  0  0  0            999 V2000
   -8.0840   12.5540   -4.5980 O   0  0  0  0  0  0  0  0  0  0  0  0
   -9.2290   13.6570   -2.3700 O   0  0  0  0  0  0  0  0  0  0  0  0
   -8.7900   13.2510   -6.7120 C   0  0  0  0  0  0  0  0  0  0  0  0
   -9.9250   15.7580   -3.2400 C   0  0  0  0  0  0  0  0  0  0  0  0
  -11.6020   14.0090   -2.5300 C   0  0  0  0  0  0  0  0  0  0  0  0
  -10.2540   13.6540   -4.6090 C   0  0  0  0  0  0  0  0  0  0  0  0
   -8.8430   13.5540   -5.2140 C   0  0  1  0  0  0  0  0  0  0  0  0
  -10.2550   14.2670   -3.2030 C   0  0  0  0  0  0  0  0  0  0  0  0
   -7.1459   12.5876   -4.9426 H   0  0  0  0  0  0  0  0  0  0  0  0
   -8.7281   12.9755   -2.9036 H   0  0  0  0  0  0  0  0  0  0  0  0
   -9.3193   13.9380   -7.2100 H   0  0  0  0  0  0  0  0  0  0  0  0
   -7.8398   13.2724   -7.0230 H   0  0  0  0  0  0  0  0  0  0  0  0
   -9.1763   12.3445   -6.8826 H   0  0  0  0  0  0  0  0  0  0  0  0
  -10.6006   16.2351   -3.8021 H   0  0  0  0  0  0  0  0  0  0  0  0
   -9.9444   16.1268   -2.3107 H   0  0  0  0  0  0  0  0  0  0  0  0
   -9.0140   15.8882   -3.6314 H   0  0  0  0  0  0  0  0  0  0  0  0
  -12.3321   14.4165   -3.0785 H   0  0  0  0  0  0  0  0  0  0  0  0
  -11.7530   13.0234   -2.4535 H   0  0  0  0  0  0  0  0  0  0  0  0
  -11.6025   14.4181   -1.6175 H   0  0  0  0  0  0  0  0  0  0  0  0
  -10.6455   12.7353   -4.5574 H   0  0  0  0  0  0  0  0  0  0  0  0
  -10.8183   14.2237   -5.2065 H   0  0  0  0  0  0  0  0  0  0  0  0
   -8.3811   14.4277   -5.0612 H   0  0  0  0  0  0  0  0  0  0  0  0
  1  7  1  0  0  0  0
  2  8  1  0  0  0  0
  3  7  1  0  0  0  0
  4  8  1  0  0  0  0
  5  8  1  0  0  0  0
  6  7  1  0  0  0  0
  6  8  1  0  0  0  0
  1  9  1  0  0  0  0
  2 10  1  0  0  0  0
  3 11  1  0  0  0  0
  3 12  1  0  0  0  0
  3 13  1  0  0  0  0
  4 14  1  0  0  0  0
  4 15  1  0  0  0  0
  4 16  1  0  0  0  0
  5 17  1  0  0  0  0
  5 18  1  0  0  0  0
  5 19  1  0  0  0  0
  6 20  1  0  0  0  0
  6 21  1  0  0  0  0
  7 22  1  0  0  0  0
M  END
$$$$
5MHI_7N9_A_402
prProtoss 03132510063D 1   1.00000     0.00000     0
Protoss beta proteinsplus
 22 22  0  0  0  0            999 V2000
  -16.6860   24.9170  -22.8850 Cl  0  0  0  0  0  0  0  0  0  0  0  0
  -12.5550   26.1320  -26.8490 O   0  0  0  0  0  0  0  0  0  0  0  0
  -11.4600   23.7820  -25.6500 N   0  3  0  0  0  0  0  0  0  0  0  0
  -12.3350   27.4680  -27.2920 C   0  0  0  0  0  0  0  0  0  0  0  0
  -12.8380   23.5160  -26.1440 C   0  0  0  0  0  0  0  0  0  0  0  0
  -15.4010   26.6020  -24.5650 C   0  0  0  0  0  0  0  0  0  0  0  0
  -14.4070   26.9110  -25.4790 C   0  0  0  0  0  0  0  0  0  0  0  0
  -14.7940   24.2830  -24.7050 C   0  0  0  0  0  0  0  0  0  0  0  0
  -15.5650   25.2920  -24.1750 C   0  0  0  0  0  0  0  0  0  0  0  0
  -13.5890   25.9090  -25.9810 C   0  0  0  0  0  0  0  0  0  0  0  0
  -13.7710   24.5780  -25.6050 C   0  0  0  0  0  0  0  0  0  0  0  0
  -11.3203   23.3080  -24.7806 H   0  0  0  0  0  0  0  0  0  0  0  0
  -10.7959   23.4512  -26.3205 H   0  0  0  0  0  0  0  0  0  0  0  0
  -11.5548   27.4877  -27.9172 H   0  0  0  0  0  0  0  0  0  0  0  0
  -13.1504   27.8006  -27.7659 H   0  0  0  0  0  0  0  0  0  0  0  0
  -12.1455   28.0536  -26.5039 H   0  0  0  0  0  0  0  0  0  0  0  0
  -13.1384   22.6155  -25.8296 H   0  0  0  0  0  0  0  0  0  0  0  0
  -12.8457   23.5396  -27.1437 H   0  0  0  0  0  0  0  0  0  0  0  0
  -15.9905   27.3196  -24.1941 H   0  0  0  0  0  0  0  0  0  0  0  0
  -14.2789   27.8569  -25.7772 H   0  0  0  0  0  0  0  0  0  0  0  0
  -14.9683   23.3337  -24.4434 H   0  0  0  0  0  0  0  0  0  0  0  0
  -11.3377   24.7655  -25.5169 H   0  0  0  0  0  0  0  0  0  0  0  0
  1  9  1  0  0  0  0
  2  4  1  0  0  0  0
  2 10  1  0  0  0  0
  3  5  1  0  0  0  0
  5 11  1  0  0  0  0
  6  7  2  0  0  0  0
  6  9  1  0  0  0  0
  7 10  1  0  0  0  0
  8  9  2  0  0  0  0
  8 11  1  0  0  0  0
 10 11  2  0  0  0  0
  3 12  1  0  0  0  0
  3 13  1  0  0  0  0
  4 14  1  0  0  0  0
  4 15  1  0  0  0  0
  4 16  1  0  0  0  0
  5 17  1  0  0  0  0
  5 18  1  0  0  0  0
  6 19  1  0  0  0  0
  7 20  1  0  0  0  0
  8 21  1  0  0  0  0
  3 22  1  0  0  0  0
M  CHG  1   3   1
M  END
$$$$
5MHI_7N9_A_403
prProtoss 03132510063D 1   1.00000     0.00000     0
Protoss beta proteinsplus
 12 12  0  0  0  0            999 V2000
    6.5870   37.0550  -18.4570 Cl  0  0  0  0  0  0  0  0  0  0  0  0
    8.5400   35.9180  -22.3300 C   0  0  0  0  0  0  0  0  0  0  0  0
    9.3440   36.2230  -21.2310 C   0  0  0  0  0  0  0  0  0  0  0  0
    7.1550   35.9570  -22.2440 C   0  0  0  0  0  0  0  0  0  0  0  0
    8.7190   36.5740  -20.0360 C   0  0  0  0  0  0  0  0  0  0  0  0
    6.5530   36.3110  -21.0500 C   0  0  0  0  0  0  0  0  0  0  0  0
    7.3430   36.6150  -19.9640 C   0  0  0  0  0  0  0  0  0  0  0  0
    8.9702   35.6663  -23.1969 H   0  0  0  0  0  0  0  0  0  0  0  0
   10.3412   36.1906  -21.2991 H   0  0  0  0  0  0  0  0  0  0  0  0
    6.5954   35.7303  -23.0412 H   0  0  0  0  0  0  0  0  0  0  0  0
    9.2687   36.7961  -19.2307 H   0  0  0  0  0  0  0  0  0  0  0  0
    5.5563   36.3457  -20.9764 H   0  0  0  0  0  0  0  0  0  0  0  0
  1  7  1  0  0  0  0
  2  3  2  0  0  0  0
  2  4  1  0  0  0  0
  3  5  1  0  0  0  0
  4  6  2  0  0  0  0
  5  7  2  0  0  0  0
  6  7  1  0  0  0  0
  2  8  1  0  0  0  0
  3  9  1  0  0  0  0
  4 10  1  0  0  0  0
  5 11  1  0  0  0  0
  6 12  1  0  0  0  0
M  END
$$$$
5MHI_DMS_A_404
prProtoss 03132510063D 1   1.00000     0.00000     0
Protoss beta proteinsplus
 10  9  0  0  0  0            999 V2000
   -2.5570   22.8790    4.4120 S   0  0  0  0  0  0  0  0  0  0  0  0
   -2.5430   24.2340    3.9380 O   0  0  0  0  0  0  0  0  0  0  0  0
   -1.7200   22.9250    5.8790 C   0  0  0  0  0  0  0  0  0  0  0  0
   -4.0300   22.6360    5.1980 C   0  0  0  0  0  0  0  0  0  0  0  0
   -1.6881   22.0067    6.2735 H   0  0  0  0  0  0  0  0  0  0  0  0
   -0.7884   23.2525    5.7211 H   0  0  0  0  0  0  0  0  0  0  0  0
   -2.1881   23.5431    6.5106 H   0  0  0  0  0  0  0  0  0  0  0  0
   -4.0734   21.6981    5.5422 H   0  0  0  0  0  0  0  0  0  0  0  0
   -4.1093   23.2756    5.9626 H   0  0  0  0  0  0  0  0  0  0  0  0
   -4.7803   22.7902    4.5551 H   0  0  0  0  0  0  0  0  0  0  0  0
  1  2  2  0  0  0  0
  1  3  1  0  0  0  0
  1  4  1  0  0  0  0
  3  5  1  0  0  0  0
  3  6  1  0  0  0  0
  3  7  1  0  0  0  0
  4  8  1  0  0  0  0
  4  9  1  0  0  0  0
  4 10  1  0  0  0  0
M  END
$$$$
7AXT_S9B_A_401
prProtoss 03132510073D 1   1.00000     0.00000     0
Protoss beta proteinsplus
 19 20  0  0  0  0            999 V2000
  -13.9260   22.0460  -27.0940 O   0  0  0  0  0  0  0  0  0  0  0  0
  -15.5570   21.7730  -25.6070 O   0  5  0  0  0  0  0  0  0  0  0  0
  -17.3810   26.0850  -23.4830 N   0  0  0  0  0  0  0  0  0  0  0  0
  -17.2850   24.7440  -23.4460 C   0  0  0  0  0  0  0  0  0  0  0  0
  -16.7490   26.7140  -24.4540 C   0  0  0  0  0  0  0  0  0  0  0  0
  -14.4760   26.0810  -27.3430 C   0  0  0  0  0  0  0  0  0  0  0  0
  -16.5750   24.0020  -24.3370 C   0  0  0  0  0  0  0  0  0  0  0  0
  -15.2560   26.7600  -26.4470 C   0  0  0  0  0  0  0  0  0  0  0  0
  -14.3680   24.7020  -27.2890 C   0  0  0  0  0  0  0  0  0  0  0  0
  -14.8210   22.4810  -26.3430 C   0  0  0  0  0  0  0  0  0  0  0  0
  -15.9630   26.0690  -25.4380 C   0  0  0  0  0  0  0  0  0  0  0  0
  -15.0450   23.9790  -26.3280 C   0  0  0  0  0  0  0  0  0  0  0  0
  -15.8710   24.6540  -25.3710 C   0  0  0  0  0  0  0  0  0  0  0  0
  -17.7674   24.2610  -22.7153 H   0  0  0  0  0  0  0  0  0  0  0  0
  -16.8302   27.7097  -24.4979 H   0  0  0  0  0  0  0  0  0  0  0  0
  -13.9773   26.5877  -28.0462 H   0  0  0  0  0  0  0  0  0  0  0  0
  -16.5521   23.0052  -24.2602 H   0  0  0  0  0  0  0  0  0  0  0  0
  -15.3263   27.7557  -26.5071 H   0  0  0  0  0  0  0  0  0  0  0  0
  -13.7932   24.2245  -27.9535 H   0  0  0  0  0  0  0  0  0  0  0  0
  1 10  2  0  0  0  0
  2 10  1  0  0  0  0
  3  4  2  0  0  0  0
  3  5  1  0  0  0  0
  4  7  1  0  0  0  0
  5 11  2  0  0  0  0
  6  8  2  0  0  0  0
  6  9  1  0  0  0  0
  7 13  2  0  0  0  0
  8 11  1  0  0  0  0
  9 12  2  0  0  0  0
 10 12  1  0  0  0  0
 11 13  1  0  0  0  0
 12 13  1  0  0  0  0
  9 19  1  0  0  0  0
  4 14  1  0  0  0  0
  5 15  1  0  0  0  0
  6 16  1  0  0  0  0
  7 17  1  0  0  0  0
  8 18  1  0  0  0  0
M  CHG  1   2  -1
M  END
$$$$
5N7U_MPD_A_401
prProtoss 03132510073D 1   1.00000     0.00000     0
Protoss beta proteinsplus
 22 21  0  0  0  0            999 V2000
  125.1280   12.6670    4.8690 O   0  0  0  0  0  0  0  0  0  0  0  0
  126.2130   13.8980    2.6540 O   0  0  0  0  0  0  0  0  0  0  0  0
  125.6890   13.5660    6.9760 C   0  0  0  0  0  0  0  0  0  0  0  0
  126.6620   16.0740    3.4450 C   0  0  0  0  0  0  0  0  0  0  0  0
  128.5300   14.4950    2.8660 C   0  0  0  0  0  0  0  0  0  0  0  0
  127.1340   14.0580    4.9040 C   0  0  0  0  0  0  0  0  0  0  0  0
  125.7250   13.7820    5.4640 C   0  0  1  0  0  0  0  0  0  0  0  0
  127.1430   14.6330    3.4850 C   0  0  0  0  0  0  0  0  0  0  0  0
  124.1842   12.5839    5.1887 H   0  0  0  0  0  0  0  0  0  0  0  0
  125.7641   13.1912    3.2008 H   0  0  0  0  0  0  0  0  0  0  0  0
  126.1100   14.3486    7.4346 H   0  0  0  0  0  0  0  0  0  0  0  0
  124.7398   13.4742    7.2771 H   0  0  0  0  0  0  0  0  0  0  0  0
  126.1936   12.7338    7.2059 H   0  0  0  0  0  0  0  0  0  0  0  0
  127.2656   16.6425    4.0039 H   0  0  0  0  0  0  0  0  0  0  0  0
  126.6739   16.4033    2.5008 H   0  0  0  0  0  0  0  0  0  0  0  0
  125.7300   16.1244    3.8039 H   0  0  0  0  0  0  0  0  0  0  0  0
  129.1943   14.9949    3.4217 H   0  0  0  0  0  0  0  0  0  0  0  0
  128.7847   13.5286    2.8309 H   0  0  0  0  0  0  0  0  0  0  0  0
  128.5204   14.8710    1.9394 H   0  0  0  0  0  0  0  0  0  0  0  0
  127.6430   13.1972    4.8970 H   0  0  0  0  0  0  0  0  0  0  0  0
  127.5901   14.7100    5.5096 H   0  0  0  0  0  0  0  0  0  0  0  0
  125.1553   14.5775    5.2575 H   0  0  0  0  0  0  0  0  0  0  0  0
  1  7  1  0  0  0  0
  2  8  1  0  0  0  0
  3  7  1  0  0  0  0
  4  8  1  0  0  0  0
  5  8  1  0  0  0  0
  6  7  1  0  0  0  0
  6  8  1  0  0  0  0
  1  9  1  0  0  0  0
  2 10  1  0  0  0  0
  3 11  1  0  0  0  0
  3 12  1  0  0  0  0
  3 13  1  0  0  0  0
  4 14  1  0  0  0  0
  4 15  1  0  0  0  0
  4 16  1  0  0  0  0
  5 17  1  0  0  0  0
  5 18  1  0  0  0  0
  5 19  1  0  0  0  0
  6 20  1  0  0  0  0
  6 21  1  0  0  0  0
  7 22  1  0  0  0  0
M  END
$$$$
5N7U_8PQ_A_402
prProtoss 03132510073D 1   1.00000     0.00000     0
Protoss beta proteinsplus
 15 15  0  0  0  0            999 V2000
  132.9050   27.6770   23.6530 Br  0  0  0  0  0  0  0  0  0  0  0  0
  130.6500   24.9570   25.4590 N   0  0  0  0  0  0  0  0  0  0  0  0
  131.4650   24.1070   24.7370 N   0  0  0  0  0  0  0  0  0  0  0  0
  130.2840   27.3560   25.9990 C   0  0  0  0  0  0  0  0  0  0  0  0
  133.2800   24.3980   23.0770 C   0  0  0  0  0  0  0  0  0  0  0  0
  132.0250   26.2400   24.4150 C   0  0  0  0  0  0  0  0  0  0  0  0
  130.9870   26.2420   25.2900 C   0  0  0  0  0  0  0  0  0  0  0  0
  132.3030   24.9180   24.0850 C   0  0  0  0  0  0  0  0  0  0  0  0
  129.8966   24.6489   26.0399 H   0  0  0  0  0  0  0  0  0  0  0  0
  130.6902   28.2299   25.7319 H   0  0  0  0  0  0  0  0  0  0  0  0
  129.3150   27.3494   25.7519 H   0  0  0  0  0  0  0  0  0  0  0  0
  130.3769   27.2334   26.9871 H   0  0  0  0  0  0  0  0  0  0  0  0
  133.8118   25.1588   22.7049 H   0  0  0  0  0  0  0  0  0  0  0  0
  133.8960   23.7442   23.5163 H   0  0  0  0  0  0  0  0  0  0  0  0
  132.7849   23.9437   22.3364 H   0  0  0  0  0  0  0  0  0  0  0  0
  1  6  1  0  0  0  0
  2  3  1  0  0  0  0
  2  7  1  0  0  0  0
  3  8  2  0  0  0  0
  4  7  1  0  0  0  0
  5  8  1  0  0  0  0
  6  7  2  0  0  0  0
  6  8  1  0  0  0  0
  2  9  1  0  0  0  0
  4 10  1  0  0  0  0
  4 11  1  0  0  0  0
  4 12  1  0  0  0  0
  5 13  1  0  0  0  0
  5 14  1  0  0  0  0
  5 15  1  0  0  0  0
M  END
$$$$
5N3K_GGB_A_401
prProtoss 03132510073D 1   1.00000     0.00000     0
Protoss beta proteinsplus
 13 12  0  0  0  0            999 V2000
  -27.6330    0.6230  -23.0960 O   0  0  0  0  0  0  0  0  0  0  0  0
  -25.2460    1.6130  -20.7060 N   0  0  0  0  0  0  0  0  0  0  0  0
  -27.3520    0.7020  -20.5070 N   0  0  0  0  0  0  0  0  0  0  0  0
  -26.5760    1.4180  -22.6180 N   0  0  0  0  0  0  0  0  0  0  0  0
  -28.4800    1.4150  -23.9560 C   0  0  0  0  0  0  0  0  0  0  0  0
  -26.3880    1.2370  -21.2360 C   0  0  0  0  0  0  0  0  0  0  0  0
  -24.5351    2.0148  -21.2832 H   0  0  0  0  0  0  0  0  0  0  0  0
  -25.0877    1.4973  -19.7254 H   0  0  0  0  0  0  0  0  0  0  0  0
  -29.2316    0.8497  -24.2959 H   0  0  0  0  0  0  0  0  0  0  0  0
  -28.8506    2.1870  -23.4396 H   0  0  0  0  0  0  0  0  0  0  0  0
  -27.9444    1.7569  -24.7282 H   0  0  0  0  0  0  0  0  0  0  0  0
  -27.2228    0.5738  -19.5237 H   0  0  0  0  0  0  0  0  0  0  0  0
  -26.0291    2.0322  -23.1869 H   0  0  0  0  0  0  0  0  0  0  0  0
  1  4  1  0  0  0  0
  1  5  1  0  0  0  0
  2  6  1  0  0  0  0
  3  6  2  0  0  0  0
  4  6  1  0  0  0  0
  2  7  1  0  0  0  0
  2  8  1  0  0  0  0
  4 13  1  0  0  0  0
  3 12  1  0  0  0  0
  5  9  1  0  0  0  0
  5 10  1  0  0  0  0
  5 11  1  0  0  0  0
M  END
$$$$
5N3K_DMS_A_402
prProtoss 03132510073D 1   1.00000     0.00000     0
Protoss beta proteinsplus
 10  9  0  0  0  0            999 V2000
   -2.0940   20.8950  -16.2660 S   0  0  0  0  0  0  0  0  0  0  0  0
   -3.2910   20.7850  -17.1550 O   0  0  0  0  0  0  0  0  0  0  0  0
   -0.7440   21.6960  -17.1690 C   0  0  0  0  0  0  0  0  0  0  0  0
   -2.4050   22.1470  -14.9890 C   0  0  0  0  0  0  0  0  0  0  0  0
    0.0569   21.7698  -16.5747 H   0  0  0  0  0  0  0  0  0  0  0  0
   -0.5122   21.1508  -17.9746 H   0  0  0  0  0  0  0  0  0  0  0  0
   -1.0312   22.6098  -17.4563 H   0  0  0  0  0  0  0  0  0  0  0  0
   -1.6051   22.2217  -14.3936 H   0  0  0  0  0  0  0  0  0  0  0  0
   -2.5804   23.0302  -15.4239 H   0  0  0  0  0  0  0  0  0  0  0  0
   -3.2008   21.8788  -14.4461 H   0  0  0  0  0  0  0  0  0  0  0  0
  1  2  2  0  0  0  0
  1  3  1  0  0  0  0
  1  4  1  0  0  0  0
  3  5  1  0  0  0  0
  3  6  1  0  0  0  0
  3  7  1  0  0  0  0
  4  8  1  0  0  0  0
  4  9  1  0  0  0  0
  4 10  1  0  0  0  0
M  END
$$$$
5N3K_DMS_A_403
prProtoss 03132510073D 1   1.00000     0.00000     0
Protoss beta proteinsplus
 10  9  0  0  0  0            999 V2000
   -8.4490    5.3920   -3.3790 S   0  0  0  0  0  0  0  0  0  0  0  0
   -9.0300    6.7300   -3.6090 O   0  0  0  0  0  0  0  0  0  0  0  0
   -7.1580    5.4390   -2.1070 C   0  0  0  0  0  0  0  0  0  0  0  0
   -9.5930    4.2610   -2.5610 C   0  0  0  0  0  0  0  0  0  0  0  0
   -6.7860    4.5201   -1.9755 H   0  0  0  0  0  0  0  0  0  0  0  0
   -6.4267    6.0563   -2.3970 H   0  0  0  0  0  0  0  0  0  0  0  0
   -7.5492    5.7665   -1.2470 H   0  0  0  0  0  0  0  0  0  0  0  0
   -9.1493    3.3743   -2.4310 H   0  0  0  0  0  0  0  0  0  0  0  0
   -9.8543    4.6366   -1.6718 H   0  0  0  0  0  0  0  0  0  0  0  0
  -10.4093    4.1454   -3.1270 H   0  0  0  0  0  0  0  0  0  0  0  0
  1  2  2  0  0  0  0
  1  3  1  0  0  0  0
  1  4  1  0  0  0  0
  3  5  1  0  0  0  0
  3  6  1  0  0  0  0
  3  7  1  0  0  0  0
  4  8  1  0  0  0  0
  4  9  1  0  0  0  0
  4 10  1  0  0  0  0
M  END
$$$$
5N3K_DMS_A_404
prProtoss 03132510073D 1   1.00000     0.00000     0
Protoss beta proteinsplus
 10  9  0  0  0  0            999 V2000
  -10.6210  -12.0110  -22.9850 S   0  0  0  0  0  0  0  0  0  0  0  0
   -9.5160  -11.0410  -23.3090 O   0  0  0  0  0  0  0  0  0  0  0  0
  -12.2020  -11.1270  -22.9460 C   0  0  0  0  0  0  0  0  0  0  0  0
  -10.8640  -13.0360  -24.4570 C   0  0  0  0  0  0  0  0  0  0  0  0
  -12.9378  -11.7692  -22.7310 H   0  0  0  0  0  0  0  0  0  0  0  0
  -12.1676  -10.4131  -22.2466 H   0  0  0  0  0  0  0  0  0  0  0  0
  -12.3733  -10.7107  -23.8390 H   0  0  0  0  0  0  0  0  0  0  0  0
  -11.5933  -13.6983  -24.2853 H   0  0  0  0  0  0  0  0  0  0  0  0
  -11.1171  -12.4544  -25.2301 H   0  0  0  0  0  0  0  0  0  0  0  0
  -10.0158  -13.5215  -24.6688 H   0  0  0  0  0  0  0  0  0  0  0  0
  1  2  2  0  0  0  0
  1  3  1  0  0  0  0
  1  4  1  0  0  0  0
  3  5  1  0  0  0  0
  3  6  1  0  0  0  0
  3  7  1  0  0  0  0
  4  8  1  0  0  0  0
  4  9  1  0  0  0  0
  4 10  1  0  0  0  0
M  END
$$$$
5N3K_MPD_A_405
prProtoss 03132510073D 1   1.00000     0.00000     0
Protoss beta proteinsplus
 22 21  0  0  0  0            999 V2000
   -8.7980   19.6840   -9.9340 O   0  0  0  0  0  0  0  0  0  0  0  0
   -7.3030   18.5090   -8.0630 O   0  0  0  0  0  0  0  0  0  0  0  0
   -9.4200   18.3150  -11.7970 C   0  0  0  0  0  0  0  0  0  0  0  0
   -6.5940   16.3500   -8.6340 C   0  0  0  0  0  0  0  0  0  0  0  0
   -5.1890   18.3760   -9.1810 C   0  0  0  0  0  0  0  0  0  0  0  0
   -7.2920   17.9340  -10.4880 C   0  0  0  0  0  0  0  0  0  0  0  0
   -8.7490   18.3660  -10.4320 C   0  0  1  0  0  0  0  0  0  0  0  0
   -6.6050   17.7950   -9.1190 C   0  0  0  0  0  0  0  0  0  0  0  0
   -9.7516   19.9726   -9.8479 H   0  0  0  0  0  0  0  0  0  0  0  0
   -8.1216   18.9432   -8.4389 H   0  0  0  0  0  0  0  0  0  0  0  0
   -9.3855   17.3803  -12.1507 H   0  0  0  0  0  0  0  0  0  0  0  0
  -10.3735   18.6038  -11.7107 H   0  0  0  0  0  0  0  0  0  0  0  0
   -8.9419   18.9275  -12.4265 H   0  0  0  0  0  0  0  0  0  0  0  0
   -6.1271   15.7761   -9.3068 H   0  0  0  0  0  0  0  0  0  0  0  0
   -6.1134   16.2958   -7.7587 H   0  0  0  0  0  0  0  0  0  0  0  0
   -7.5343   16.0301   -8.5183 H   0  0  0  0  0  0  0  0  0  0  0  0
   -4.6693   17.9117   -9.8982 H   0  0  0  0  0  0  0  0  0  0  0  0
   -5.2385   19.3537   -9.3850 H   0  0  0  0  0  0  0  0  0  0  0  0
   -4.7348   18.2418   -8.3003 H   0  0  0  0  0  0  0  0  0  0  0  0
   -6.7871   18.6125  -11.0215 H   0  0  0  0  0  0  0  0  0  0  0  0
   -7.2482   17.0477  -10.9490 H   0  0  0  0  0  0  0  0  0  0  0  0
   -9.2425   17.7634   -9.8049 H   0  0  0  0  0  0  0  0  0  0  0  0
  1  7  1  0  0  0  0
  2  8  1  0  0  0  0
  3  7  1  0  0  0  0
  4  8  1  0  0  0  0
  5  8  1  0  0  0  0
  6  7  1  0  0  0  0
  6  8  1  0  0  0  0
  1  9  1  0  0  0  0
  2 10  1  0  0  0  0
  3 11  1  0  0  0  0
  3 12  1  0  0  0  0
  3 13  1  0  0  0  0
  4 14  1  0  0  0  0
  4 15  1  0  0  0  0
  4 16  1  0  0  0  0
  5 17  1  0  0  0  0
  5 18  1  0  0  0  0
  5 19  1  0  0  0  0
  6 20  1  0  0  0  0
  6 21  1  0  0  0  0
  7 22  1  0  0  0  0
M  END
$$$$
5N7P_E9Q_A_401
prProtoss 03132510073D 1   1.00000     0.00000     0
Protoss beta proteinsplus
 24 25  0  0  0  0            999 V2000
  133.6300   27.3370   23.1390 N   0  0  0  0  0  0  0  0  0  0  0  0
  133.5650   23.5640   23.1370 N   0  0  0  0  0  0  0  0  0  0  0  0
  131.8390   23.3170   24.7170 N   0  0  0  0  0  0  0  0  0  0  0  0
  130.9660   24.0710   25.4720 N   0  0  0  0  0  0  0  0  0  0  0  0
  130.6640   26.3620   25.8280 N   0  0  0  0  0  0  0  0  0  0  0  0
  133.0780   26.4980   23.6900 C   0  0  0  0  0  0  0  0  0  0  0  0
  129.6200   26.1680   26.8480 C   0  0  0  0  0  0  0  0  0  0  0  0
  130.9460   27.7830   25.6130 C   0  0  0  0  0  0  0  0  0  0  0  0
  129.3560   27.5670   27.3620 C   0  0  0  0  0  0  0  0  0  0  0  0
  129.7460   28.4680   26.2300 C   0  0  0  0  0  0  0  0  0  0  0  0
  132.6970   24.0610   24.0110 C   0  0  0  0  0  0  0  0  0  0  0  0
  131.3150   25.3100   25.2310 C   0  0  0  0  0  0  0  0  0  0  0  0
  132.4220   25.3900   24.3110 C   0  0  0  0  0  0  0  0  0  0  0  0
  134.1806   24.1760   22.6405 H   0  0  0  0  0  0  0  0  0  0  0  0
  133.6029   22.5779   22.9755 H   0  0  0  0  0  0  0  0  0  0  0  0
  131.8314   22.3172   24.6992 H   0  0  0  0  0  0  0  0  0  0  0  0
  129.9458   25.5736   27.5832 H   0  0  0  0  0  0  0  0  0  0  0  0
  128.7944   25.7752   26.4430 H   0  0  0  0  0  0  0  0  0  0  0  0
  131.0162   27.9915   24.6375 H   0  0  0  0  0  0  0  0  0  0  0  0
  131.7909   28.0551   26.0736 H   0  0  0  0  0  0  0  0  0  0  0  0
  129.9123   27.7563   28.1711 H   0  0  0  0  0  0  0  0  0  0  0  0
  128.3888   27.6830   27.5879 H   0  0  0  0  0  0  0  0  0  0  0  0
  129.0021   28.5474   25.5665 H   0  0  0  0  0  0  0  0  0  0  0  0
  129.9903   29.3771   26.5674 H   0  0  0  0  0  0  0  0  0  0  0  0
  1  6  3  0  0  0  0
  2 11  1  0  0  0  0
  3  4  1  0  0  0  0
  3 11  1  0  0  0  0
  4 12  2  0  0  0  0
  5  7  1  0  0  0  0
  5  8  1  0  0  0  0
  5 12  1  0  0  0  0
  6 13  1  0  0  0  0
  7  9  1  0  0  0  0
  8 10  1  0  0  0  0
  9 10  1  0  0  0  0
 11 13  2  0  0  0  0
 12 13  1  0  0  0  0
  2 14  1  0  0  0  0
  2 15  1  0  0  0  0
  3 16  1  0  0  0  0
  7 17  1  0  0  0  0
  7 18  1  0  0  0  0
  8 19  1  0  0  0  0
  8 20  1  0  0  0  0
  9 21  1  0  0  0  0
  9 22  1  0  0  0  0
 10 23  1  0  0  0  0
 10 24  1  0  0  0  0
M  END
$$$$
5N7P_MPD_A_402
prProtoss 03132510073D 1   1.00000     0.00000     0
Protoss beta proteinsplus
 22 21  0  0  0  0            999 V2000
  125.2280   12.5200    4.7950 O   0  0  0  0  0  0  0  0  0  0  0  0
  126.2670   13.7790    2.4530 O   0  0  0  0  0  0  0  0  0  0  0  0
  125.7260   13.7080    6.7890 C   0  0  0  0  0  0  0  0  0  0  0  0
  126.6210   15.9980    3.2870 C   0  0  0  0  0  0  0  0  0  0  0  0
  128.5510   14.4910    2.6680 C   0  0  0  0  0  0  0  0  0  0  0  0
  127.1600   13.9670    4.6960 C   0  0  0  0  0  0  0  0  0  0  0  0
  125.7540   13.7360    5.2610 C   0  0  1  0  0  0  0  0  0  0  0  0
  127.1510   14.5660    3.2860 C   0  0  0  0  0  0  0  0  0  0  0  0
  124.2884   12.4164    5.1213 H   0  0  0  0  0  0  0  0  0  0  0  0
  125.8634   13.0434    2.9971 H   0  0  0  0  0  0  0  0  0  0  0  0
  126.0968   14.5658    7.1450 H   0  0  0  0  0  0  0  0  0  0  0  0
  124.7832   13.5966    7.1031 H   0  0  0  0  0  0  0  0  0  0  0  0
  126.2797   12.9433    7.1186 H   0  0  0  0  0  0  0  0  0  0  0  0
  127.2109   16.5714    3.8555 H   0  0  0  0  0  0  0  0  0  0  0  0
  126.6139   16.3515    2.3516 H   0  0  0  0  0  0  0  0  0  0  0  0
  125.6911   16.0090    3.6545 H   0  0  0  0  0  0  0  0  0  0  0  0
  129.1888   15.0265    3.2216 H   0  0  0  0  0  0  0  0  0  0  0  0
  128.8525   13.5379    2.6403 H   0  0  0  0  0  0  0  0  0  0  0  0
  128.5254   14.8596    1.7388 H   0  0  0  0  0  0  0  0  0  0  0  0
  127.6388   13.0896    4.6659 H   0  0  0  0  0  0  0  0  0  0  0  0
  127.6485   14.5926    5.3043 H   0  0  0  0  0  0  0  0  0  0  0  0
  125.1613   14.4779    4.9474 H   0  0  0  0  0  0  0  0  0  0  0  0
  1  7  1  0  0  0  0
  2  8  1  0  0  0  0
  3  7  1  0  0  0  0
  4  8  1  0  0  0  0
  5  8  1  0  0  0  0
  6  7  1  0  0  0  0
  6  8  1  0  0  0  0
  1  9  1  0  0  0  0
  2 10  1  0  0  0  0
  3 11  1  0  0  0  0
  3 12  1  0  0  0  0
  3 13  1  0  0  0  0
  4 14  1  0  0  0  0
  4 15  1  0  0  0  0
  4 16  1  0  0  0  0
  5 17  1  0  0  0  0
  5 18  1  0  0  0  0
  5 19  1  0  0  0  0
  6 20  1  0  0  0  0
  6 21  1  0  0  0  0
  7 22  1  0  0  0  0
M  END
$$$$
5N33_8JW_A_401
prProtoss 03132510073D 1   1.00000     0.00000     0
Protoss beta proteinsplus
 17 17  0  0  0  0            999 V2000
  -14.8520   21.3130  -24.5980 F   0  0  0  0  0  0  0  0  0  0  0  0
  -13.3470   22.4510  -25.5240 F   0  0  0  0  0  0  0  0  0  0  0  0
  -15.1660   22.1940  -26.5360 F   0  0  0  0  0  0  0  0  0  0  0  0
  -16.6300   26.9910  -23.0040 O   0  0  0  0  0  0  0  0  0  0  0  0
  -14.8360   27.2880  -25.0290 N   0  0  0  0  0  0  0  0  0  0  0  0
  -16.5190   24.7100  -23.1050 N   0  0  0  0  0  0  0  0  0  0  0  0
  -16.0410   23.5750  -23.6650 C   0  0  0  0  0  0  0  0  0  0  0  0
  -14.6920   24.8790  -25.1820 C   0  0  0  0  0  0  0  0  0  0  0  0
  -16.1540   25.9910  -23.5290 C   0  0  0  0  0  0  0  0  0  0  0  0
  -15.1800   26.0370  -24.6340 C   0  0  0  0  0  0  0  0  0  0  0  0
  -15.1570   23.6110  -24.6800 C   0  0  0  0  0  0  0  0  0  0  0  0
  -14.6340   22.3930  -25.3380 C   0  0  0  0  0  0  0  0  0  0  0  0
  -15.2385   28.0837  -24.5763 H   0  0  0  0  0  0  0  0  0  0  0  0
  -14.1799   27.4147  -25.7729 H   0  0  0  0  0  0  0  0  0  0  0  0
  -17.1674   24.6283  -22.3481 H   0  0  0  0  0  0  0  0  0  0  0  0
  -16.3510   22.6900  -23.3175 H   0  0  0  0  0  0  0  0  0  0  0  0
  -14.0205   24.9140  -25.9222 H   0  0  0  0  0  0  0  0  0  0  0  0
  1 12  1  0  0  0  0
  2 12  1  0  0  0  0
  3 12  1  0  0  0  0
  4  9  2  0  0  0  0
  5 10  1  0  0  0  0
  6  7  1  0  0  0  0
  6  9  1  0  0  0  0
  7 11  2  0  0  0  0
  8 10  2  0  0  0  0
  8 11  1  0  0  0  0
  9 10  1  0  0  0  0
 11 12  1  0  0  0  0
  5 13  1  0  0  0  0
  5 14  1  0  0  0  0
  6 15  1  0  0  0  0
  7 16  1  0  0  0  0
  8 17  1  0  0  0  0
M  END
$$$$
5N33_MPD_A_402
prProtoss 03132510073D 1   1.00000     0.00000     0
Protoss beta proteinsplus
 22 21  0  0  0  0            999 V2000
   -7.9940   12.2440   -4.5750 O   0  0  0  0  0  0  0  0  0  0  0  0
   -9.1580   13.3060   -2.2980 O   0  0  0  0  0  0  0  0  0  0  0  0
   -8.6180   13.0470   -6.6970 C   0  0  0  0  0  0  0  0  0  0  0  0
   -9.6200   15.4680   -3.1670 C   0  0  0  0  0  0  0  0  0  0  0  0
  -11.4850   13.8630   -2.5570 C   0  0  0  0  0  0  0  0  0  0  0  0
  -10.0980   13.4330   -4.5790 C   0  0  0  0  0  0  0  0  0  0  0  0
   -8.6870   13.2910   -5.1880 C   0  0  1  0  0  0  0  0  0  0  0  0
  -10.0870   14.0190   -3.1600 C   0  0  0  0  0  0  0  0  0  0  0  0
   -7.0451   12.2426   -4.8904 H   0  0  0  0  0  0  0  0  0  0  0  0
   -8.7040   12.5850   -2.8214 H   0  0  0  0  0  0  0  0  0  0  0  0
   -9.1046   13.7779   -7.1754 H   0  0  0  0  0  0  0  0  0  0  0  0
   -7.6618   13.0361   -6.9895 H   0  0  0  0  0  0  0  0  0  0  0  0
   -9.0425   12.1675   -6.9122 H   0  0  0  0  0  0  0  0  0  0  0  0
  -10.2262   16.0108   -3.7483 H   0  0  0  0  0  0  0  0  0  0  0  0
   -9.6406   15.8294   -2.2348 H   0  0  0  0  0  0  0  0  0  0  0  0
   -8.6865   15.5157   -3.5225 H   0  0  0  0  0  0  0  0  0  0  0  0
  -12.1500   14.3439   -3.1284 H   0  0  0  0  0  0  0  0  0  0  0  0
  -11.7228   12.8927   -2.5134 H   0  0  0  0  0  0  0  0  0  0  0  0
  -11.4956   14.2505   -1.6352 H   0  0  0  0  0  0  0  0  0  0  0  0
  -10.5227   12.5283   -4.5461 H   0  0  0  0  0  0  0  0  0  0  0  0
  -10.6392   14.0341   -5.1671 H   0  0  0  0  0  0  0  0  0  0  0  0
   -8.1887   14.1364   -4.9957 H   0  0  0  0  0  0  0  0  0  0  0  0
  1  7  1  0  0  0  0
  2  8  1  0  0  0  0
  3  7  1  0  0  0  0
  4  8  1  0  0  0  0
  5  8  1  0  0  0  0
  6  7  1  0  0  0  0
  6  8  1  0  0  0  0
  1  9  1  0  0  0  0
  2 10  1  0  0  0  0
  3 11  1  0  0  0  0
  3 12  1  0  0  0  0
  3 13  1  0  0  0  0
  4 14  1  0  0  0  0
  4 15  1  0  0  0  0
  4 16  1  0  0  0  0
  5 17  1  0  0  0  0
  5 18  1  0  0  0  0
  5 19  1  0  0  0  0
  6 20  1  0  0  0  0
  6 21  1  0  0  0  0
  7 22  1  0  0  0  0
M  END
$$$$
5N33_DMS_A_403
prProtoss 03132510073D 1   1.00000     0.00000     0
Protoss beta proteinsplus
 10  9  0  0  0  0            999 V2000
    9.9960    1.7010  -16.9230 S   0  0  0  0  0  0  0  0  0  0  0  0
   10.0350    2.7420  -18.0060 O   0  0  0  0  0  0  0  0  0  0  0  0
   10.3990    0.0890  -17.6460 C   0  0  0  0  0  0  0  0  0  0  0  0
   11.4210    1.9160  -15.8250 C   0  0  0  0  0  0  0  0  0  0  0  0
   10.3757   -0.6115  -16.9327 H   0  0  0  0  0  0  0  0  0  0  0  0
    9.7303   -0.1349  -18.3550 H   0  0  0  0  0  0  0  0  0  0  0  0
   11.3134    0.1238  -18.0493 H   0  0  0  0  0  0  0  0  0  0  0  0
   11.3943    1.2229  -15.1046 H   0  0  0  0  0  0  0  0  0  0  0  0
   12.2654    1.8172  -16.3515 H   0  0  0  0  0  0  0  0  0  0  0  0
   11.3898    2.8266  -15.4128 H   0  0  0  0  0  0  0  0  0  0  0  0
  1  2  2  0  0  0  0
  1  3  1  0  0  0  0
  1  4  1  0  0  0  0
  3  5  1  0  0  0  0
  3  6  1  0  0  0  0
  3  7  1  0  0  0  0
  4  8  1  0  0  0  0
  4  9  1  0  0  0  0
  4 10  1  0  0  0  0
M  END
$$$$
5N3I_DMS_A_401
prProtoss 03132510073D 1   1.00000     0.00000     0
Protoss beta proteinsplus
 10  9  0  0  0  0            999 V2000
   -8.1530    4.9750   -3.4750 S   0  0  0  0  0  0  0  0  0  0  0  0
   -8.7870    6.2710   -3.8240 O   0  0  0  0  0  0  0  0  0  0  0  0
   -7.1150    5.2580   -2.0310 C   0  0  0  0  0  0  0  0  0  0  0  0
   -9.4640    4.0360   -2.6570 C   0  0  0  0  0  0  0  0  0  0  0  0
   -6.6704    4.4020   -1.7671 H   0  0  0  0  0  0  0  0  0  0  0  0
   -6.4187    5.9416   -2.2498 H   0  0  0  0  0  0  0  0  0  0  0  0
   -7.6794    5.5876   -1.2742 H   0  0  0  0  0  0  0  0  0  0  0  0
   -9.1132    3.1392   -2.3874 H   0  0  0  0  0  0  0  0  0  0  0  0
   -9.7718    4.5315   -1.8447 H   0  0  0  0  0  0  0  0  0  0  0  0
  -10.2320    3.9181   -3.2865 H   0  0  0  0  0  0  0  0  0  0  0  0
  1  2  2  0  0  0  0
  1  3  1  0  0  0  0
  1  4  1  0  0  0  0
  3  5  1  0  0  0  0
  3  6  1  0  0  0  0
  3  7  1  0  0  0  0
  4  8  1  0  0  0  0
  4  9  1  0  0  0  0
  4 10  1  0  0  0  0
M  END
$$$$
5N3I_DMS_A_402
prProtoss 03132510073D 1   1.00000     0.00000     0
Protoss beta proteinsplus
 10  9  0  0  0  0            999 V2000
    0.9550   15.4580  -42.8820 S   0  0  0  0  0  0  0  0  0  0  0  0
   -0.0910   15.5870  -43.9520 O   0  0  0  0  0  0  0  0  0  0  0  0
    2.1250   14.1790  -43.3980 C   0  0  0  0  0  0  0  0  0  0  0  0
    2.0740   16.8850  -42.9710 C   0  0  0  0  0  0  0  0  0  0  0  0
    2.8334   14.0740  -42.7000 H   0  0  0  0  0  0  0  0  0  0  0  0
    1.6409   13.3118  -43.5146 H   0  0  0  0  0  0  0  0  0  0  0  0
    2.5477   14.4440  -44.2647 H   0  0  0  0  0  0  0  0  0  0  0  0
    2.7733   16.8051  -42.2606 H   0  0  0  0  0  0  0  0  0  0  0  0
    2.5126   16.9091  -43.8693 H   0  0  0  0  0  0  0  0  0  0  0  0
    1.5524   17.7268  -42.8320 H   0  0  0  0  0  0  0  0  0  0  0  0
  1  2  2  0  0  0  0
  1  3  1  0  0  0  0
  1  4  1  0  0  0  0
  3  5  1  0  0  0  0
  3  6  1  0  0  0  0
  3  7  1  0  0  0  0
  4  8  1  0  0  0  0
  4  9  1  0  0  0  0
  4 10  1  0  0  0  0
M  END
$$$$
5N3I_DMS_A_403
prProtoss 03132510073D 1   1.00000     0.00000     0
Protoss beta proteinsplus
 10  9  0  0  0  0            999 V2000
   -1.8520   20.6360  -16.1170 S   0  0  0  0  0  0  0  0  0  0  0  0
   -2.9840   20.6320  -17.0790 O   0  0  0  0  0  0  0  0  0  0  0  0
   -0.3470   21.1670  -16.9630 C   0  0  0  0  0  0  0  0  0  0  0  0
   -2.1890   21.9410  -14.9160 C   0  0  0  0  0  0  0  0  0  0  0  0
    0.4156   21.1700  -16.3162 H   0  0  0  0  0  0  0  0  0  0  0  0
   -0.1458   20.5364  -17.7126 H   0  0  0  0  0  0  0  0  0  0  0  0
   -0.4776   22.0886  -17.3286 H   0  0  0  0  0  0  0  0  0  0  0  0
   -1.4470   21.9777  -14.2466 H   0  0  0  0  0  0  0  0  0  0  0  0
   -2.2554   22.8198  -15.3885 H   0  0  0  0  0  0  0  0  0  0  0  0
   -3.0513   21.7484  -14.4476 H   0  0  0  0  0  0  0  0  0  0  0  0
  1  2  2  0  0  0  0
  1  3  1  0  0  0  0
  1  4  1  0  0  0  0
  3  5  1  0  0  0  0
  3  6  1  0  0  0  0
  3  7  1  0  0  0  0
  4  8  1  0  0  0  0
  4  9  1  0  0  0  0
  4 10  1  0  0  0  0
M  END
$$$$
5N3I_BJQ_A_404
prProtoss 03132510073D 1   1.00000     0.00000     0
Protoss beta proteinsplus
 27 27  0  0  0  0            999 V2000
  -31.1560   23.0650   -3.4660 O   0  0  0  0  0  0  0  0  0  0  0  0
  -29.5120   23.1420   -1.9610 O   0  0  0  0  0  0  0  0  0  0  0  0
  -30.4830   25.4450   -4.5490 N   0  3  0  0  0  0  0  0  0  0  0  0
  -29.8560   21.8030   -1.5360 C   0  0  0  0  0  0  0  0  0  0  0  0
  -34.5110   26.5040   -1.7250 C   0  0  0  0  0  0  0  0  0  0  0  0
  -33.8880   25.4060   -1.1760 C   0  0  0  0  0  0  0  0  0  0  0  0
  -33.7650   27.4360   -2.4120 C   0  0  0  0  0  0  0  0  0  0  0  0
  -32.5180   25.2480   -1.2980 C   0  0  0  0  0  0  0  0  0  0  0  0
  -32.3930   27.2810   -2.5310 C   0  0  0  0  0  0  0  0  0  0  0  0
  -30.2570   26.0030   -2.1180 C   0  0  0  0  0  0  0  0  0  0  0  0
  -30.2630   23.6460   -2.9270 C   0  0  0  0  0  0  0  0  0  0  0  0
  -29.8410   25.0650   -3.2590 C   0  0  1  0  0  0  0  0  0  0  0  0
  -31.7490   26.1860   -1.9730 C   0  0  0  0  0  0  0  0  0  0  0  0
  -30.1891   24.8134   -5.2664 H   0  0  0  0  0  0  0  0  0  0  0  0
  -31.4773   25.4003   -4.4524 H   0  0  0  0  0  0  0  0  0  0  0  0
  -29.2345   21.5145   -0.8076 H   0  0  0  0  0  0  0  0  0  0  0  0
  -30.7962   21.7926   -1.1956 H   0  0  0  0  0  0  0  0  0  0  0  0
  -29.7751   21.1762   -2.3110 H   0  0  0  0  0  0  0  0  0  0  0  0
  -35.4988   26.6242   -1.6257 H   0  0  0  0  0  0  0  0  0  0  0  0
  -34.4270   24.7200   -0.6873 H   0  0  0  0  0  0  0  0  0  0  0  0
  -34.2149   28.2272   -2.8263 H   0  0  0  0  0  0  0  0  0  0  0  0
  -32.0762   24.4469   -0.8942 H   0  0  0  0  0  0  0  0  0  0  0  0
  -31.8600   27.9675   -3.0256 H   0  0  0  0  0  0  0  0  0  0  0  0
  -29.8467   26.8996   -2.2849 H   0  0  0  0  0  0  0  0  0  0  0  0
  -29.9031   25.6289   -1.2608 H   0  0  0  0  0  0  0  0  0  0  0  0
  -28.8471   25.0963   -3.3646 H   0  0  0  0  0  0  0  0  0  0  0  0
  -30.2134   26.3763   -4.7939 H   0  0  0  0  0  0  0  0  0  0  0  0
  1 11  2  0  0  0  0
  2  4  1  0  0  0  0
  2 11  1  0  0  0  0
  3 12  1  0  0  0  0
  5  6  2  0  0  0  0
  5  7  1  0  0  0  0
  6  8  1  0  0  0  0
  7  9  2  0  0  0  0
  8 13  2  0  0  0  0
  9 13  1  0  0  0  0
 10 12  1  0  0  0  0
 10 13  1  0  0  0  0
 11 12  1  0  0  0  0
  3 14  1  0  0  0  0
  3 15  1  0  0  0  0
  4 16  1  0  0  0  0
  4 17  1  0  0  0  0
  4 18  1  0  0  0  0
  5 19  1  0  0  0  0
  6 20  1  0  0  0  0
  7 21  1  0  0  0  0
  8 22  1  0  0  0  0
  9 23  1  0  0  0  0
 10 24  1  0  0  0  0
 10 25  1  0  0  0  0
 12 26  1  0  0  0  0
  3 27  1  0  0  0  0
M  CHG  1   3   1
M  END
$$$$
5BX6_495_A_401
prProtoss 03132510073D 1   1.00000     0.00000     0
Protoss beta proteinsplus
 17 18  0  0  0  0            999 V2000
    6.0800   10.0130    0.1430 Cl  0  0  0  0  0  0  0  0  0  0  0  0
    2.9670    9.9580    4.8990 O   0  0  0  0  0  0  0  0  0  0  0  0
    3.8320    9.9460    1.5480 N   0  0  0  0  0  0  0  0  0  0  0  0
    3.1110    9.9240    2.6230 N   0  0  0  0  0  0  0  0  0  0  0  0
    7.8810   10.1040    4.1180 C   0  0  0  0  0  0  0  0  0  0  0  0
    7.1320   10.0960    5.2900 C   0  0  0  0  0  0  0  0  0  0  0  0
    7.2350   10.0720    2.8830 C   0  0  0  0  0  0  0  0  0  0  0  0
    5.7320   10.0500    5.2290 C   0  0  0  0  0  0  0  0  0  0  0  0
    5.1780    9.9920    1.5960 C   0  0  0  0  0  0  0  0  0  0  0  0
    3.6900    9.9690    3.8960 C   0  0  0  0  0  0  0  0  0  0  0  0
    5.8390   10.0260    2.8210 C   0  0  0  0  0  0  0  0  0  0  0  0
    5.0860   10.0130    3.9940 C   0  0  0  0  0  0  0  0  0  0  0  0
    2.1156    9.8736    2.5416 H   0  0  0  0  0  0  0  0  0  0  0  0
    8.8797   10.1326    4.1611 H   0  0  0  0  0  0  0  0  0  0  0  0
    7.5926   10.1231    6.1772 H   0  0  0  0  0  0  0  0  0  0  0  0
    7.7716   10.0820    2.0392 H   0  0  0  0  0  0  0  0  0  0  0  0
    5.1957   10.0437    6.0730 H   0  0  0  0  0  0  0  0  0  0  0  0
  1  9  1  0  0  0  0
  2 10  2  0  0  0  0
  3  4  1  0  0  0  0
  3  9  2  0  0  0  0
  4 10  1  0  0  0  0
  5  6  2  0  0  0  0
  5  7  1  0  0  0  0
  6  8  1  0  0  0  0
  7 11  2  0  0  0  0
  8 12  2  0  0  0  0
  9 11  1  0  0  0  0
 10 12  1  0  0  0  0
 11 12  1  0  0  0  0
  4 13  1  0  0  0  0
  5 14  1  0  0  0  0
  6 15  1  0  0  0  0
  7 16  1  0  0  0  0
  8 17  1  0  0  0  0
M  END
$$$$
5BX6_MPD_A_402
prProtoss 03132510073D 1   1.00000     0.00000     0
Protoss beta proteinsplus
 22 21  0  0  0  0            999 V2000
   -2.5500   -9.5360   -9.5130 O   0  0  0  0  0  0  0  0  0  0  0  0
   -4.9180  -10.2210   -9.2660 O   0  0  0  0  0  0  0  0  0  0  0  0
   -1.9020   -7.2340   -9.5560 C   0  0  0  0  0  0  0  0  0  0  0  0
   -4.9690   -9.3170   -7.0220 C   0  0  0  0  0  0  0  0  0  0  0  0
   -6.6300   -8.6140   -8.7410 C   0  0  0  0  0  0  0  0  0  0  0  0
   -4.2490   -7.9000   -8.9640 C   0  0  0  0  0  0  0  0  0  0  0  0
   -2.7770   -8.2910   -8.8870 C   0  0  1  0  0  0  0  0  0  0  0  0
   -5.1820   -9.0190   -8.5020 C   0  0  0  0  0  0  0  0  0  0  0  0
   -3.3816  -10.0893   -9.4659 H   0  0  0  0  0  0  0  0  0  0  0  0
   -5.7406  -10.4824   -9.7710 H   0  0  0  0  0  0  0  0  0  0  0  0
   -2.0563   -6.3480   -9.1187 H   0  0  0  0  0  0  0  0  0  0  0  0
   -0.9398   -7.4893   -9.4615 H   0  0  0  0  0  0  0  0  0  0  0  0
   -2.1367   -7.1723  -10.5261 H   0  0  0  0  0  0  0  0  0  0  0  0
   -5.1492   -8.4919   -6.4865 H   0  0  0  0  0  0  0  0  0  0  0  0
   -5.5933  -10.0436   -6.7351 H   0  0  0  0  0  0  0  0  0  0  0  0
   -4.0248   -9.6110   -6.8737 H   0  0  0  0  0  0  0  0  0  0  0  0
   -6.8341   -7.7842   -8.2216 H   0  0  0  0  0  0  0  0  0  0  0  0
   -6.7710   -8.4403   -9.7156 H   0  0  0  0  0  0  0  0  0  0  0  0
   -7.2360   -9.3515   -8.4428 H   0  0  0  0  0  0  0  0  0  0  0  0
   -4.4698   -7.6704   -9.9119 H   0  0  0  0  0  0  0  0  0  0  0  0
   -4.3980   -7.0993   -8.3837 H   0  0  0  0  0  0  0  0  0  0  0  0
   -2.5141   -8.3630   -7.9249 H   0  0  0  0  0  0  0  0  0  0  0  0
  1  7  1  0  0  0  0
  2  8  1  0  0  0  0
  3  7  1  0  0  0  0
  4  8  1  0  0  0  0
  5  8  1  0  0  0  0
  6  7  1  0  0  0  0
  6  8  1  0  0  0  0
  1  9  1  0  0  0  0
  2 10  1  0  0  0  0
  3 11  1  0  0  0  0
  3 12  1  0  0  0  0
  3 13  1  0  0  0  0
  4 14  1  0  0  0  0
  4 15  1  0  0  0  0
  4 16  1  0  0  0  0
  5 17  1  0  0  0  0
  5 18  1  0  0  0  0
  5 19  1  0  0  0  0
  6 20  1  0  0  0  0
  6 21  1  0  0  0  0
  7 22  1  0  0  0  0
M  END
$$$$
5BX6_MPD_A_403
prProtoss 03132510073D 1   1.00000     0.00000     0
Protoss beta proteinsplus
 22 21  0  0  0  0            999 V2000
    9.8890    5.2900   16.9640 O   0  0  0  0  0  0  0  0  0  0  0  0
    7.8960    2.8550   16.2970 O   0  0  0  0  0  0  0  0  0  0  0  0
    9.1370    7.1210   15.6410 C   0  0  0  0  0  0  0  0  0  0  0  0
    7.8660    4.0260   18.4130 C   0  0  0  0  0  0  0  0  0  0  0  0
    5.7950    3.7780   17.0870 C   0  0  0  0  0  0  0  0  0  0  0  0
    7.5640    5.2730   16.2290 C   0  0  0  0  0  0  0  0  0  0  0  0
    8.7630    6.0930   16.7010 C   0  0  1  0  0  0  0  0  0  0  0  0
    7.3030    3.9810   17.0020 C   0  0  0  0  0  0  0  0  0  0  0  0
    9.6735    4.3357   16.7571 H   0  0  0  0  0  0  0  0  0  0  0  0
    7.5324    2.8155   15.3663 H   0  0  0  0  0  0  0  0  0  0  0  0
    8.3455    7.6995   15.4437 H   0  0  0  0  0  0  0  0  0  0  0  0
    9.8888    7.6882   15.9773 H   0  0  0  0  0  0  0  0  0  0  0  0
    9.4222    6.6503   14.8061 H   0  0  0  0  0  0  0  0  0  0  0  0
    7.4649    4.7971   18.9075 H   0  0  0  0  0  0  0  0  0  0  0  0
    7.6445    3.1741   18.8876 H   0  0  0  0  0  0  0  0  0  0  0  0
    8.8591    4.1364   18.3723 H   0  0  0  0  0  0  0  0  0  0  0  0
    5.3816    4.5493   17.5709 H   0  0  0  0  0  0  0  0  0  0  0  0
    5.4139    3.7204   16.1643 H   0  0  0  0  0  0  0  0  0  0  0  0
    5.6000    2.9310   17.5816 H   0  0  0  0  0  0  0  0  0  0  0  0
    7.7137    5.0329   15.2699 H   0  0  0  0  0  0  0  0  0  0  0  0
    6.7490    5.8474   16.3055 H   0  0  0  0  0  0  0  0  0  0  0  0
    8.5107    6.5753   17.5399 H   0  0  0  0  0  0  0  0  0  0  0  0
  1  7  1  0  0  0  0
  2  8  1  0  0  0  0
  3  7  1  0  0  0  0
  4  8  1  0  0  0  0
  5  8  1  0  0  0  0
  6  7  1  0  0  0  0
  6  8  1  0  0  0  0
  1  9  1  0  0  0  0
  2 10  1  0  0  0  0
  3 11  1  0  0  0  0
  3 12  1  0  0  0  0
  3 13  1  0  0  0  0
  4 14  1  0  0  0  0
  4 15  1  0  0  0  0
  4 16  1  0  0  0  0
  5 17  1  0  0  0  0
  5 18  1  0  0  0  0
  5 19  1  0  0  0  0
  6 20  1  0  0  0  0
  6 21  1  0  0  0  0
  7 22  1  0  0  0  0
M  END
$$$$
5BX6_MPD_A_404
prProtoss 03132510073D 1   1.00000     0.00000     0
Protoss beta proteinsplus
 22 21  0  0  0  0            999 V2000
    4.3770    0.5430   17.3280 O   0  0  0  0  0  0  0  0  0  0  0  0
    3.0650   -0.6810   18.8750 O   0  0  0  0  0  0  0  0  0  0  0  0
    6.7030    0.1050   17.0440 C   0  0  0  0  0  0  0  0  0  0  0  0
    2.9180   -2.2700   17.0950 C   0  0  0  0  0  0  0  0  0  0  0  0
    3.6150   -2.9590   19.4460 C   0  0  0  0  0  0  0  0  0  0  0  0
    5.1640   -1.6110   18.0690 C   0  0  0  0  0  0  0  0  0  0  0  0
    5.3030   -0.4860   17.0580 C   0  0  1  0  0  0  0  0  0  0  0  0
    3.6900   -1.8850   18.3620 C   0  0  0  0  0  0  0  0  0  0  0  0
    3.5867    0.1626   17.8084 H   0  0  0  0  0  0  0  0  0  0  0  0
    2.1049   -0.8669   19.0841 H   0  0  0  0  0  0  0  0  0  0  0  0
    7.3678   -0.6172   16.8532 H   0  0  0  0  0  0  0  0  0  0  0  0
    6.7612    0.8075   16.3347 H   0  0  0  0  0  0  0  0  0  0  0  0
    6.9012    0.5136   17.9349 H   0  0  0  0  0  0  0  0  0  0  0  0
    3.3144   -3.0999   16.7024 H   0  0  0  0  0  0  0  0  0  0  0  0
    1.9593   -2.4357   17.3262 H   0  0  0  0  0  0  0  0  0  0  0  0
    2.9766   -1.5256   16.4298 H   0  0  0  0  0  0  0  0  0  0  0  0
    4.0414   -3.7997   19.1123 H   0  0  0  0  0  0  0  0  0  0  0  0
    4.0970   -2.6423   20.2629 H   0  0  0  0  0  0  0  0  0  0  0  0
    2.6575   -3.1379   19.6723 H   0  0  0  0  0  0  0  0  0  0  0  0
    5.6256   -1.3507   18.9170 H   0  0  0  0  0  0  0  0  0  0  0  0
    5.5861   -2.4392   17.7004 H   0  0  0  0  0  0  0  0  0  0  0  0
    5.1079   -0.8542   16.1489 H   0  0  0  0  0  0  0  0  0  0  0  0
  1  7  1  0  0  0  0
  2  8  1  0  0  0  0
  3  7  1  0  0  0  0
  4  8  1  0  0  0  0
  5  8  1  0  0  0  0
  6  7  1  0  0  0  0
  6  8  1  0  0  0  0
  1  9  1  0  0  0  0
  2 10  1  0  0  0  0
  3 11  1  0  0  0  0
  3 12  1  0  0  0  0
  3 13  1  0  0  0  0
  4 14  1  0  0  0  0
  4 15  1  0  0  0  0
  4 16  1  0  0  0  0
  5 17  1  0  0  0  0
  5 18  1  0  0  0  0
  5 19  1  0  0  0  0
  6 20  1  0  0  0  0
  6 21  1  0  0  0  0
  7 22  1  0  0  0  0
M  END
$$$$
6Y89_OGB_A_401
prProtoss 08182322593D 1   1.00000     0.00000     0
Protoss beta proteinsplus
 23 24  0  0  0  0            999 V2000
   14.3670  -26.7400  -20.8140 O   0  0  0  0  0  0  0  0  0  0  0  0
   13.6630  -27.8310  -18.9980 O   0  0  0  0  0  0  0  0  0  0  0  0
   17.0630  -27.1180  -15.1830 N   0  0  0  0  0  0  0  0  0  0  0  0
   13.0710  -28.8320  -19.8590 C   0  0  0  0  0  0  0  0  0  0  0  0
   16.5830  -28.0190  -16.0500 C   0  0  0  0  0  0  0  0  0  0  0  0
   16.8510  -25.8390  -15.4500 C   0  0  0  0  0  0  0  0  0  0  0  0
   15.2500  -23.6080  -17.9710 C   0  0  0  0  0  0  0  0  0  0  0  0
   15.8940  -27.7020  -17.1810 C   0  0  0  0  0  0  0  0  0  0  0  0
   15.9420  -23.9970  -16.8600 C   0  0  0  0  0  0  0  0  0  0  0  0
   14.7400  -24.5460  -18.8550 C   0  0  0  0  0  0  0  0  0  0  0  0
   14.3040  -26.8410  -19.6140 C   0  0  0  0  0  0  0  0  0  0  0  0
   16.1560  -25.3700  -16.5880 C   0  0  0  0  0  0  0  0  0  0  0  0
   14.9190  -25.8940  -18.6370 C   0  0  0  0  0  0  0  0  0  0  0  0
   15.6480  -26.3410  -17.4890 C   0  0  0  0  0  0  0  0  0  0  0  0
   12.6169  -29.5259  -19.3002 H   0  0  0  0  0  0  0  0  0  0  0  0
   12.4011  -28.3989  -20.4621 H   0  0  0  0  0  0  0  0  0  0  0  0
   13.7859  -29.2629  -20.4097 H   0  0  0  0  0  0  0  0  0  0  0  0
   16.7408  -28.9869  -15.8542 H   0  0  0  0  0  0  0  0  0  0  0  0
   17.2051  -25.1613  -14.8055 H   0  0  0  0  0  0  0  0  0  0  0  0
   15.1094  -22.6341  -18.1492 H   0  0  0  0  0  0  0  0  0  0  0  0
   15.5643  -28.4240  -17.7893 H   0  0  0  0  0  0  0  0  0  0  0  0
   16.3009  -23.3059  -16.2327 H   0  0  0  0  0  0  0  0  0  0  0  0
   14.2352  -24.2397  -19.6621 H   0  0  0  0  0  0  0  0  0  0  0  0
  1 11  2  0  0  0  0
  2  4  1  0  0  0  0
  2 11  1  0  0  0  0
  3  5  2  0  0  0  0
  3  6  1  0  0  0  0
  5  8  1  0  0  0  0
  6 12  2  0  0  0  0
  7  9  2  0  0  0  0
  7 10  1  0  0  0  0
  8 14  2  0  0  0  0
  9 12  1  0  0  0  0
 10 13  2  0  0  0  0
 11 13  1  0  0  0  0
 12 14  1  0  0  0  0
 13 14  1  0  0  0  0
  4 15  1  0  0  0  0
  4 16  1  0  0  0  0
  4 17  1  0  0  0  0
  5 18  1  0  0  0  0
  6 19  1  0  0  0  0
  7 20  1  0  0  0  0
  8 21  1  0  0  0  0
  9 22  1  0  0  0  0
 10 23  1  0  0  0  0
M  END
$$$$
6Y89_MRD_A_402
prProtoss 08182322593D 1   1.00000     0.00000     0
Protoss beta proteinsplus
 22 21  0  0  0  0            999 V2000
    8.8640    0.2620  -31.1060 O   0  0  0  0  0  0  0  0  0  0  0  0
    8.3990   -3.9740  -29.9440 O   0  0  0  0  0  0  0  0  0  0  0  0
    6.7090    0.6130  -30.0940 C   0  0  0  0  0  0  0  0  0  0  0  0
   10.0330   -2.3670  -29.2680 C   0  0  0  0  0  0  0  0  0  0  0  0
    9.3540   -2.6330  -31.6660 C   0  0  0  0  0  0  0  0  0  0  0  0
    7.7430   -1.6260  -29.9140 C   0  0  0  0  0  0  0  0  0  0  0  0
    7.6140   -0.3710  -30.8030 C   0  0  2  0  0  0  0  0  0  0  0  0
    8.8770   -2.6440  -30.2190 C   0  0  0  0  0  0  0  0  0  0  0  0
    9.4990    0.1270  -30.3454 H   0  0  0  0  0  0  0  0  0  0  0  0
    8.9403   -4.3768  -29.2059 H   0  0  0  0  0  0  0  0  0  0  0  0
    5.8370    0.1714  -29.8827 H   0  0  0  0  0  0  0  0  0  0  0  0
    7.1442    0.9146  -29.2457 H   0  0  0  0  0  0  0  0  0  0  0  0
    6.5478    1.4033  -30.6852 H   0  0  0  0  0  0  0  0  0  0  0  0
   10.3885   -1.4472  -29.4344 H   0  0  0  0  0  0  0  0  0  0  0  0
    9.7111   -2.4342  -28.3236 H   0  0  0  0  0  0  0  0  0  0  0  0
   10.7588   -3.0376  -29.4213 H   0  0  0  0  0  0  0  0  0  0  0  0
    9.6955   -1.7221  -31.8975 H   0  0  0  0  0  0  0  0  0  0  0  0
   10.0875   -3.3030  -31.7803 H   0  0  0  0  0  0  0  0  0  0  0  0
    8.5920   -2.8667  -32.2699 H   0  0  0  0  0  0  0  0  0  0  0  0
    6.8771   -2.1222  -29.9780 H   0  0  0  0  0  0  0  0  0  0  0  0
    7.8769   -1.3090  -28.9751 H   0  0  0  0  0  0  0  0  0  0  0  0
    7.1785   -0.6370  -31.6630 H   0  0  0  0  0  0  0  0  0  0  0  0
  1  7  1  0  0  0  0
  2  8  1  0  0  0  0
  3  7  1  0  0  0  0
  4  8  1  0  0  0  0
  5  8  1  0  0  0  0
  6  7  1  0  0  0  0
  6  8  1  0  0  0  0
  1  9  1  0  0  0  0
  2 10  1  0  0  0  0
  3 11  1  0  0  0  0
  3 12  1  0  0  0  0
  3 13  1  0  0  0  0
  4 14  1  0  0  0  0
  4 15  1  0  0  0  0
  4 16  1  0  0  0  0
  5 17  1  0  0  0  0
  5 18  1  0  0  0  0
  5 19  1  0  0  0  0
  6 20  1  0  0  0  0
  6 21  1  0  0  0  0
  7 22  1  0  0  0  0
M  END
$$$$
6Y89_MRD_A_403
prProtoss 08182322593D 1   1.00000     0.00000     0
Protoss beta proteinsplus
 22 21  0  0  0  0            999 V2000
    4.2370  -12.2070    0.8240 O   0  0  0  0  0  0  0  0  0  0  0  0
    4.5600  -13.4420    3.2380 O   0  0  0  0  0  0  0  0  0  0  0  0
    5.6320  -12.8880   -1.0200 C   0  0  0  0  0  0  0  0  0  0  0  0
    6.8100  -12.6170    3.1540 C   0  0  0  0  0  0  0  0  0  0  0  0
    6.3060  -15.0480    3.4590 C   0  0  0  0  0  0  0  0  0  0  0  0
    5.9100  -13.9360    1.2400 C   0  0  0  0  0  0  0  0  0  0  0  0
    5.5540  -12.6460    0.4720 C   0  0  2  0  0  0  0  0  0  0  0  0
    5.8850  -13.7640    2.7700 C   0  0  0  0  0  0  0  0  0  0  0  0
    4.0243  -12.5040    1.7549 H   0  0  0  0  0  0  0  0  0  0  0  0
    4.6251  -12.8745    4.0588 H   0  0  0  0  0  0  0  0  0  0  0  0
    6.5531  -13.1942   -1.2603 H   0  0  0  0  0  0  0  0  0  0  0  0
    4.9691  -13.5905   -1.2788 H   0  0  0  0  0  0  0  0  0  0  0  0
    5.4253  -12.0392   -1.5066 H   0  0  0  0  0  0  0  0  0  0  0  0
    7.7378  -12.8174    2.8393 H   0  0  0  0  0  0  0  0  0  0  0  0
    6.4883  -11.7720    2.7268 H   0  0  0  0  0  0  0  0  0  0  0  0
    6.8114  -12.5084    4.1481 H   0  0  0  0  0  0  0  0  0  0  0  0
    7.2246  -15.3027    3.1569 H   0  0  0  0  0  0  0  0  0  0  0  0
    6.3072  -14.9099    4.4494 H   0  0  0  0  0  0  0  0  0  0  0  0
    5.6638  -15.7779    3.2250 H   0  0  0  0  0  0  0  0  0  0  0  0
    6.8285  -14.2233    0.9684 H   0  0  0  0  0  0  0  0  0  0  0  0
    5.2512  -14.6456    0.9901 H   0  0  0  0  0  0  0  0  0  0  0  0
    6.2093  -11.9319    0.7183 H   0  0  0  0  0  0  0  0  0  0  0  0
  1  7  1  0  0  0  0
  2  8  1  0  0  0  0
  3  7  1  0  0  0  0
  4  8  1  0  0  0  0
  5  8  1  0  0  0  0
  6  7  1  0  0  0  0
  6  8  1  0  0  0  0
  1  9  1  0  0  0  0
  2 10  1  0  0  0  0
  3 11  1  0  0  0  0
  3 12  1  0  0  0  0
  3 13  1  0  0  0  0
  4 14  1  0  0  0  0
  4 15  1  0  0  0  0
  4 16  1  0  0  0  0
  5 17  1  0  0  0  0
  5 18  1  0  0  0  0
  5 19  1  0  0  0  0
  6 20  1  0  0  0  0
  6 21  1  0  0  0  0
  7 22  1  0  0  0  0
M  END
$$$$
6Y89_MOH_A_404
prProtoss 08182322593D 1   1.00000     0.00000     0
Protoss beta proteinsplus
  6  5  0  0  0  0            999 V2000
    0.0530  -26.4450    1.3230 O   0  0  0  0  0  0  0  0  0  0  0  0
    0.9870  -27.3640    1.8210 C   0  0  0  0  0  0  0  0  0  0  0  0
    0.5229  -25.7619    0.7639 H   0  0  0  0  0  0  0  0  0  0  0  0
    1.4479  -27.8175    1.0581 H   0  0  0  0  0  0  0  0  0  0  0  0
    1.6624  -26.8831    2.3801 H   0  0  0  0  0  0  0  0  0  0  0  0
    0.5171  -28.0471    2.3801 H   0  0  0  0  0  0  0  0  0  0  0  0
  1  2  1  0  0  0  0
  1  3  1  0  0  0  0
  2  4  1  0  0  0  0
  2  5  1  0  0  0  0
  2  6  1  0  0  0  0
M  END
$$$$
6Y89_MOH_A_405
prProtoss 08182322593D 1   1.00000     0.00000     0
Protoss beta proteinsplus
  6  5  0  0  0  0            999 V2000
   31.1890  -29.3510  -25.2790 O   0  0  0  0  0  0  0  0  0  0  0  0
   32.1010  -30.3500  -24.9150 C   0  0  0  0  0  0  0  0  0  0  0  0
   31.6683  -28.4776  -25.3656 H   0  0  0  0  0  0  0  0  0  0  0  0
   32.1528  -30.4068  -23.9180 H   0  0  0  0  0  0  0  0  0  0  0  0
   31.7976  -31.2287  -25.2836 H   0  0  0  0  0  0  0  0  0  0  0  0
   33.0036  -30.1277  -25.2836 H   0  0  0  0  0  0  0  0  0  0  0  0
  1  2  1  0  0  0  0
  1  3  1  0  0  0  0
  2  4  1  0  0  0  0
  2  5  1  0  0  0  0
  2  6  1  0  0  0  0
M  END
$$$$
6Y89_MPD_A_406
prProtoss 08182322593D 1   1.00000     0.00000     0
Protoss beta proteinsplus
 22 21  0  0  0  0            999 V2000
    8.8690  -38.9710  -18.4890 O   0  0  0  0  0  0  0  0  0  0  0  0
    8.9660  -40.7070  -16.2970 O   0  0  0  0  0  0  0  0  0  0  0  0
   11.1620  -38.4430  -18.8210 C   0  0  0  0  0  0  0  0  0  0  0  0
   10.0620  -39.8280  -14.3430 C   0  0  0  0  0  0  0  0  0  0  0  0
    7.9910  -38.7580  -15.2890 C   0  0  0  0  0  0  0  0  0  0  0  0
   10.1490  -38.6070  -16.5260 C   0  0  0  0  0  0  0  0  0  0  0  0
   10.1510  -39.1620  -17.9410 C   0  0  1  0  0  0  0  0  0  0  0  0
    9.2950  -39.4730  -15.6110 C   0  0  0  0  0  0  0  0  0  0  0  0
    8.8371  -38.0915  -18.9639 H   0  0  0  0  0  0  0  0  0  0  0  0
    8.4610  -40.4984  -17.1345 H   0  0  0  0  0  0  0  0  0  0  0  0
   12.0801  -38.5688  -18.4451 H   0  0  0  0  0  0  0  0  0  0  0  0
   11.1261  -38.8201  -19.7465 H   0  0  0  0  0  0  0  0  0  0  0  0
   10.9445  -37.4674  -18.8499 H   0  0  0  0  0  0  0  0  0  0  0  0
   10.3003  -38.9901  -13.8519 H   0  0  0  0  0  0  0  0  0  0  0  0
    9.4917  -40.4058  -13.7592 H   0  0  0  0  0  0  0  0  0  0  0  0
   10.8974  -40.3211  -14.5858 H   0  0  0  0  0  0  0  0  0  0  0  0
    8.1894  -37.9007  -14.8139 H   0  0  0  0  0  0  0  0  0  0  0  0
    7.4995  -38.5628  -16.1377 H   0  0  0  0  0  0  0  0  0  0  0  0
    7.4271  -39.3406  -14.7037 H   0  0  0  0  0  0  0  0  0  0  0  0
    9.7793  -37.6779  -16.5381 H   0  0  0  0  0  0  0  0  0  0  0  0
   11.0868  -38.5881  -16.1792 H   0  0  0  0  0  0  0  0  0  0  0  0
   10.3628  -40.1390  -17.9172 H   0  0  0  0  0  0  0  0  0  0  0  0
  1  7  1  0  0  0  0
  2  8  1  0  0  0  0
  3  7  1  0  0  0  0
  4  8  1  0  0  0  0
  5  8  1  0  0  0  0
  6  7  1  0  0  0  0
  6  8  1  0  0  0  0
  1  9  1  0  0  0  0
  2 10  1  0  0  0  0
  3 11  1  0  0  0  0
  3 12  1  0  0  0  0
  3 13  1  0  0  0  0
  4 14  1  0  0  0  0
  4 15  1  0  0  0  0
  4 16  1  0  0  0  0
  5 17  1  0  0  0  0
  5 18  1  0  0  0  0
  5 19  1  0  0  0  0
  6 20  1  0  0  0  0
  6 21  1  0  0  0  0
  7 22  1  0  0  0  0
M  END
$$$$
6SPS_DMS_A_401
prProtoss 03132510073D 1   1.00000     0.00000     0
Protoss beta proteinsplus
 10  9  0  0  0  0            999 V2000
   23.7360   20.5560   32.6910 S   0  0  0  0  0  0  0  0  0  0  0  0
   22.7870   20.7730   31.5560 O   0  0  0  0  0  0  0  0  0  0  0  0
   25.4410   20.8300   32.1410 C   0  0  0  0  0  0  0  0  0  0  0  0
   23.5460   21.8850   33.9100 C   0  0  0  0  0  0  0  0  0  0  0  0
   26.0663   20.6823   32.9073 H   0  0  0  0  0  0  0  0  0  0  0  0
   25.6603   20.1908   31.4039 H   0  0  0  0  0  0  0  0  0  0  0  0
   25.5372   21.7681   31.8083 H   0  0  0  0  0  0  0  0  0  0  0  0
   24.1821   21.7363   34.6671 H   0  0  0  0  0  0  0  0  0  0  0  0
   23.7427   22.7648   33.4773 H   0  0  0  0  0  0  0  0  0  0  0  0
   22.6084   21.8868   34.2578 H   0  0  0  0  0  0  0  0  0  0  0  0
  1  2  2  0  0  0  0
  1  3  1  0  0  0  0
  1  4  1  0  0  0  0
  3  5  1  0  0  0  0
  3  6  1  0  0  0  0
  3  7  1  0  0  0  0
  4  8  1  0  0  0  0
  4  9  1  0  0  0  0
  4 10  1  0  0  0  0
M  END
$$$$
6SPS_MPD_A_402
prProtoss 03132510073D 1   1.00000     0.00000     0
Protoss beta proteinsplus
 22 21  0  0  0  0            999 V2000
   16.5430   17.9880   37.1550 O   0  0  0  0  0  0  0  0  0  0  0  0
   18.8280   18.3140   40.9360 O   0  0  0  0  0  0  0  0  0  0  0  0
   16.9730   19.5170   38.9160 C   0  0  0  0  0  0  0  0  0  0  0  0
   19.8180   16.2480   40.3140 C   0  0  0  0  0  0  0  0  0  0  0  0
   20.3260   18.3380   39.0360 C   0  0  0  0  0  0  0  0  0  0  0  0
   18.0710   17.2410   38.8610 C   0  0  0  0  0  0  0  0  0  0  0  0
   17.5580   18.4210   38.0430 C   0  0  1  0  0  0  0  0  0  0  0  0
   19.2530   17.5540   39.7750 C   0  0  0  0  0  0  0  0  0  0  0  0
   16.9019   17.2638   36.5662 H   0  0  0  0  0  0  0  0  0  0  0  0
   19.6136   18.4787   41.5325 H   0  0  0  0  0  0  0  0  0  0  0  0
   17.6703   19.8423   39.5547 H   0  0  0  0  0  0  0  0  0  0  0  0
   16.6690   20.2756   38.3397 H   0  0  0  0  0  0  0  0  0  0  0  0
   16.1944   19.1550   39.4286 H   0  0  0  0  0  0  0  0  0  0  0  0
   20.1289   15.6797   39.5522 H   0  0  0  0  0  0  0  0  0  0  0  0
   20.5888   16.4434   40.9203 H   0  0  0  0  0  0  0  0  0  0  0  0
   19.1076   15.7627   40.8237 H   0  0  0  0  0  0  0  0  0  0  0  0
   20.6242   17.8204   38.2340 H   0  0  0  0  0  0  0  0  0  0  0  0
   19.9538   19.2192   38.7445 H   0  0  0  0  0  0  0  0  0  0  0  0
   21.1057   18.4900   39.6435 H   0  0  0  0  0  0  0  0  0  0  0  0
   18.3523   16.5220   38.2254 H   0  0  0  0  0  0  0  0  0  0  0  0
   17.3190   16.9076   39.4297 H   0  0  0  0  0  0  0  0  0  0  0  0
   18.3149   18.7999   37.5104 H   0  0  0  0  0  0  0  0  0  0  0  0
  1  7  1  0  0  0  0
  2  8  1  0  0  0  0
  3  7  1  0  0  0  0
  4  8  1  0  0  0  0
  5  8  1  0  0  0  0
  6  7  1  0  0  0  0
  6  8  1  0  0  0  0
  1  9  1  0  0  0  0
  2 10  1  0  0  0  0
  3 11  1  0  0  0  0
  3 12  1  0  0  0  0
  3 13  1  0  0  0  0
  4 14  1  0  0  0  0
  4 15  1  0  0  0  0
  4 16  1  0  0  0  0
  5 17  1  0  0  0  0
  5 18  1  0  0  0  0
  5 19  1  0  0  0  0
  6 20  1  0  0  0  0
  6 21  1  0  0  0  0
  7 22  1  0  0  0  0
M  END
$$$$
6SPS_LR5_A_403
prProtoss 03132510073D 1   1.00000     0.00000     0
Protoss beta proteinsplus
 19 19  0  0  0  0            999 V2000
    9.6810    2.5970   18.4400 F   0  0  0  0  0  0  0  0  0  0  0  0
   10.1200    0.6710   19.2050 F   0  0  0  0  0  0  0  0  0  0  0  0
   10.5940    1.1400   17.2060 F   0  0  0  0  0  0  0  0  0  0  0  0
   16.6580    2.4260   20.4380 O   0  0  0  0  0  0  0  0  0  0  0  0
   16.1430    4.6160   20.2550 N   0  0  0  0  0  0  0  0  0  0  0  0
   13.4630    3.8670   19.4560 C   0  0  0  0  0  0  0  0  0  0  0  0
   14.2000    1.5930   19.5190 C   0  0  0  0  0  0  0  0  0  0  0  0
   12.2100    3.4490   19.0410 C   0  0  0  0  0  0  0  0  0  0  0  0
   12.9490    1.1780   19.1060 C   0  0  0  0  0  0  0  0  0  0  0  0
   15.8480    3.3190   20.1660 C   0  0  0  0  0  0  0  0  0  0  0  0
   14.4740    2.9400   19.7000 C   0  0  0  0  0  0  0  0  0  0  0  0
   11.9370    2.0980   18.8650 C   0  0  0  0  0  0  0  0  0  0  0  0
   10.5850    1.6320   18.4330 C   0  0  0  0  0  0  0  0  0  0  0  0
   15.4536    5.3026   20.0240 H   0  0  0  0  0  0  0  0  0  0  0  0
   17.0537    4.9024   20.5528 H   0  0  0  0  0  0  0  0  0  0  0  0
   13.6438    4.8425   19.5817 H   0  0  0  0  0  0  0  0  0  0  0  0
   14.9152    0.9151   19.6892 H   0  0  0  0  0  0  0  0  0  0  0  0
   11.4948    4.1257   18.8663 H   0  0  0  0  0  0  0  0  0  0  0  0
   12.7697    0.2025   18.9789 H   0  0  0  0  0  0  0  0  0  0  0  0
  1 13  1  0  0  0  0
  2 13  1  0  0  0  0
  3 13  1  0  0  0  0
  4 10  2  0  0  0  0
  5 10  1  0  0  0  0
  6  8  1  0  0  0  0
  6 11  2  0  0  0  0
  7  9  2  0  0  0  0
  7 11  1  0  0  0  0
  8 12  2  0  0  0  0
  9 12  1  0  0  0  0
 10 11  1  0  0  0  0
 12 13  1  0  0  0  0
  5 14  1  0  0  0  0
  5 15  1  0  0  0  0
  6 16  1  0  0  0  0
  7 17  1  0  0  0  0
  8 18  1  0  0  0  0
  9 19  1  0  0  0  0
M  END
$$$$
5N3D_8NE_A_401
prProtoss 03132510083D 1   1.00000     0.00000     0
Protoss beta proteinsplus
 20 20  0  0  0  0            999 V2000
  -11.7020   25.4200  -27.7600 F   0  0  0  0  0  0  0  0  0  0  0  0
  -12.0140   27.5000  -27.5640 F   0  0  0  0  0  0  0  0  0  0  0  0
  -10.8820   26.4770  -26.0840 F   0  0  0  0  0  0  0  0  0  0  0  0
  -16.5880   24.3220  -22.8150 N   0  0  0  0  0  0  0  0  0  0  0  0
  -16.9600   26.5590  -22.7810 N   0  0  0  0  0  0  0  0  0  0  0  0
  -15.0690   26.9850  -24.8370 C   0  0  0  0  0  0  0  0  0  0  0  0
  -14.6170   24.6360  -24.8420 C   0  0  0  0  0  0  0  0  0  0  0  0
  -14.0040   27.1900  -25.6930 C   0  0  0  0  0  0  0  0  0  0  0  0
  -13.5500   24.8470  -25.6940 C   0  0  0  0  0  0  0  0  0  0  0  0
  -16.3540   25.5190  -23.2940 C   0  0  0  0  0  0  0  0  0  0  0  0
  -15.3700   25.7080  -24.3740 C   0  0  0  0  0  0  0  0  0  0  0  0
  -13.2120   26.1290  -26.1080 C   0  0  0  0  0  0  0  0  0  0  0  0
  -11.9610   26.3780  -26.8790 C   0  0  0  0  0  0  0  0  0  0  0  0
  -16.1248   23.5272  -23.2071 H   0  0  0  0  0  0  0  0  0  0  0  0
  -17.2298   24.2033  -22.0573 H   0  0  0  0  0  0  0  0  0  0  0  0
  -15.6286   27.7616  -24.5476 H   0  0  0  0  0  0  0  0  0  0  0  0
  -14.8498   23.7054  -24.5595 H   0  0  0  0  0  0  0  0  0  0  0  0
  -13.8016   28.1140  -26.0173 H   0  0  0  0  0  0  0  0  0  0  0  0
  -13.0142   24.0667  -26.0167 H   0  0  0  0  0  0  0  0  0  0  0  0
  -16.7814   27.4725  -23.1466 H   0  0  0  0  0  0  0  0  0  0  0  0
  1 13  1  0  0  0  0
  2 13  1  0  0  0  0
  3 13  1  0  0  0  0
  4 10  1  0  0  0  0
  5 10  2  0  0  0  0
  6  8  1  0  0  0  0
  6 11  2  0  0  0  0
  7  9  2  0  0  0  0
  7 11  1  0  0  0  0
  8 12  2  0  0  0  0
  9 12  1  0  0  0  0
 10 11  1  0  0  0  0
 12 13  1  0  0  0  0
  4 14  1  0  0  0  0
  4 15  1  0  0  0  0
  5 20  1  0  0  0  0
  6 16  1  0  0  0  0
  7 17  1  0  0  0  0
  8 18  1  0  0  0  0
  9 19  1  0  0  0  0
M  END
$$$$
5N3D_MPD_A_402
prProtoss 03132510083D 1   1.00000     0.00000     0
Protoss beta proteinsplus
 22 21  0  0  0  0            999 V2000
   -8.2340   12.0960   -4.4930 O   0  0  0  0  0  0  0  0  0  0  0  0
   -9.2860   13.1870   -2.2700 O   0  0  0  0  0  0  0  0  0  0  0  0
   -8.6560   13.1450   -6.6020 C   0  0  0  0  0  0  0  0  0  0  0  0
   -9.4890   15.4810   -2.8900 C   0  0  0  0  0  0  0  0  0  0  0  0
  -11.5280   14.0330   -2.5120 C   0  0  0  0  0  0  0  0  0  0  0  0
  -10.0990   13.6240   -4.5300 C   0  0  0  0  0  0  0  0  0  0  0  0
   -8.6990   13.2900   -5.0720 C   0  0  1  0  0  0  0  0  0  0  0  0
  -10.1000   14.0900   -3.0640 C   0  0  0  0  0  0  0  0  0  0  0  0
   -7.2953   11.9242   -4.7917 H   0  0  0  0  0  0  0  0  0  0  0  0
   -8.8891   12.4869   -2.8635 H   0  0  0  0  0  0  0  0  0  0  0  0
   -8.9847   13.9888   -7.0262 H   0  0  0  0  0  0  0  0  0  0  0  0
   -7.7158   12.9695   -6.8939 H   0  0  0  0  0  0  0  0  0  0  0  0
   -9.2395   12.3823   -6.8811 H   0  0  0  0  0  0  0  0  0  0  0  0
  -10.0159   16.1452   -3.4202 H   0  0  0  0  0  0  0  0  0  0  0  0
   -9.5089   15.7352   -1.9231 H   0  0  0  0  0  0  0  0  0  0  0  0
   -8.5426   15.4721   -3.2129 H   0  0  0  0  0  0  0  0  0  0  0  0
  -12.1144   14.6468   -3.0405 H   0  0  0  0  0  0  0  0  0  0  0  0
  -11.8753   13.0979   -2.5820 H   0  0  0  0  0  0  0  0  0  0  0  0
  -11.5263   14.3171   -1.5532 H   0  0  0  0  0  0  0  0  0  0  0  0
  -10.6687   12.8052   -4.6013 H   0  0  0  0  0  0  0  0  0  0  0  0
  -10.4900   14.3522   -5.0929 H   0  0  0  0  0  0  0  0  0  0  0  0
   -8.0773   14.0281   -4.8098 H   0  0  0  0  0  0  0  0  0  0  0  0
  1  7  1  0  0  0  0
  2  8  1  0  0  0  0
  3  7  1  0  0  0  0
  4  8  1  0  0  0  0
  5  8  1  0  0  0  0
  6  7  1  0  0  0  0
  6  8  1  0  0  0  0
  1  9  1  0  0  0  0
  2 10  1  0  0  0  0
  3 11  1  0  0  0  0
  3 12  1  0  0  0  0
  3 13  1  0  0  0  0
  4 14  1  0  0  0  0
  4 15  1  0  0  0  0
  4 16  1  0  0  0  0
  5 17  1  0  0  0  0
  5 18  1  0  0  0  0
  5 19  1  0  0  0  0
  6 20  1  0  0  0  0
  6 21  1  0  0  0  0
  7 22  1  0  0  0  0
M  END
$$$$
6SPM_3AE_A_401
prProtoss 03132510083D 1   1.00000     0.00000     0
Protoss beta proteinsplus
 18 18  0  0  0  0            999 V2000
   10.4390    1.4480   17.3110 F   0  0  0  0  0  0  0  0  0  0  0  0
    9.8810    1.2420   19.3160 F   0  0  0  0  0  0  0  0  0  0  0  0
    9.6850    3.1330   18.3640 F   0  0  0  0  0  0  0  0  0  0  0  0
   16.1740    4.5510   20.1820 O   0  0  0  0  0  0  0  0  0  0  0  0
   16.6100    2.3840   20.4710 O   0  0  0  0  0  0  0  0  0  0  0  0
   14.0730    1.6730   19.5390 C   0  0  0  0  0  0  0  0  0  0  0  0
   13.5410    4.0100   19.5250 C   0  0  0  0  0  0  0  0  0  0  0  0
   12.7850    1.3800   19.1330 C   0  0  0  0  0  0  0  0  0  0  0  0
   12.2500    3.7110   19.1280 C   0  0  0  0  0  0  0  0  0  0  0  0
   15.8640    3.2840   20.1300 C   0  0  0  0  0  0  0  0  0  0  0  0
   14.4720    2.9910   19.7190 C   0  0  0  0  0  0  0  0  0  0  0  0
   11.8590    2.3930   18.9140 C   0  0  0  0  0  0  0  0  0  0  0  0
   10.4730    2.0610   18.4800 C   0  0  0  0  0  0  0  0  0  0  0  0
   14.7224    0.9307   19.7044 H   0  0  0  0  0  0  0  0  0  0  0  0
   13.8077    4.9623   19.6736 H   0  0  0  0  0  0  0  0  0  0  0  0
   12.5158    0.4269   18.9950 H   0  0  0  0  0  0  0  0  0  0  0  0
   11.5904    4.4504   18.9933 H   0  0  0  0  0  0  0  0  0  0  0  0
   17.0728    4.8325   20.5182 H   0  0  0  0  0  0  0  0  0  0  0  0
  1 13  1  0  0  0  0
  2 13  1  0  0  0  0
  3 13  1  0  0  0  0
  4 10  1  0  0  0  0
  5 10  2  0  0  0  0
  6  8  1  0  0  0  0
  6 11  2  0  0  0  0
  7  9  2  0  0  0  0
  7 11  1  0  0  0  0
  8 12  2  0  0  0  0
  9 12  1  0  0  0  0
 10 11  1  0  0  0  0
 12 13  1  0  0  0  0
  9 17  1  0  0  0  0
  6 14  1  0  0  0  0
  7 15  1  0  0  0  0
  8 16  1  0  0  0  0
  4 18  1  0  0  0  0
M  END
$$$$
6SPM_MOH_A_402
prProtoss 03132510083D 1   1.00000     0.00000     0
Protoss beta proteinsplus
  6  5  0  0  0  0            999 V2000
   24.3500   10.8710   34.8580 O   0  0  0  0  0  0  0  0  0  0  0  0
   24.8880   12.0710   35.3370 C   0  0  0  0  0  0  0  0  0  0  0  0
   23.6774   10.5231   35.5111 H   0  0  0  0  0  0  0  0  0  0  0  0
   24.8841   12.0624   36.3370 H   0  0  0  0  0  0  0  0  0  0  0  0
   25.8272   12.1700   35.0081 H   0  0  0  0  0  0  0  0  0  0  0  0
   24.3371   12.8380   35.0081 H   0  0  0  0  0  0  0  0  0  0  0  0
  1  2  1  0  0  0  0
  1  3  1  0  0  0  0
  2  4  1  0  0  0  0
  2  5  1  0  0  0  0
  2  6  1  0  0  0  0
M  END
$$$$
6SPM_DMS_A_403
prProtoss 03132510083D 1   1.00000     0.00000     0
Protoss beta proteinsplus
 10  9  0  0  0  0            999 V2000
   26.7820   15.3520    5.9290 S   0  0  0  0  0  0  0  0  0  0  0  0
   27.2150   13.9210    5.9980 O   0  0  0  0  0  0  0  0  0  0  0  0
   28.1770   16.3400    5.3230 C   0  0  0  0  0  0  0  0  0  0  0  0
   25.6480   15.5570    4.5290 C   0  0  0  0  0  0  0  0  0  0  0  0
   27.9065   17.3013    5.2699 H   0  0  0  0  0  0  0  0  0  0  0  0
   28.9499   16.2454    5.9504 H   0  0  0  0  0  0  0  0  0  0  0  0
   28.4437   16.0181    4.4146 H   0  0  0  0  0  0  0  0  0  0  0  0
   25.3535   16.5112    4.4755 H   0  0  0  0  0  0  0  0  0  0  0  0
   26.1153   15.3044    3.6818 H   0  0  0  0  0  0  0  0  0  0  0  0
   24.8498   14.9685    4.6576 H   0  0  0  0  0  0  0  0  0  0  0  0
  1  2  2  0  0  0  0
  1  3  1  0  0  0  0
  1  4  1  0  0  0  0
  3  5  1  0  0  0  0
  3  6  1  0  0  0  0
  3  7  1  0  0  0  0
  4  8  1  0  0  0  0
  4  9  1  0  0  0  0
  4 10  1  0  0  0  0
M  END
$$$$
6SPM_DMS_A_404
prProtoss 03132510083D 1   1.00000     0.00000     0
Protoss beta proteinsplus
 10  9  0  0  0  0            999 V2000
   23.9760   20.3980   32.7380 S   0  0  0  0  0  0  0  0  0  0  0  0
   22.9160   20.2730   31.6870 O   0  0  0  0  0  0  0  0  0  0  0  0
   25.5850   20.7540   31.9860 C   0  0  0  0  0  0  0  0  0  0  0  0
   23.6740   21.8720   33.7550 C   0  0  0  0  0  0  0  0  0  0  0  0
   26.2777   20.8336   32.7028 H   0  0  0  0  0  0  0  0  0  0  0  0
   25.8334   20.0120   31.3633 H   0  0  0  0  0  0  0  0  0  0  0  0
   25.5322   21.6130   31.4767 H   0  0  0  0  0  0  0  0  0  0  0  0
   24.3861   21.9469   34.4531 H   0  0  0  0  0  0  0  0  0  0  0  0
   23.6892   22.6862   33.1746 H   0  0  0  0  0  0  0  0  0  0  0  0
   22.7805   21.7945   34.1972 H   0  0  0  0  0  0  0  0  0  0  0  0
  1  2  2  0  0  0  0
  1  3  1  0  0  0  0
  1  4  1  0  0  0  0
  3  5  1  0  0  0  0
  3  6  1  0  0  0  0
  3  7  1  0  0  0  0
  4  8  1  0  0  0  0
  4  9  1  0  0  0  0
  4 10  1  0  0  0  0
M  END
$$$$
5N1D_MPD_A_401
prProtoss 03132510083D 1   1.00000     0.00000     0
Protoss beta proteinsplus
 22 21  0  0  0  0            999 V2000
    8.7910   86.7110    4.7640 O   0  0  0  0  0  0  0  0  0  0  0  0
   10.0190   87.6360    2.6610 O   0  0  0  0  0  0  0  0  0  0  0  0
    9.5070   86.9500    6.8910 C   0  0  0  0  0  0  0  0  0  0  0  0
   10.5940   89.7270    3.3960 C   0  0  0  0  0  0  0  0  0  0  0  0
   12.3900   88.0920    2.6970 C   0  0  0  0  0  0  0  0  0  0  0  0
   11.0710   87.6040    4.8230 C   0  0  0  0  0  0  0  0  0  0  0  0
    9.6690   87.5110    5.5000 C   0  0  1  0  0  0  0  0  0  0  0  0
   11.0540   88.2850    3.4270 C   0  0  0  0  0  0  0  0  0  0  0  0
    7.8639   86.8150    5.1241 H   0  0  0  0  0  0  0  0  0  0  0  0
    9.2840   87.3448    3.2734 H   0  0  0  0  0  0  0  0  0  0  0  0
   10.0977   87.4511    7.5234 H   0  0  0  0  0  0  0  0  0  0  0  0
    8.5541   87.0440    7.1795 H   0  0  0  0  0  0  0  0  0  0  0  0
    9.7617   85.9830    6.8922 H   0  0  0  0  0  0  0  0  0  0  0  0
   11.2418   90.2945    3.9043 H   0  0  0  0  0  0  0  0  0  0  0  0
   10.5475   90.0417    2.4480 H   0  0  0  0  0  0  0  0  0  0  0  0
    9.6889   89.7972    3.8153 H   0  0  0  0  0  0  0  0  0  0  0  0
   13.1204   88.5367    3.2154 H   0  0  0  0  0  0  0  0  0  0  0  0
   12.5868   87.1150    2.6148 H   0  0  0  0  0  0  0  0  0  0  0  0
   12.3333   88.4985    1.7851 H   0  0  0  0  0  0  0  0  0  0  0  0
   11.4309   86.6771    4.7165 H   0  0  0  0  0  0  0  0  0  0  0  0
   11.6753   88.1295    5.4220 H   0  0  0  0  0  0  0  0  0  0  0  0
    9.2861   88.4347    5.5098 H   0  0  0  0  0  0  0  0  0  0  0  0
  1  7  1  0  0  0  0
  2  8  1  0  0  0  0
  3  7  1  0  0  0  0
  4  8  1  0  0  0  0
  5  8  1  0  0  0  0
  6  7  1  0  0  0  0
  6  8  1  0  0  0  0
  1  9  1  0  0  0  0
  2 10  1  0  0  0  0
  3 11  1  0  0  0  0
  3 12  1  0  0  0  0
  3 13  1  0  0  0  0
  4 14  1  0  0  0  0
  4 15  1  0  0  0  0
  4 16  1  0  0  0  0
  5 17  1  0  0  0  0
  5 18  1  0  0  0  0
  5 19  1  0  0  0  0
  6 20  1  0  0  0  0
  6 21  1  0  0  0  0
  7 22  1  0  0  0  0
M  END
$$$$
5N1D_MPD_A_402
prProtoss 03132510083D 1   1.00000     0.00000     0
Protoss beta proteinsplus
 22 21  0  0  0  0            999 V2000
   -6.1020  111.7710   20.8440 O   0  0  0  0  0  0  0  0  0  0  0  0
   -8.8190  110.7180   17.5050 O   0  0  0  0  0  0  0  0  0  0  0  0
   -6.0970  109.3200   21.0850 C   0  0  0  0  0  0  0  0  0  0  0  0
   -9.4020  110.4180   19.8130 C   0  0  0  0  0  0  0  0  0  0  0  0
   -8.2530  112.5440   19.0040 C   0  0  0  0  0  0  0  0  0  0  0  0
   -7.0010  110.3280   18.9710 C   0  0  0  0  0  0  0  0  0  0  0  0
   -6.0380  110.5300   20.1450 C   0  0  1  0  0  0  0  0  0  0  0  0
   -8.3640  111.0180   18.8710 C   0  0  0  0  0  0  0  0  0  0  0  0
   -5.5976  112.4675   20.3336 H   0  0  0  0  0  0  0  0  0  0  0  0
   -8.1669  111.0936   16.8464 H   0  0  0  0  0  0  0  0  0  0  0  0
   -6.0489  108.4779   20.5478 H   0  0  0  0  0  0  0  0  0  0  0  0
   -5.3261  109.3541   21.7211 H   0  0  0  0  0  0  0  0  0  0  0  0
   -6.9545  109.3388   21.5992 H   0  0  0  0  0  0  0  0  0  0  0  0
   -9.1355  110.5968   20.7601 H   0  0  0  0  0  0  0  0  0  0  0  0
  -10.2941  110.8328   19.6338 H   0  0  0  0  0  0  0  0  0  0  0  0
   -9.4572  109.4309   19.6629 H   0  0  0  0  0  0  0  0  0  0  0  0
   -7.9444  112.7766   19.9263 H   0  0  0  0  0  0  0  0  0  0  0  0
   -7.5949  112.8899   18.3352 H   0  0  0  0  0  0  0  0  0  0  0  0
   -9.1473  112.9591   18.8371 H   0  0  0  0  0  0  0  0  0  0  0  0
   -7.1879  109.3462   18.9361 H   0  0  0  0  0  0  0  0  0  0  0  0
   -6.4955  110.6004   18.1523 H   0  0  0  0  0  0  0  0  0  0  0  0
   -5.1235  110.5037   19.7412 H   0  0  0  0  0  0  0  0  0  0  0  0
  1  7  1  0  0  0  0
  2  8  1  0  0  0  0
  3  7  1  0  0  0  0
  4  8  1  0  0  0  0
  5  8  1  0  0  0  0
  6  7  1  0  0  0  0
  6  8  1  0  0  0  0
  1  9  1  0  0  0  0
  2 10  1  0  0  0  0
  3 11  1  0  0  0  0
  3 12  1  0  0  0  0
  3 13  1  0  0  0  0
  4 14  1  0  0  0  0
  4 15  1  0  0  0  0
  4 16  1  0  0  0  0
  5 17  1  0  0  0  0
  5 18  1  0  0  0  0
  5 19  1  0  0  0  0
  6 20  1  0  0  0  0
  6 21  1  0  0  0  0
  7 22  1  0  0  0  0
M  END
$$$$
5N1D_8FZ_A_403
prProtoss 03132510083D 1   1.00000     0.00000     0
Protoss beta proteinsplus
 25 26  0  0  0  0            999 V2000
   13.2320   99.1060   26.0970 O   0  0  0  0  0  0  0  0  0  0  0  0
   15.1210  100.4230   26.1070 O   0  0  0  0  0  0  0  0  0  0  0  0
   11.1380   96.6510   26.7670 N   0  3  0  0  0  0  0  0  0  0  0  0
   17.3650   99.5950   23.3830 N   0  0  0  0  0  0  0  0  0  0  0  0
   11.0360   98.0300   26.2770 C   0  0  0  0  0  0  0  0  0  0  0  0
   17.3860   98.2550   23.4910 C   0  0  0  0  0  0  0  0  0  0  0  0
   16.6710   97.5600   24.4410 C   0  0  0  0  0  0  0  0  0  0  0  0
   16.6050  100.2640   24.2460 C   0  0  0  0  0  0  0  0  0  0  0  0
   15.8780   98.2690   25.3190 C   0  0  0  0  0  0  0  0  0  0  0  0
   13.5160  100.1710   28.0090 C   0  0  0  0  0  0  0  0  0  0  0  0
   12.2750   99.4920   28.0570 C   0  0  0  0  0  0  0  0  0  0  0  0
   14.0450   99.9190   26.7760 C   0  0  0  0  0  0  0  0  0  0  0  0
   12.1220   98.8770   26.8800 C   0  0  0  0  0  0  0  0  0  0  0  0
   15.8590   99.6300   25.2300 C   0  0  0  0  0  0  0  0  0  0  0  0
   10.5934   96.5520   27.5998 H   0  0  0  0  0  0  0  0  0  0  0  0
   10.7957   96.0228   26.0683 H   0  0  0  0  0  0  0  0  0  0  0  0
   10.1447   98.4057   26.5309 H   0  0  0  0  0  0  0  0  0  0  0  0
   11.1282   98.0344   25.2813 H   0  0  0  0  0  0  0  0  0  0  0  0
   17.9499   97.7362   22.8484 H   0  0  0  0  0  0  0  0  0  0  0  0
   16.7256   96.5629   24.4931 H   0  0  0  0  0  0  0  0  0  0  0  0
   16.5698  101.2614   24.1834 H   0  0  0  0  0  0  0  0  0  0  0  0
   15.3282   97.7949   26.0068 H   0  0  0  0  0  0  0  0  0  0  0  0
   13.9242  100.7253   28.7343 H   0  0  0  0  0  0  0  0  0  0  0  0
   11.6347   99.4755   28.8250 H   0  0  0  0  0  0  0  0  0  0  0  0
   12.0944   96.4382   26.9669 H   0  0  0  0  0  0  0  0  0  0  0  0
  1 12  1  0  0  0  0
  1 13  1  0  0  0  0
  2 12  1  0  0  0  0
  2 14  1  0  0  0  0
  3  5  1  0  0  0  0
  4  6  2  0  0  0  0
  4  8  1  0  0  0  0
  5 13  1  0  0  0  0
  6  7  1  0  0  0  0
  7  9  2  0  0  0  0
  8 14  2  0  0  0  0
  9 14  1  0  0  0  0
 10 11  1  0  0  0  0
 10 12  2  0  0  0  0
 11 13  2  0  0  0  0
  3 15  1  0  0  0  0
  3 16  1  0  0  0  0
  5 17  1  0  0  0  0
  5 18  1  0  0  0  0
  6 19  1  0  0  0  0
  7 20  1  0  0  0  0
  8 21  1  0  0  0  0
  9 22  1  0  0  0  0
 10 23  1  0  0  0  0
 11 24  1  0  0  0  0
  3 25  1  0  0  0  0
M  CHG  1   3   1
M  END
$$$$
3DND_LL2_A_351
prProtoss 11272417183D 1   1.00000     0.00000     0
Protoss beta proteinsplus
 23 24  0  0  0  0            999 V2000
    5.8850   10.8230    3.1450 S   0  0  0  0  0  0  0  0  0  0  0  0
    3.2970   10.4440    2.4100 N   0  0  0  0  0  0  0  0  0  0  0  0
    3.9720   10.4870    4.7480 N   0  0  0  0  0  0  0  0  0  0  0  0
   10.1440    7.8730    3.0960 C   0  0  0  0  0  0  0  0  0  0  0  0
    9.6680    8.9910    2.3900 C   0  0  0  0  0  0  0  0  0  0  0  0
    9.8370    7.8050    4.4640 C   0  0  0  0  0  0  0  0  0  0  0  0
    5.1430   10.6460    5.4710 C   0  0  0  0  0  0  0  0  0  0  0  0
    8.9100    9.9830    3.0430 C   0  0  0  0  0  0  0  0  0  0  0  0
    9.0870    8.7970    5.1390 C   0  0  0  0  0  0  0  0  0  0  0  0
    7.7840   11.0150    5.1230 C   0  0  0  0  0  0  0  0  0  0  0  0
    4.1890   10.5520    3.3970 C   0  0  0  0  0  0  0  0  0  0  0  0
    6.2950   10.8290    4.7470 C   0  0  0  0  0  0  0  0  0  0  0  0
    8.6130    9.9080    4.4230 C   0  0  0  0  0  0  0  0  0  0  0  0
    2.3324   10.2877    2.6227 H   0  0  0  0  0  0  0  0  0  0  0  0
    3.5932   10.5193    1.4579 H   0  0  0  0  0  0  0  0  0  0  0  0
   10.6775    7.1580    2.6441 H   0  0  0  0  0  0  0  0  0  0  0  0
    9.8692    9.0833    1.4148 H   0  0  0  0  0  0  0  0  0  0  0  0
   10.1640    7.0177    4.9867 H   0  0  0  0  0  0  0  0  0  0  0  0
    5.1489   10.6283    6.4708 H   0  0  0  0  0  0  0  0  0  0  0  0
    8.5725   10.7624    2.5152 H   0  0  0  0  0  0  0  0  0  0  0  0
    8.8964    8.7077    6.1166 H   0  0  0  0  0  0  0  0  0  0  0  0
    7.8928   10.9413    6.1143 H   0  0  0  0  0  0  0  0  0  0  0  0
    8.0984   11.9143    4.8191 H   0  0  0  0  0  0  0  0  0  0  0  0
  1 11  1  0  0  0  0
  1 12  1  0  0  0  0
  2 11  1  0  0  0  0
  3  7  1  0  0  0  0
  3 11  2  0  0  0  0
  4  5  2  0  0  0  0
  4  6  1  0  0  0  0
  5  8  1  0  0  0  0
  6  9  2  0  0  0  0
  7 12  2  0  0  0  0
  8 13  2  0  0  0  0
  9 13  1  0  0  0  0
 10 12  1  0  0  0  0
 10 13  1  0  0  0  0
  2 14  1  0  0  0  0
  2 15  1  0  0  0  0
  4 16  1  0  0  0  0
  5 17  1  0  0  0  0
  6 18  1  0  0  0  0
  7 19  1  0  0  0  0
  8 20  1  0  0  0  0
  9 21  1  0  0  0  0
 10 22  1  0  0  0  0
 10 23  1  0  0  0  0
M  END
$$$$
5N3R_CDT_A_401
prProtoss 03132510083D 1   1.00000     0.00000     0
Protoss beta proteinsplus
 23 22  0  0  0  0            999 V2000
   17.8910    2.6470    5.5590 S   0  0  0  0  0  0  0  0  0  0  0  0
   18.9540    3.5970   -0.3040 O   0  0  0  0  0  0  0  0  0  0  0  0
   17.3160   -0.0470    0.1840 O   0  0  0  0  0  0  0  0  0  0  0  0
   19.3820    0.6280    0.5540 O   0  5  0  0  0  0  0  0  0  0  0  0
   16.8920    4.3360   -0.8650 N   0  0  0  0  0  0  0  0  0  0  0  0
   17.1720    2.9800    0.9440 N   0  0  0  0  0  0  0  0  0  0  0  0
   19.6520    2.5590    5.8160 C   0  0  0  0  0  0  0  0  0  0  0  0
   17.8350    3.0740    3.8110 C   0  0  0  0  0  0  0  0  0  0  0  0
   18.4310    2.0400    2.8690 C   0  0  0  0  0  0  0  0  0  0  0  0
   17.7360    3.6350   -0.1000 C   0  0  0  0  0  0  0  0  0  0  0  0
   18.1360    0.6970    0.7030 C   0  0  0  0  0  0  0  0  0  0  0  0
   17.5580    1.7630    1.6450 C   0  0  2  0  0  0  0  0  0  0  0  0
   15.9133    4.3357   -0.6597 H   0  0  0  0  0  0  0  0  0  0  0  0
   17.2397    4.8604   -1.6423 H   0  0  0  0  0  0  0  0  0  0  0  0
   16.3408    3.4099    1.2966 H   0  0  0  0  0  0  0  0  0  0  0  0
   19.8383    2.3237    6.7699 H   0  0  0  0  0  0  0  0  0  0  0  0
   20.0416    1.8588    5.2178 H   0  0  0  0  0  0  0  0  0  0  0  0
   20.0644    3.4451    5.6046 H   0  0  0  0  0  0  0  0  0  0  0  0
   18.3359    3.9304    3.6862 H   0  0  0  0  0  0  0  0  0  0  0  0
   16.8773    3.2079    3.5564 H   0  0  0  0  0  0  0  0  0  0  0  0
   18.5524    1.1846    3.3725 H   0  0  0  0  0  0  0  0  0  0  0  0
   19.3209    2.3716    2.5557 H   0  0  0  0  0  0  0  0  0  0  0  0
   16.7079    1.3757    2.0018 H   0  0  0  0  0  0  0  0  0  0  0  0
  1  7  1  0  0  0  0
  1  8  1  0  0  0  0
  2 10  2  0  0  0  0
  3 11  2  0  0  0  0
  4 11  1  0  0  0  0
  5 10  1  0  0  0  0
  6 10  1  0  0  0  0
  6 12  1  0  0  0  0
  8  9  1  0  0  0  0
  9 12  1  0  0  0  0
 11 12  1  0  0  0  0
 12 23  1  0  0  0  0
  5 13  1  0  0  0  0
  5 14  1  0  0  0  0
  6 15  1  0  0  0  0
  7 16  1  0  0  0  0
  7 17  1  0  0  0  0
  7 18  1  0  0  0  0
  8 19  1  0  0  0  0
  8 20  1  0  0  0  0
  9 21  1  0  0  0  0
  9 22  1  0  0  0  0
M  CHG  1   4  -1
M  END
$$$$
5N3R_MPD_A_402
prProtoss 03132510083D 1   1.00000     0.00000     0
Protoss beta proteinsplus
 22 21  0  0  0  0            999 V2000
   17.2610   19.1620   39.0150 O   0  0  0  0  0  0  0  0  0  0  0  0
   19.0240   18.1020   40.6110 O   0  0  0  0  0  0  0  0  0  0  0  0
   16.5820   18.0050   37.0430 C   0  0  0  0  0  0  0  0  0  0  0  0
   19.2500   15.8120   40.0710 C   0  0  0  0  0  0  0  0  0  0  0  0
   20.9780   17.5140   39.3520 C   0  0  0  0  0  0  0  0  0  0  0  0
   18.7400   17.4640   38.2270 C   0  0  0  0  0  0  0  0  0  0  0  0
   17.2900   17.9030   38.3900 C   0  0  1  0  0  0  0  0  0  0  0  0
   19.4850   17.2270   39.5490 C   0  0  0  0  0  0  0  0  0  0  0  0
   16.4365   19.2368   39.5760 H   0  0  0  0  0  0  0  0  0  0  0  0
   18.2856   18.6825   40.2677 H   0  0  0  0  0  0  0  0  0  0  0  0
   16.5973   17.1136   36.5901 H   0  0  0  0  0  0  0  0  0  0  0  0
   15.6342   18.2904   37.1854 H   0  0  0  0  0  0  0  0  0  0  0  0
   17.0503   18.6779   36.4704 H   0  0  0  0  0  0  0  0  0  0  0  0
   19.5479   15.1494   39.3838 H   0  0  0  0  0  0  0  0  0  0  0  0
   19.7720   15.6764   40.9131 H   0  0  0  0  0  0  0  0  0  0  0  0
   18.2761   15.6832   40.2581 H   0  0  0  0  0  0  0  0  0  0  0  0
   21.3368   16.9287   38.6249 H   0  0  0  0  0  0  0  0  0  0  0  0
   21.1025   18.4736   39.0995 H   0  0  0  0  0  0  0  0  0  0  0  0
   21.4685   17.3269   40.2031 H   0  0  0  0  0  0  0  0  0  0  0  0
   19.2260   18.1739   37.7173 H   0  0  0  0  0  0  0  0  0  0  0  0
   18.7516   16.6114   37.7046 H   0  0  0  0  0  0  0  0  0  0  0  0
   16.8091   17.2404   38.9642 H   0  0  0  0  0  0  0  0  0  0  0  0
  1  7  1  0  0  0  0
  2  8  1  0  0  0  0
  3  7  1  0  0  0  0
  4  8  1  0  0  0  0
  5  8  1  0  0  0  0
  6  7  1  0  0  0  0
  6  8  1  0  0  0  0
  1  9  1  0  0  0  0
  2 10  1  0  0  0  0
  3 11  1  0  0  0  0
  3 12  1  0  0  0  0
  3 13  1  0  0  0  0
  4 14  1  0  0  0  0
  4 15  1  0  0  0  0
  4 16  1  0  0  0  0
  5 17  1  0  0  0  0
  5 18  1  0  0  0  0
  5 19  1  0  0  0  0
  6 20  1  0  0  0  0
  6 21  1  0  0  0  0
  7 22  1  0  0  0  0
M  END
$$$$
5N3R_DMS_A_403
prProtoss 03132510083D 1   1.00000     0.00000     0
Protoss beta proteinsplus
 10  9  0  0  0  0            999 V2000
    9.6220   25.0260   15.3920 S   0  0  0  0  0  0  0  0  0  0  0  0
   10.8680   25.6870   14.9100 O   0  0  0  0  0  0  0  0  0  0  0  0
    9.9980   23.3860   16.0480 C   0  0  0  0  0  0  0  0  0  0  0  0
    8.9790   25.8630   16.8630 C   0  0  0  0  0  0  0  0  0  0  0  0
    9.1549   22.9535   16.3677 H   0  0  0  0  0  0  0  0  0  0  0  0
   10.4083   22.8253   15.3288 H   0  0  0  0  0  0  0  0  0  0  0  0
   10.6390   23.4710   16.8108 H   0  0  0  0  0  0  0  0  0  0  0  0
    8.1447   25.4046   17.1694 H   0  0  0  0  0  0  0  0  0  0  0  0
    9.6637   25.8305   17.5911 H   0  0  0  0  0  0  0  0  0  0  0  0
    8.7734   26.8161   16.6411 H   0  0  0  0  0  0  0  0  0  0  0  0
  1  2  2  0  0  0  0
  1  3  1  0  0  0  0
  1  4  1  0  0  0  0
  3  5  1  0  0  0  0
  3  6  1  0  0  0  0
  3  7  1  0  0  0  0
  4  8  1  0  0  0  0
  4  9  1  0  0  0  0
  4 10  1  0  0  0  0
M  END
$$$$
5N3A_DMS_A_401
prProtoss 03132510083D 1   1.00000     0.00000     0
Protoss beta proteinsplus
 10  9  0  0  0  0            999 V2000
  -13.3390    3.3330  -27.5680 S   0  0  0  0  0  0  0  0  0  0  0  0
  -14.6850    2.7120  -27.7550 O   0  0  0  0  0  0  0  0  0  0  0  0
  -12.5550    3.5750  -29.1860 C   0  0  0  0  0  0  0  0  0  0  0  0
  -13.5850    5.0550  -27.0780 C   0  0  0  0  0  0  0  0  0  0  0  0
  -11.6541    3.9906  -29.0610 H   0  0  0  0  0  0  0  0  0  0  0  0
  -12.4539    2.6913  -29.6429 H   0  0  0  0  0  0  0  0  0  0  0  0
  -13.1248    4.1765  -29.7459 H   0  0  0  0  0  0  0  0  0  0  0  0
  -12.6964    5.4943  -26.9462 H   0  0  0  0  0  0  0  0  0  0  0  0
  -14.0917    5.5360  -27.7934 H   0  0  0  0  0  0  0  0  0  0  0  0
  -14.1030    5.0876  -26.2232 H   0  0  0  0  0  0  0  0  0  0  0  0
  1  2  2  0  0  0  0
  1  3  1  0  0  0  0
  1  4  1  0  0  0  0
  3  5  1  0  0  0  0
  3  6  1  0  0  0  0
  3  7  1  0  0  0  0
  4  8  1  0  0  0  0
  4  9  1  0  0  0  0
  4 10  1  0  0  0  0
M  END
$$$$
5N3A_DMS_A_402
prProtoss 03132510083D 1   1.00000     0.00000     0
Protoss beta proteinsplus
 10  9  0  0  0  0            999 V2000
   10.2590    2.1590  -16.7690 S   0  0  0  0  0  0  0  0  0  0  0  0
    8.9080    1.9110  -16.1760 O   0  0  0  0  0  0  0  0  0  0  0  0
   10.8980    0.5930  -17.4050 C   0  0  0  0  0  0  0  0  0  0  0  0
   10.0710    3.0080  -18.3560 C   0  0  0  0  0  0  0  0  0  0  0  0
   11.8022    0.7402  -17.8059 H   0  0  0  0  0  0  0  0  0  0  0  0
   10.9684   -0.0667  -16.6568 H   0  0  0  0  0  0  0  0  0  0  0  0
   10.2770    0.2390  -18.1043 H   0  0  0  0  0  0  0  0  0  0  0  0
   10.9732    3.1746  -18.7538 H   0  0  0  0  0  0  0  0  0  0  0  0
    9.5328    2.4383  -18.9771 H   0  0  0  0  0  0  0  0  0  0  0  0
    9.6031    3.8803  -18.2140 H   0  0  0  0  0  0  0  0  0  0  0  0
  1  2  2  0  0  0  0
  1  3  1  0  0  0  0
  1  4  1  0  0  0  0
  3  5  1  0  0  0  0
  3  6  1  0  0  0  0
  3  7  1  0  0  0  0
  4  8  1  0  0  0  0
  4  9  1  0  0  0  0
  4 10  1  0  0  0  0
M  END
$$$$
5N3A_MPD_A_403
prProtoss 03132510083D 1   1.00000     0.00000     0
Protoss beta proteinsplus
 22 21  0  0  0  0            999 V2000
   -7.9940   12.5920   -4.6470 O   0  0  0  0  0  0  0  0  0  0  0  0
   -9.8370   15.4560   -3.3490 O   0  0  0  0  0  0  0  0  0  0  0  0
   -8.6700   13.3970   -6.7570 C   0  0  0  0  0  0  0  0  0  0  0  0
  -11.8760   14.2450   -3.0050 C   0  0  0  0  0  0  0  0  0  0  0  0
   -9.7060   13.3400   -2.2300 C   0  0  0  0  0  0  0  0  0  0  0  0
  -10.2170   13.4280   -4.6870 C   0  0  0  0  0  0  0  0  0  0  0  0
   -8.7980   13.5760   -5.2410 C   0  0  1  0  0  0  0  0  0  0  0  0
  -10.3960   14.1180   -3.3350 C   0  0  0  0  0  0  0  0  0  0  0  0
   -7.2914   13.0296   -4.0859 H   0  0  0  0  0  0  0  0  0  0  0  0
  -10.3427   16.0353   -2.7097 H   0  0  0  0  0  0  0  0  0  0  0  0
   -9.2305   14.0823   -7.2221 H   0  0  0  0  0  0  0  0  0  0  0  0
   -7.7136   13.5100   -7.0264 H   0  0  0  0  0  0  0  0  0  0  0  0
   -8.9823   12.4819   -7.0122 H   0  0  0  0  0  0  0  0  0  0  0  0
  -12.2928   13.3362   -2.9875 H   0  0  0  0  0  0  0  0  0  0  0  0
  -11.9820   14.6776   -2.1097 H   0  0  0  0  0  0  0  0  0  0  0  0
  -12.3259   14.8047   -3.7010 H   0  0  0  0  0  0  0  0  0  0  0  0
  -10.0732   12.4104   -2.1974 H   0  0  0  0  0  0  0  0  0  0  0  0
   -8.7232   13.3040   -2.4113 H   0  0  0  0  0  0  0  0  0  0  0  0
   -9.8668   13.7928   -1.3530 H   0  0  0  0  0  0  0  0  0  0  0  0
  -10.4185   12.4545   -4.5787 H   0  0  0  0  0  0  0  0  0  0  0  0
  -10.8590   13.8307   -5.3394 H   0  0  0  0  0  0  0  0  0  0  0  0
   -8.4449   14.4774   -4.9904 H   0  0  0  0  0  0  0  0  0  0  0  0
  1  7  1  0  0  0  0
  2  8  1  0  0  0  0
  3  7  1  0  0  0  0
  4  8  1  0  0  0  0
  5  8  1  0  0  0  0
  6  7  1  0  0  0  0
  6  8  1  0  0  0  0
  1  9  1  0  0  0  0
  2 10  1  0  0  0  0
  3 11  1  0  0  0  0
  3 12  1  0  0  0  0
  3 13  1  0  0  0  0
  4 14  1  0  0  0  0
  4 15  1  0  0  0  0
  4 16  1  0  0  0  0
  5 17  1  0  0  0  0
  5 18  1  0  0  0  0
  5 19  1  0  0  0  0
  6 20  1  0  0  0  0
  6 21  1  0  0  0  0
  7 22  1  0  0  0  0
M  END
$$$$
5N3A_46P_A_404
prProtoss 03132510083D 1   1.00000     0.00000     0
Protoss beta proteinsplus
 19 19  0  0  0  0            999 V2000
  -10.4700   25.4470  -25.6360 S   0  0  0  0  0  0  0  0  0  0  0  0
   -8.7270   23.5810  -26.4880 N   0  0  0  0  0  0  0  0  0  0  0  0
  -14.3590   25.5990  -25.0670 N   0  3  0  0  0  0  0  0  0  0  0  0
  -13.2170   27.2920  -25.9500 N   0  0  0  0  0  0  0  0  0  0  0  0
  -11.0070   23.2490  -26.8900 N   0  0  0  0  0  0  0  0  0  0  0  0
  -12.3280   28.0190  -26.8540 C   0  0  0  0  0  0  0  0  0  0  0  0
  -12.2110   23.8810  -26.6670 C   0  0  0  0  0  0  0  0  0  0  0  0
  -10.0090   23.9530  -26.4080 C   0  0  0  0  0  0  0  0  0  0  0  0
  -13.2290   25.9580  -25.6610 C   0  0  0  0  0  0  0  0  0  0  0  0
  -12.1290   25.0800  -26.0060 C   0  0  0  0  0  0  0  0  0  0  0  0
   -8.4831   22.7203  -26.9348 H   0  0  0  0  0  0  0  0  0  0  0  0
   -8.0123   24.1635  -26.1010 H   0  0  0  0  0  0  0  0  0  0  0  0
  -14.5022   24.6463  -24.7989 H   0  0  0  0  0  0  0  0  0  0  0  0
  -15.0679   26.2810  -24.8872 H   0  0  0  0  0  0  0  0  0  0  0  0
  -12.5707   28.9891  -26.8515 H   0  0  0  0  0  0  0  0  0  0  0  0
  -11.3818   27.9113  -26.5490 H   0  0  0  0  0  0  0  0  0  0  0  0
  -12.4232   27.6540  -27.7801 H   0  0  0  0  0  0  0  0  0  0  0  0
  -13.0828   23.4930  -26.9659 H   0  0  0  0  0  0  0  0  0  0  0  0
  -13.9069   27.8442  -25.4819 H   0  0  0  0  0  0  0  0  0  0  0  0
  1  8  1  0  0  0  0
  1 10  1  0  0  0  0
  2  8  1  0  0  0  0
  3  9  2  0  0  0  0
  4  6  1  0  0  0  0
  4  9  1  0  0  0  0
  5  7  1  0  0  0  0
  5  8  2  0  0  0  0
  7 10  2  0  0  0  0
  9 10  1  0  0  0  0
  2 11  1  0  0  0  0
  2 12  1  0  0  0  0
  3 13  1  0  0  0  0
  3 14  1  0  0  0  0
  6 15  1  0  0  0  0
  6 16  1  0  0  0  0
  6 17  1  0  0  0  0
  7 18  1  0  0  0  0
  4 19  1  0  0  0  0
M  CHG  1   3   1
M  END
$$$$
3DNE_LL1_A_351
prProtoss 11272417183D 1   1.00000     0.00000     0
Protoss beta proteinsplus
 24 26  0  0  0  0            999 V2000
    2.9070   10.2090    4.0030 N   0  0  0  0  0  0  0  0  0  0  0  0
    8.6750    9.9220    1.4520 N   0  0  0  0  0  0  0  0  0  0  0  0
    7.4230    9.8510    1.6070 N   0  0  0  0  0  0  0  0  0  0  0  0
    3.2090   10.2580    2.6860 C   0  0  0  0  0  0  0  0  0  0  0  0
    3.7950   10.1120    5.0010 C   0  0  0  0  0  0  0  0  0  0  0  0
   10.8840   10.9750    4.3630 C   0  0  0  0  0  0  0  0  0  0  0  0
    9.8320   11.1480    5.3000 C   0  0  0  0  0  0  0  0  0  0  0  0
    4.5770   10.2690    2.3320 C   0  0  0  0  0  0  0  0  0  0  0  0
    5.2030   10.0990    4.6690 C   0  0  0  0  0  0  0  0  0  0  0  0
   10.5770   10.5050    3.0310 C   0  0  0  0  0  0  0  0  0  0  0  0
    8.4900   10.9060    4.8980 C   0  0  0  0  0  0  0  0  0  0  0  0
    9.2460   10.2780    2.6400 C   0  0  0  0  0  0  0  0  0  0  0  0
    5.6030   10.1850    3.2950 C   0  0  0  0  0  0  0  0  0  0  0  0
    6.9890   10.1560    2.8550 C   0  0  0  0  0  0  0  0  0  0  0  0
    8.1770   10.4530    3.5880 C   0  0  0  0  0  0  0  0  0  0  0  0
    9.1669    9.7463    0.5992 H   0  0  0  0  0  0  0  0  0  0  0  0
    2.4920   10.2854    1.9894 H   0  0  0  0  0  0  0  0  0  0  0  0
    3.4922   10.0501    5.9520 H   0  0  0  0  0  0  0  0  0  0  0  0
   11.8287   11.1764    4.6219 H   0  0  0  0  0  0  0  0  0  0  0  0
   10.0332   11.4379    6.2357 H   0  0  0  0  0  0  0  0  0  0  0  0
    4.8256   10.3387    1.3659 H   0  0  0  0  0  0  0  0  0  0  0  0
    5.8911   10.0306    5.3914 H   0  0  0  0  0  0  0  0  0  0  0  0
   11.3189   10.3397    2.3812 H   0  0  0  0  0  0  0  0  0  0  0  0
    7.7492   11.0581    5.5522 H   0  0  0  0  0  0  0  0  0  0  0  0
  1  4  2  0  0  0  0
  1  5  1  0  0  0  0
  2  3  1  0  0  0  0
  2 12  1  0  0  0  0
  3 14  2  0  0  0  0
  4  8  1  0  0  0  0
  5  9  2  0  0  0  0
  6  7  2  0  0  0  0
  6 10  1  0  0  0  0
  7 11  1  0  0  0  0
  8 13  2  0  0  0  0
  9 13  1  0  0  0  0
 10 12  2  0  0  0  0
 11 15  2  0  0  0  0
 12 15  1  0  0  0  0
 13 14  1  0  0  0  0
 14 15  1  0  0  0  0
  2 16  1  0  0  0  0
  4 17  1  0  0  0  0
  5 18  1  0  0  0  0
  6 19  1  0  0  0  0
  7 20  1  0  0  0  0
  8 21  1  0  0  0  0
  9 22  1  0  0  0  0
 10 23  1  0  0  0  0
 11 24  1  0  0  0  0
M  END
$$$$
5N3T_8K2_A_401
prProtoss 03132510083D 1   1.00000     0.00000     0
Protoss beta proteinsplus
 14 14  0  0  0  0            999 V2000
   32.0010   18.0200  -15.5270 Cl  0  0  0  0  0  0  0  0  0  0  0  0
   30.8770   20.6850  -16.1490 S   0  0  0  0  0  0  0  0  0  0  0  0
   31.5990   23.7280  -16.4620 S   0  0  0  0  0  0  0  0  0  0  0  0
   30.4780   23.8090  -17.3440 O   0  0  0  0  0  0  0  0  0  0  0  0
   31.6990   24.5720  -15.3160 O   0  0  0  0  0  0  0  0  0  0  0  0
   32.9260   23.8800  -17.3280 N   0  0  0  0  0  0  0  0  0  0  0  0
   33.3040   20.4250  -15.3310 C   0  0  0  0  0  0  0  0  0  0  0  0
   33.1120   21.7790  -15.5540 C   0  0  0  0  0  0  0  0  0  0  0  0
   32.1860   19.7160  -15.6160 C   0  0  0  0  0  0  0  0  0  0  0  0
   31.8710   22.0710  -16.0060 C   0  0  0  0  0  0  0  0  0  0  0  0
   33.6403   24.3047  -16.7717 H   0  0  0  0  0  0  0  0  0  0  0  0
   33.2318   22.9773  -17.6306 H   0  0  0  0  0  0  0  0  0  0  0  0
   34.1584   20.0230  -15.0019 H   0  0  0  0  0  0  0  0  0  0  0  0
   33.8183   22.4693  -15.3969 H   0  0  0  0  0  0  0  0  0  0  0  0
  1  9  1  0  0  0  0
  2  9  1  0  0  0  0
  2 10  1  0  0  0  0
  3  4  2  0  0  0  0
  3  5  2  0  0  0  0
  3  6  1  0  0  0  0
  3 10  1  0  0  0  0
  7  8  1  0  0  0  0
  7  9  2  0  0  0  0
  8 10  2  0  0  0  0
  6 11  1  0  0  0  0
  6 12  1  0  0  0  0
  7 13  1  0  0  0  0
  8 14  1  0  0  0  0
M  END
$$$$
5N3T_8K2_A_402
prProtoss 03132510083D 1   1.00000     0.00000     0
Protoss beta proteinsplus
 14 14  0  0  0  0            999 V2000
   27.0010  -18.8990  -18.8300 Cl  0  0  0  0  0  0  0  0  0  0  0  0
   26.8410  -19.5980  -15.9470 S   0  0  0  0  0  0  0  0  0  0  0  0
   28.3290  -19.9890  -13.3050 S   0  0  0  0  0  0  0  0  0  0  0  0
   29.4900  -19.3510  -12.7760 O   0  0  0  0  0  0  0  0  0  0  0  0
   27.0390  -19.7320  -12.7480 O   0  0  0  0  0  0  0  0  0  0  0  0
   28.5830  -21.5570  -13.3040 N   0  0  0  0  0  0  0  0  0  0  0  0
   29.1070  -19.1160  -17.0780 C   0  0  0  0  0  0  0  0  0  0  0  0
   29.3840  -19.3580  -15.7280 C   0  0  0  0  0  0  0  0  0  0  0  0
   27.7790  -19.2000  -17.3340 C   0  0  0  0  0  0  0  0  0  0  0  0
   28.2610  -19.6320  -15.0070 C   0  0  0  0  0  0  0  0  0  0  0  0
   27.7126  -22.0356  -13.1886 H   0  0  0  0  0  0  0  0  0  0  0  0
   28.9997  -21.8277  -14.1718 H   0  0  0  0  0  0  0  0  0  0  0  0
   29.8013  -18.9074  -17.7668 H   0  0  0  0  0  0  0  0  0  0  0  0
   30.3037  -19.3327  -15.3361 H   0  0  0  0  0  0  0  0  0  0  0  0
  1  9  1  0  0  0  0
  2  9  1  0  0  0  0
  2 10  1  0  0  0  0
  3  4  2  0  0  0  0
  3  5  2  0  0  0  0
  3  6  1  0  0  0  0
  3 10  1  0  0  0  0
  7  8  1  0  0  0  0
  7  9  2  0  0  0  0
  8 10  2  0  0  0  0
  6 11  1  0  0  0  0
  6 12  1  0  0  0  0
  7 13  1  0  0  0  0
  8 14  1  0  0  0  0
M  END
$$$$
5N3T_DMS_A_403
prProtoss 03132510083D 1   1.00000     0.00000     0
Protoss beta proteinsplus
 10  9  0  0  0  0            999 V2000
    3.5530  -16.3030  -20.5810 S   0  0  0  0  0  0  0  0  0  0  0  0
    4.4100  -16.4290  -19.3600 O   0  0  0  0  0  0  0  0  0  0  0  0
    3.8930  -17.6860  -21.7030 C   0  0  0  0  0  0  0  0  0  0  0  0
    1.8190  -16.6660  -20.1890 C   0  0  0  0  0  0  0  0  0  0  0  0
    3.3206  -17.6020  -22.5187 H   0  0  0  0  0  0  0  0  0  0  0  0
    4.8568  -17.6702  -21.9691 H   0  0  0  0  0  0  0  0  0  0  0  0
    3.6891  -18.5486  -21.2401 H   0  0  0  0  0  0  0  0  0  0  0  0
    1.2644  -16.5764  -21.0163 H   0  0  0  0  0  0  0  0  0  0  0  0
    1.7450  -17.5993  -19.8375 H   0  0  0  0  0  0  0  0  0  0  0  0
    1.4919  -16.0223  -19.4971 H   0  0  0  0  0  0  0  0  0  0  0  0
  1  2  2  0  0  0  0
  1  3  1  0  0  0  0
  1  4  1  0  0  0  0
  3  5  1  0  0  0  0
  3  6  1  0  0  0  0
  3  7  1  0  0  0  0
  4  8  1  0  0  0  0
  4  9  1  0  0  0  0
  4 10  1  0  0  0  0
M  END
$$$$
5N3T_DMS_A_404
prProtoss 03132510083D 1   1.00000     0.00000     0
Protoss beta proteinsplus
 10  9  0  0  0  0            999 V2000
   22.2370    9.1530    7.0540 S   0  0  0  0  0  0  0  0  0  0  0  0
   23.4390    9.7130    7.7340 O   0  0  0  0  0  0  0  0  0  0  0  0
   22.7250    8.4130    5.4850 C   0  0  0  0  0  0  0  0  0  0  0  0
   21.5890    7.6880    7.9090 C   0  0  0  0  0  0  0  0  0  0  0  0
   21.9185    8.0372    5.0286 H   0  0  0  0  0  0  0  0  0  0  0  0
   23.1426    9.1107    4.9029 H   0  0  0  0  0  0  0  0  0  0  0  0
   23.3847    7.6805    5.6528 H   0  0  0  0  0  0  0  0  0  0  0  0
   20.7859    7.3455    7.4214 H   0  0  0  0  0  0  0  0  0  0  0  0
   22.2925    6.9777    7.9329 H   0  0  0  0  0  0  0  0  0  0  0  0
   21.3318    7.9340    8.8435 H   0  0  0  0  0  0  0  0  0  0  0  0
  1  2  2  0  0  0  0
  1  3  1  0  0  0  0
  1  4  1  0  0  0  0
  3  5  1  0  0  0  0
  3  6  1  0  0  0  0
  3  7  1  0  0  0  0
  4  8  1  0  0  0  0
  4  9  1  0  0  0  0
  4 10  1  0  0  0  0
M  END
$$$$
5N3T_DMS_A_405
prProtoss 03132510083D 1   1.00000     0.00000     0
Protoss beta proteinsplus
 10  9  0  0  0  0            999 V2000
   39.4030   18.7110   -2.4450 S   0  0  0  0  0  0  0  0  0  0  0  0
   38.5540   19.9440   -2.4550 O   0  0  0  0  0  0  0  0  0  0  0  0
   40.6660   18.8640   -3.7310 C   0  0  0  0  0  0  0  0  0  0  0  0
   40.4710   18.6920   -0.9810 C   0  0  0  0  0  0  0  0  0  0  0  0
   41.2399   18.0451   -3.7337 H   0  0  0  0  0  0  0  0  0  0  0  0
   40.2238   18.9641   -4.6223 H   0  0  0  0  0  0  0  0  0  0  0  0
   41.2326   19.6674   -3.5479 H   0  0  0  0  0  0  0  0  0  0  0  0
   41.0314   17.8638   -0.9879 H   0  0  0  0  0  0  0  0  0  0  0  0
   41.0649   19.4965   -0.9912 H   0  0  0  0  0  0  0  0  0  0  0  0
   39.9060   18.7052   -0.1560 H   0  0  0  0  0  0  0  0  0  0  0  0
  1  2  2  0  0  0  0
  1  3  1  0  0  0  0
  1  4  1  0  0  0  0
  3  5  1  0  0  0  0
  3  6  1  0  0  0  0
  3  7  1  0  0  0  0
  4  8  1  0  0  0  0
  4  9  1  0  0  0  0
  4 10  1  0  0  0  0
M  END
$$$$
2UW4_L15_A_1351
prProtoss 05262315273D 1   1.00000     0.00000     0
Protoss beta proteinsplus
 31 32  0  0  0  0            999 V2000
   10.7360    7.6090    2.6270 N   0  3  0  0  0  0  0  0  0  0  0  0
    2.7950    9.6980    4.2990 N   0  0  0  0  0  0  0  0  0  0  0  0
    2.8250    9.8090    2.9440 N   0  0  0  0  0  0  0  0  0  0  0  0
    4.3990   10.0450    1.0270 C   0  0  0  0  0  0  0  0  0  0  0  0
   11.2940    8.4980    3.6820 C   0  0  0  0  0  0  0  0  0  0  0  0
    4.0830    9.7300    4.6900 C   0  0  0  0  0  0  0  0  0  0  0  0
   10.7080    9.8970    3.6870 C   0  0  0  0  0  0  0  0  0  0  0  0
    8.4750   10.2060    4.8130 C   0  0  0  0  0  0  0  0  0  0  0  0
    8.5140    9.5880    2.5030 C   0  0  0  0  0  0  0  0  0  0  0  0
    7.0930   10.2060    4.7890 C   0  0  0  0  0  0  0  0  0  0  0  0
    7.1370    9.5850    2.4790 C   0  0  0  0  0  0  0  0  0  0  0  0
    4.1070    9.9090    2.4800 C   0  0  0  0  0  0  0  0  0  0  0  0
    9.2000    9.8970    3.6690 C   0  0  0  0  0  0  0  0  0  0  0  0
    6.4090    9.9020    3.6190 C   0  0  0  0  0  0  0  0  0  0  0  0
    4.9410    9.8660    3.5960 C   0  0  0  0  0  0  0  0  0  0  0  0
   11.2844    7.6941    1.7951 H   0  0  0  0  0  0  0  0  0  0  0  0
   10.7569    6.6610    2.9446 H   0  0  0  0  0  0  0  0  0  0  0  0
    5.3878   10.1036    0.8898 H   0  0  0  0  0  0  0  0  0  0  0  0
    4.0414    9.2487    0.5392 H   0  0  0  0  0  0  0  0  0  0  0  0
    3.9640   10.8741    0.6758 H   0  0  0  0  0  0  0  0  0  0  0  0
   12.2812    8.5716    3.5407 H   0  0  0  0  0  0  0  0  0  0  0  0
   11.1150    8.0794    4.5723 H   0  0  0  0  0  0  0  0  0  0  0  0
    4.3862    9.6648    5.6407 H   0  0  0  0  0  0  0  0  0  0  0  0
   11.0375   10.3847    2.8785 H   0  0  0  0  0  0  0  0  0  0  0  0
   11.0180   10.3707    4.5113 H   0  0  0  0  0  0  0  0  0  0  0  0
    8.9566   10.4301    5.6603 H   0  0  0  0  0  0  0  0  0  0  0  0
    9.0243    9.3654    1.6723 H   0  0  0  0  0  0  0  0  0  0  0  0
    6.5820   10.4264    5.6198 H   0  0  0  0  0  0  0  0  0  0  0  0
    6.6568    9.3525    1.6332 H   0  0  0  0  0  0  0  0  0  0  0  0
    9.7918    7.8746    2.4324 H   0  0  0  0  0  0  0  0  0  0  0  0
    2.0125    9.8165    2.3611 H   0  0  0  0  0  0  0  0  0  0  0  0
  1  5  1  0  0  0  0
  2  3  1  0  0  0  0
  2  6  2  0  0  0  0
  3 12  1  0  0  0  0
  4 12  1  0  0  0  0
  5  7  1  0  0  0  0
  6 15  1  0  0  0  0
  7 13  1  0  0  0  0
  8 10  1  0  0  0  0
  8 13  2  0  0  0  0
  9 11  2  0  0  0  0
  9 13  1  0  0  0  0
 10 14  2  0  0  0  0
 11 14  1  0  0  0  0
 12 15  2  0  0  0  0
 14 15  1  0  0  0  0
  1 16  1  0  0  0  0
  1 17  1  0  0  0  0
  1 30  1  0  0  0  0
  4 18  1  0  0  0  0
  4 19  1  0  0  0  0
  4 20  1  0  0  0  0
  5 21  1  0  0  0  0
  5 22  1  0  0  0  0
  6 23  1  0  0  0  0
  7 24  1  0  0  0  0
  7 25  1  0  0  0  0
  8 26  1  0  0  0  0
  9 27  1  0  0  0  0
 10 28  1  0  0  0  0
 11 29  1  0  0  0  0
  3 31  1  0  0  0  0
M  CHG  1   1   1
M  END
$$$$
5N32_8K5_A_401
prProtoss 08192304053D 1   1.00000     0.00000     0
Protoss beta proteinsplus
 21 21  0  0  0  0            999 V2000
  -16.7160   24.7850  -22.8010 Cl  0  0  0  0  0  0  0  0  0  0  0  0
  -11.7360   25.1950  -27.6310 S   0  0  0  0  0  0  0  0  0  0  0  0
   -9.8020   25.5040  -25.8530 N   0  0  0  0  0  0  0  0  0  0  0  0
  -10.0620   23.3930  -26.6770 N   0  0  0  0  0  0  0  0  0  0  0  0
  -12.5370   26.5720  -26.7430 C   0  0  0  0  0  0  0  0  0  0  0  0
  -15.3860   26.6430  -24.2400 C   0  0  0  0  0  0  0  0  0  0  0  0
  -14.8120   24.3550  -24.6670 C   0  0  0  0  0  0  0  0  0  0  0  0
  -14.4140   27.0460  -25.1400 C   0  0  0  0  0  0  0  0  0  0  0  0
  -13.8420   24.7730  -25.5620 C   0  0  0  0  0  0  0  0  0  0  0  0
  -10.4210   24.6500  -26.6320 C   0  0  0  0  0  0  0  0  0  0  0  0
  -15.5630   25.2990  -24.0070 C   0  0  0  0  0  0  0  0  0  0  0  0
  -13.6240   26.1210  -25.8040 C   0  0  0  0  0  0  0  0  0  0  0  0
   -9.0451   25.1969  -25.2761 H   0  0  0  0  0  0  0  0  0  0  0  0
  -10.0868   26.4624  -25.8358 H   0  0  0  0  0  0  0  0  0  0  0  0
   -9.3073   23.0678  -26.1072 H   0  0  0  0  0  0  0  0  0  0  0  0
  -12.9367   27.1943  -27.4161 H   0  0  0  0  0  0  0  0  0  0  0  0
  -11.8406   27.0564  -26.2135 H   0  0  0  0  0  0  0  0  0  0  0  0
  -15.9508   27.3189  -23.7665 H   0  0  0  0  0  0  0  0  0  0  0  0
  -14.9643   23.3804  -24.5028 H   0  0  0  0  0  0  0  0  0  0  0  0
  -14.2797   28.0216  -25.3139 H   0  0  0  0  0  0  0  0  0  0  0  0
  -13.2894   24.0916  -26.0419 H   0  0  0  0  0  0  0  0  0  0  0  0
  1 11  1  0  0  0  0
  2  5  1  0  0  0  0
  2 10  1  0  0  0  0
  3 10  1  0  0  0  0
  4 10  2  0  0  0  0
  5 12  1  0  0  0  0
  6  8  1  0  0  0  0
  6 11  2  0  0  0  0
  7  9  2  0  0  0  0
  7 11  1  0  0  0  0
  8 12  2  0  0  0  0
  9 12  1  0  0  0  0
  3 13  1  0  0  0  0
  3 14  1  0  0  0  0
  4 15  1  0  0  0  0
  5 16  1  0  0  0  0
  5 17  1  0  0  0  0
  6 18  1  0  0  0  0
  7 19  1  0  0  0  0
  8 20  1  0  0  0  0
  9 21  1  0  0  0  0
M  END
$$$$
5N32_8K5_A_402
prProtoss 08192304053D 1   1.00000     0.00000     0
Protoss beta proteinsplus
 21 21  0  0  0  0            999 V2000
   -4.6080    2.8010  -41.9100 Cl  0  0  0  0  0  0  0  0  0  0  0  0
   -4.9280    4.1580  -35.0790 S   0  0  0  0  0  0  0  0  0  0  0  0
   -3.3000    5.9160  -33.9840 N   0  0  0  0  0  0  0  0  0  0  0  0
   -3.5680    6.1080  -36.2420 N   0  0  0  0  0  0  0  0  0  0  0  0
   -6.2040    4.4510  -36.3470 C   0  0  0  0  0  0  0  0  0  0  0  0
   -6.3730    3.6450  -40.0470 C   0  0  0  0  0  0  0  0  0  0  0  0
   -4.1580    3.1590  -39.2700 C   0  0  0  0  0  0  0  0  0  0  0  0
   -6.7320    4.0220  -38.7660 C   0  0  0  0  0  0  0  0  0  0  0  0
   -4.5320    3.5360  -37.9930 C   0  0  0  0  0  0  0  0  0  0  0  0
   -3.8390    5.5120  -35.1040 C   0  0  0  0  0  0  0  0  0  0  0  0
   -5.0840    3.2260  -40.2860 C   0  0  0  0  0  0  0  0  0  0  0  0
   -5.8170    3.9830  -37.7250 C   0  0  0  0  0  0  0  0  0  0  0  0
   -2.6716    6.6939  -33.9836 H   0  0  0  0  0  0  0  0  0  0  0  0
   -2.9420    6.8875  -36.2615 H   0  0  0  0  0  0  0  0  0  0  0  0
   -6.3866    5.4333  -36.3883 H   0  0  0  0  0  0  0  0  0  0  0  0
   -7.0360    3.9685  -36.0732 H   0  0  0  0  0  0  0  0  0  0  0  0
   -7.0413    3.6764  -40.7902 H   0  0  0  0  0  0  0  0  0  0  0  0
   -3.2273    2.8420  -39.4527 H   0  0  0  0  0  0  0  0  0  0  0  0
   -7.6672    4.3279  -38.5874 H   0  0  0  0  0  0  0  0  0  0  0  0
   -3.8643    3.4854  -37.2502 H   0  0  0  0  0  0  0  0  0  0  0  0
   -3.9876    5.7824  -37.0893 H   0  0  0  0  0  0  0  0  0  0  0  0
  1 11  1  0  0  0  0
  2  5  1  0  0  0  0
  2 10  1  0  0  0  0
  3 10  2  0  0  0  0
  4 10  1  0  0  0  0
  5 12  1  0  0  0  0
  6  8  1  0  0  0  0
  6 11  2  0  0  0  0
  7  9  2  0  0  0  0
  7 11  1  0  0  0  0
  8 12  2  0  0  0  0
  9 12  1  0  0  0  0
  9 20  1  0  0  0  0
  3 13  1  0  0  0  0
  4 14  1  0  0  0  0
  5 15  1  0  0  0  0
  5 16  1  0  0  0  0
  6 17  1  0  0  0  0
  7 18  1  0  0  0  0
  8 19  1  0  0  0  0
  4 21  1  0  0  0  0
M  END
$$$$
5N32_MPD_A_403
prProtoss 08192304053D 1   1.00000     0.00000     0
Protoss beta proteinsplus
 22 21  0  0  0  0            999 V2000
   -8.2890   11.9550   -4.5700 O   0  0  0  0  0  0  0  0  0  0  0  0
   -9.2700   13.1150   -2.3360 O   0  0  0  0  0  0  0  0  0  0  0  0
   -8.7740   12.9750   -6.6660 C   0  0  0  0  0  0  0  0  0  0  0  0
   -9.4650   15.3960   -3.0650 C   0  0  0  0  0  0  0  0  0  0  0  0
  -11.5040   13.9780   -2.5640 C   0  0  0  0  0  0  0  0  0  0  0  0
  -10.1260   13.5060   -4.5940 C   0  0  0  0  0  0  0  0  0  0  0  0
   -8.7490   13.1510   -5.1520 C   0  0  1  0  0  0  0  0  0  0  0  0
  -10.0890   14.0030   -3.1450 C   0  0  0  0  0  0  0  0  0  0  0  0
   -7.2933   11.9878   -4.4835 H   0  0  0  0  0  0  0  0  0  0  0  0
   -8.9055   12.3821   -2.9104 H   0  0  0  0  0  0  0  0  0  0  0  0
   -9.0993   13.8181   -7.0943 H   0  0  0  0  0  0  0  0  0  0  0  0
   -7.8516   12.7695   -6.9930 H   0  0  0  0  0  0  0  0  0  0  0  0
   -9.3875   12.2220   -6.9040 H   0  0  0  0  0  0  0  0  0  0  0  0
  -10.0052   16.0352   -3.6124 H   0  0  0  0  0  0  0  0  0  0  0  0
   -9.4518   15.7012   -2.1128 H   0  0  0  0  0  0  0  0  0  0  0  0
   -8.5297   15.3630   -3.4174 H   0  0  0  0  0  0  0  0  0  0  0  0
  -12.0950   14.5810   -3.0998 H   0  0  0  0  0  0  0  0  0  0  0  0
  -11.8617   13.0448   -2.5976 H   0  0  0  0  0  0  0  0  0  0  0  0
  -11.4802   14.2919   -1.6148 H   0  0  0  0  0  0  0  0  0  0  0  0
  -10.7036   12.6907   -4.6343 H   0  0  0  0  0  0  0  0  0  0  0  0
  -10.5232   14.2245   -5.1650 H   0  0  0  0  0  0  0  0  0  0  0  0
   -8.1104   13.8860   -4.9241 H   0  0  0  0  0  0  0  0  0  0  0  0
  1  7  1  0  0  0  0
  2  8  1  0  0  0  0
  3  7  1  0  0  0  0
  4  8  1  0  0  0  0
  5  8  1  0  0  0  0
  6  7  1  0  0  0  0
  6  8  1  0  0  0  0
  1  9  1  0  0  0  0
  2 10  1  0  0  0  0
  3 11  1  0  0  0  0
  3 12  1  0  0  0  0
  3 13  1  0  0  0  0
  4 14  1  0  0  0  0
  4 15  1  0  0  0  0
  4 16  1  0  0  0  0
  5 17  1  0  0  0  0
  5 18  1  0  0  0  0
  5 19  1  0  0  0  0
  6 20  1  0  0  0  0
  6 21  1  0  0  0  0
  7 22  1  0  0  0  0
M  END
$$$$
5IZJ_PO4_A_401
prProtoss 08172316043D 1   1.00000     0.00000     0
Protoss beta proteinsplus
  5  4  0  0  0  0            999 V2000
    1.1000    1.1540   88.7550 P   0  0  0  0  0  0  0  0  0  0  0  0
    0.6110    0.6140   87.4340 O   0  0  0  0  0  0  0  0  0  0  0  0
    1.0160    2.6610   88.7480 O   0  5  0  0  0  0  0  0  0  0  0  0
    2.5310    0.7340   88.9530 O   0  5  0  0  0  0  0  0  0  0  0  0
    0.2470    0.6000   89.8720 O   0  5  0  0  0  0  0  0  0  0  0  0
  1  2  2  0  0  0  0
  1  3  1  0  0  0  0
  1  4  1  0  0  0  0
  1  5  1  0  0  0  0
M  CHG  3   3  -1   4  -1   5  -1
M  END
$$$$
5IZJ_PO4_A_402
prProtoss 08172316043D 1   1.00000     0.00000     0
Protoss beta proteinsplus
  5  4  0  0  0  0            999 V2000
    8.2210  -28.5940   95.4380 P   0  0  0  0  0  0  0  0  0  0  0  0
    8.9970  -28.6530   94.1450 O   0  0  0  0  0  0  0  0  0  0  0  0
    6.7760  -28.2990   95.0850 O   0  5  0  0  0  0  0  0  0  0  0  0
    8.3150  -29.9050   96.1790 O   0  5  0  0  0  0  0  0  0  0  0  0
    8.7600  -27.4960   96.3230 O   0  5  0  0  0  0  0  0  0  0  0  0
  1  2  2  0  0  0  0
  1  3  1  0  0  0  0
  1  4  1  0  0  0  0
  1  5  1  0  0  0  0
M  CHG  3   3  -1   4  -1   5  -1
M  END
$$$$
5IZJ_PO4_A_403
prProtoss 08172316043D 1   1.00000     0.00000     0
Protoss beta proteinsplus
  5  4  0  0  0  0            999 V2000
    9.8080  -23.9930  115.4020 P   0  0  0  0  0  0  0  0  0  0  0  0
    9.4920  -23.9820  113.9270 O   0  0  0  0  0  0  0  0  0  0  0  0
   11.2860  -24.1980  115.5900 O   0  5  0  0  0  0  0  0  0  0  0  0
    9.0610  -25.1260  116.0600 O   0  5  0  0  0  0  0  0  0  0  0  0
    9.3960  -22.6880  116.0340 O   0  5  0  0  0  0  0  0  0  0  0  0
  1  2  2  0  0  0  0
  1  3  1  0  0  0  0
  1  4  1  0  0  0  0
  1  5  1  0  0  0  0
M  CHG  3   3  -1   4  -1   5  -1
M  END
$$$$
5IZJ_PO4_A_404
prProtoss 08172316043D 1   1.00000     0.00000     0
Protoss beta proteinsplus
  5  4  0  0  0  0            999 V2000
   28.7770  -16.3140   91.9910 P   0  0  0  0  0  0  0  0  0  0  0  0
   29.8490  -15.6510   91.1600 O   0  0  0  0  0  0  0  0  0  0  0  0
   27.6150  -15.3660   92.1830 O   0  5  0  0  0  0  0  0  0  0  0  0
   29.3560  -16.6830   93.3340 O   0  5  0  0  0  0  0  0  0  0  0  0
   28.3060  -17.5650   91.2890 O   0  5  0  0  0  0  0  0  0  0  0  0
  1  2  2  0  0  0  0
  1  3  1  0  0  0  0
  1  4  1  0  0  0  0
  1  5  1  0  0  0  0
M  CHG  3   3  -1   4  -1   5  -1
M  END
$$$$
5IZJ_PO4_A_405
prProtoss 08172316043D 1   1.00000     0.00000     0
Protoss beta proteinsplus
  5  4  0  0  0  0            999 V2000
   30.0980  -16.0020   98.9160 P   0  0  0  0  0  0  0  0  0  0  0  0
   29.9670  -14.9080   97.8840 O   0  0  0  0  0  0  0  0  0  0  0  0
   28.7910  -16.7530   99.0240 O   0  5  0  0  0  0  0  0  0  0  0  0
   31.2020  -16.9540   98.5160 O   0  5  0  0  0  0  0  0  0  0  0  0
   30.4130  -15.3870  100.2570 O   0  5  0  0  0  0  0  0  0  0  0  0
  1  2  2  0  0  0  0
  1  3  1  0  0  0  0
  1  4  1  0  0  0  0
  1  5  1  0  0  0  0
M  CHG  3   3  -1   4  -1   5  -1
M  END
$$$$
5IZJ_PO4_A_406
prProtoss 08172316043D 1   1.00000     0.00000     0
Protoss beta proteinsplus
  5  4  0  0  0  0            999 V2000
    2.4730  -16.3100   75.8570 P   0  0  0  0  0  0  0  0  0  0  0  0
    3.5280  -15.6190   75.0250 O   0  0  0  0  0  0  0  0  0  0  0  0
    1.2730  -15.4030   75.9950 O   0  5  0  0  0  0  0  0  0  0  0  0
    2.0590  -17.5830   75.1620 O   0  5  0  0  0  0  0  0  0  0  0  0
    3.0370  -16.6340   77.2220 O   0  5  0  0  0  0  0  0  0  0  0  0
  1  2  2  0  0  0  0
  1  3  1  0  0  0  0
  1  4  1  0  0  0  0
  1  5  1  0  0  0  0
M  CHG  3   3  -1   4  -1   5  -1
M  END
$$$$
5IZJ_PO4_A_407
prProtoss 08172316043D 1   1.00000     0.00000     0
Protoss beta proteinsplus
  5  4  0  0  0  0            999 V2000
   -7.7460   -6.7800   93.2600 P   0  0  0  0  0  0  0  0  0  0  0  0
   -8.1630   -7.7010   92.1390 O   0  0  0  0  0  0  0  0  0  0  0  0
   -8.9280   -5.9290   93.6600 O   0  5  0  0  0  0  0  0  0  0  0  0
   -6.6120   -5.8930   92.8070 O   0  5  0  0  0  0  0  0  0  0  0  0
   -7.2770   -7.6010   94.4420 O   0  5  0  0  0  0  0  0  0  0  0  0
  1  2  2  0  0  0  0
  1  3  1  0  0  0  0
  1  4  1  0  0  0  0
  1  5  1  0  0  0  0
M  CHG  3   3  -1   4  -1   5  -1
M  END
$$$$
5IZJ_PO4_A_408
prProtoss 08172316043D 1   1.00000     0.00000     0
Protoss beta proteinsplus
  5  4  0  0  0  0            999 V2000
   51.1230  -12.1010  105.6130 P   0  0  0  0  0  0  0  0  0  0  0  0
   50.1060  -11.2110  104.9350 O   0  0  0  0  0  0  0  0  0  0  0  0
   52.5120  -11.7070  105.1660 O   0  5  0  0  0  0  0  0  0  0  0  0
   50.8550  -13.5430  105.2450 O   0  5  0  0  0  0  0  0  0  0  0  0
   51.0210  -11.9450  107.1120 O   0  5  0  0  0  0  0  0  0  0  0  0
  1  2  2  0  0  0  0
  1  3  1  0  0  0  0
  1  4  1  0  0  0  0
  1  5  1  0  0  0  0
M  CHG  3   3  -1   4  -1   5  -1
M  END
$$$$
5IZJ_PO4_A_409
prProtoss 08172316043D 1   1.00000     0.00000     0
Protoss beta proteinsplus
  5  4  0  0  0  0            999 V2000
   22.7870  -27.3700  111.1500 P   0  0  0  0  0  0  0  0  0  0  0  0
   21.6970  -26.5190  110.5420 O   0  0  0  0  0  0  0  0  0  0  0  0
   24.1330  -26.8340  110.7250 O   0  5  0  0  0  0  0  0  0  0  0  0
   22.6330  -28.7980  110.6820 O   0  5  0  0  0  0  0  0  0  0  0  0
   22.6810  -27.3290  112.6570 O   0  5  0  0  0  0  0  0  0  0  0  0
  1  2  2  0  0  0  0
  1  3  1  0  0  0  0
  1  4  1  0  0  0  0
  1  5  1  0  0  0  0
M  CHG  3   3  -1   4  -1   5  -1
M  END
$$$$
5IZJ_PO4_A_410
prProtoss 08172316043D 1   1.00000     0.00000     0
Protoss beta proteinsplus
  5  4  0  0  0  0            999 V2000
   23.4890  -26.5840   79.4700 P   0  0  0  0  0  0  0  0  0  0  0  0
   22.5720  -26.5830   78.2680 O   0  0  0  0  0  0  0  0  0  0  0  0
   24.8950  -26.9160   79.0290 O   0  5  0  0  0  0  0  0  0  0  0  0
   23.0070  -27.6110   80.4690 O   0  5  0  0  0  0  0  0  0  0  0  0
   23.4870  -25.2190   80.1090 O   0  5  0  0  0  0  0  0  0  0  0  0
  1  2  2  0  0  0  0
  1  3  1  0  0  0  0
  1  4  1  0  0  0  0
  1  5  1  0  0  0  0
M  CHG  3   3  -1   4  -1   5  -1
M  END
$$$$
5IZJ_PO4_A_411
prProtoss 08172316043D 1   1.00000     0.00000     0
Protoss beta proteinsplus
  5  4  0  0  0  0            999 V2000
   10.7450  -27.3030   67.0280 P   0  0  0  0  0  0  0  0  0  0  0  0
   11.7140  -26.3550   66.3660 O   0  0  0  0  0  0  0  0  0  0  0  0
    9.3760  -27.1410   66.4080 O   0  5  0  0  0  0  0  0  0  0  0  0
   11.2250  -28.7220   66.8310 O   0  5  0  0  0  0  0  0  0  0  0  0
   10.6820  -26.9870   68.5020 O   0  5  0  0  0  0  0  0  0  0  0  0
  1  2  2  0  0  0  0
  1  3  1  0  0  0  0
  1  4  1  0  0  0  0
  1  5  1  0  0  0  0
M  CHG  3   3  -1   4  -1   5  -1
M  END
$$$$
5IZJ_PO4_A_412
prProtoss 08172316043D 1   1.00000     0.00000     0
Protoss beta proteinsplus
  5  4  0  0  0  0            999 V2000
    8.2210  -10.9020   71.4340 P   0  0  0  0  0  0  0  0  0  0  0  0
    7.5600  -11.1270   70.0940 O   0  0  0  0  0  0  0  0  0  0  0  0
    9.6910  -10.6190   71.2300 O   0  5  0  0  0  0  0  0  0  0  0  0
    8.0670  -12.1380   72.2890 O   0  5  0  0  0  0  0  0  0  0  0  0
    7.5690   -9.7220   72.1170 O   0  5  0  0  0  0  0  0  0  0  0  0
  1  2  2  0  0  0  0
  1  3  1  0  0  0  0
  1  4  1  0  0  0  0
  1  5  1  0  0  0  0
M  CHG  3   3  -1   4  -1   5  -1
M  END
$$$$
5IZJ_PO4_A_413
prProtoss 08172316043D 1   1.00000     0.00000     0
Protoss beta proteinsplus
  5  4  0  0  0  0            999 V2000
    0.9830   -6.7170   79.5370 P   0  0  0  0  0  0  0  0  0  0  0  0
    1.9590   -5.8920   78.7280 O   0  0  0  0  0  0  0  0  0  0  0  0
   -0.4080   -6.5520   78.9690 O   0  5  0  0  0  0  0  0  0  0  0  0
    1.3730   -8.1740   79.4830 O   0  5  0  0  0  0  0  0  0  0  0  0
    0.9880   -6.2490   80.9720 O   0  5  0  0  0  0  0  0  0  0  0  0
  1  2  2  0  0  0  0
  1  3  1  0  0  0  0
  1  4  1  0  0  0  0
  1  5  1  0  0  0  0
M  CHG  3   3  -1   4  -1   5  -1
M  END
$$$$
5IZJ_6J9_A_414
prProtoss 08172316043D 1   1.00000     0.00000     0
Protoss beta proteinsplus
 29 31  0  0  0  0            999 V2000
   12.5610  -34.5040   79.0840 N   0  3  0  0  0  0  0  0  0  0  0  0
    9.2970  -30.5550   83.6220 N   0  0  0  0  0  0  0  0  0  0  0  0
    9.7520  -31.7390   81.6180 N   0  0  0  0  0  0  0  0  0  0  0  0
   11.2670  -30.3060   85.1460 N   0  0  0  0  0  0  0  0  0  0  0  0
   11.8990  -32.6530   81.0310 N   0  0  0  0  0  0  0  0  0  0  0  0
    8.9090  -31.0690   82.4350 C   0  0  0  0  0  0  0  0  0  0  0  0
   12.2280  -34.9710   80.4490 C   0  0  0  0  0  0  0  0  0  0  0  0
   11.7720  -33.3090   78.7120 C   0  0  0  0  0  0  0  0  0  0  0  0
   12.5710  -30.7120   85.0680 C   0  0  0  0  0  0  0  0  0  0  0  0
   12.5740  -33.8820   81.4690 C   0  0  0  0  0  0  0  0  0  0  0  0
   12.0830  -32.1490   79.6640 C   0  0  0  0  0  0  0  0  0  0  0  0
   12.8280  -31.4020   83.8900 C   0  0  0  0  0  0  0  0  0  0  0  0
   10.5810  -30.6890   84.0530 C   0  0  0  0  0  0  0  0  0  0  0  0
   11.0640  -31.9470   81.9230 C   0  0  0  0  0  0  0  0  0  0  0  0
   11.5680  -31.4010   83.2230 C   0  0  0  0  0  0  0  0  0  0  0  0
   12.3660  -35.2376   78.4330 H   0  0  0  0  0  0  0  0  0  0  0  0
   10.8764  -29.7942   85.9111 H   0  0  0  0  0  0  0  0  0  0  0  0
    7.9585  -30.9489   82.1485 H   0  0  0  0  0  0  0  0  0  0  0  0
   12.7528  -35.7971   80.6545 H   0  0  0  0  0  0  0  0  0  0  0  0
   11.2505  -35.1756   80.5006 H   0  0  0  0  0  0  0  0  0  0  0  0
   10.7976  -33.5273   78.7653 H   0  0  0  0  0  0  0  0  0  0  0  0
   12.0026  -33.0394   77.7770 H   0  0  0  0  0  0  0  0  0  0  0  0
   13.2566  -30.5336   85.7738 H   0  0  0  0  0  0  0  0  0  0  0  0
   12.2499  -34.1467   82.3772 H   0  0  0  0  0  0  0  0  0  0  0  0
   13.5634  -33.7392   81.4966 H   0  0  0  0  0  0  0  0  0  0  0  0
   13.0262  -31.8426   79.5352 H   0  0  0  0  0  0  0  0  0  0  0  0
   11.4586  -31.3870   79.4921 H   0  0  0  0  0  0  0  0  0  0  0  0
   13.6909  -31.8036   83.5831 H   0  0  0  0  0  0  0  0  0  0  0  0
   13.5338  -34.2754   79.0471 H   0  0  0  0  0  0  0  0  0  0  0  0
  1  7  1  0  0  0  0
  1  8  1  0  0  0  0
  2  6  2  0  0  0  0
  2 13  1  0  0  0  0
  3  6  1  0  0  0  0
  3 14  2  0  0  0  0
  4  9  1  0  0  0  0
  4 13  1  0  0  0  0
  5 10  1  0  0  0  0
  5 11  1  0  0  0  0
  5 14  1  0  0  0  0
  7 10  1  0  0  0  0
  8 11  1  0  0  0  0
  9 12  2  0  0  0  0
 12 15  1  0  0  0  0
 13 15  2  0  0  0  0
 14 15  1  0  0  0  0
  1 16  1  0  0  0  0
  4 17  1  0  0  0  0
  6 18  1  0  0  0  0
  7 19  1  0  0  0  0
  7 20  1  0  0  0  0
  8 21  1  0  0  0  0
  8 22  1  0  0  0  0
  9 23  1  0  0  0  0
 10 24  1  0  0  0  0
 10 25  1  0  0  0  0
 11 26  1  0  0  0  0
 11 27  1  0  0  0  0
 12 28  1  0  0  0  0
  1 29  1  0  0  0  0
M  CHG  1   1   1
M  END
$$$$
5IZJ_PO4_B_401
prProtoss 08172316043D 1   1.00000     0.00000     0
Protoss beta proteinsplus
  5  4  0  0  0  0            999 V2000
   10.1720   31.3330   97.0340 P   0  0  0  0  0  0  0  0  0  0  0  0
   10.6930   30.3020   96.0610 O   0  0  0  0  0  0  0  0  0  0  0  0
    8.7720   30.9800   97.4830 O   0  5  0  0  0  0  0  0  0  0  0  0
   10.1470   32.6700   96.3360 O   0  5  0  0  0  0  0  0  0  0  0  0
   11.0520   31.3560   98.2560 O   0  5  0  0  0  0  0  0  0  0  0  0
  1  2  2  0  0  0  0
  1  3  1  0  0  0  0
  1  4  1  0  0  0  0
  1  5  1  0  0  0  0
M  CHG  3   3  -1   4  -1   5  -1
M  END
$$$$
5IZJ_PO4_B_402
prProtoss 08172316043D 1   1.00000     0.00000     0
Protoss beta proteinsplus
  5  4  0  0  0  0            999 V2000
    1.4370    1.9590  104.1570 P   0  0  0  0  0  0  0  0  0  0  0  0
    0.4550    2.0060  103.0130 O   0  0  0  0  0  0  0  0  0  0  0  0
    2.5620    2.9090  103.8550 O   0  5  0  0  0  0  0  0  0  0  0  0
    1.9910    0.5640  104.3070 O   0  5  0  0  0  0  0  0  0  0  0  0
    0.7600    2.3660  105.4420 O   0  5  0  0  0  0  0  0  0  0  0  0
  1  2  2  0  0  0  0
  1  3  1  0  0  0  0
  1  4  1  0  0  0  0
  1  5  1  0  0  0  0
M  CHG  3   3  -1   4  -1   5  -1
M  END
$$$$
5IZJ_PO4_B_403
prProtoss 08172316043D 1   1.00000     0.00000     0
Protoss beta proteinsplus
  5  4  0  0  0  0            999 V2000
   29.6600   17.5440   99.2050 P   0  0  0  0  0  0  0  0  0  0  0  0
   29.1220   17.3830   97.8050 O   0  0  0  0  0  0  0  0  0  0  0  0
   31.1150   17.1470   99.2280 O   0  5  0  0  0  0  0  0  0  0  0  0
   28.8610   16.6730  100.1410 O   0  5  0  0  0  0  0  0  0  0  0  0
   29.5280   18.9750   99.6570 O   0  5  0  0  0  0  0  0  0  0  0  0
  1  2  2  0  0  0  0
  1  3  1  0  0  0  0
  1  4  1  0  0  0  0
  1  5  1  0  0  0  0
M  CHG  3   3  -1   4  -1   5  -1
M  END
$$$$
5IZJ_PO4_B_404
prProtoss 08172316043D 1   1.00000     0.00000     0
Protoss beta proteinsplus
  5  4  0  0  0  0            999 V2000
   11.2240   26.5320   77.0790 P   0  0  0  0  0  0  0  0  0  0  0  0
   10.4340   25.4440   76.3940 O   0  0  0  0  0  0  0  0  0  0  0  0
   10.7970   27.8770   76.5440 O   0  5  0  0  0  0  0  0  0  0  0  0
   12.6900   26.3310   76.8130 O   0  5  0  0  0  0  0  0  0  0  0  0
   10.9640   26.4910   78.5640 O   0  5  0  0  0  0  0  0  0  0  0  0
  1  2  2  0  0  0  0
  1  3  1  0  0  0  0
  1  4  1  0  0  0  0
  1  5  1  0  0  0  0
M  CHG  3   3  -1   4  -1   5  -1
M  END
$$$$
5IZJ_PO4_B_405
prProtoss 08172316043D 1   1.00000     0.00000     0
Protoss beta proteinsplus
  5  4  0  0  0  0            999 V2000
   24.4210   29.3780   81.3240 P   0  0  0  0  0  0  0  0  0  0  0  0
   24.1350   29.2700   79.8430 O   0  0  0  0  0  0  0  0  0  0  0  0
   25.8600   29.0000   81.5810 O   0  5  0  0  0  0  0  0  0  0  0  0
   23.5180   28.4390   82.0880 O   0  5  0  0  0  0  0  0  0  0  0  0
   24.1690   30.7980   81.7760 O   0  5  0  0  0  0  0  0  0  0  0  0
  1  2  2  0  0  0  0
  1  3  1  0  0  0  0
  1  4  1  0  0  0  0
  1  5  1  0  0  0  0
M  CHG  3   3  -1   4  -1   5  -1
M  END
$$$$
5IZJ_PO4_B_406
prProtoss 08172316043D 1   1.00000     0.00000     0
Protoss beta proteinsplus
  5  4  0  0  0  0            999 V2000
   25.1310   13.5840   93.8410 P   0  0  0  0  0  0  0  0  0  0  0  0
   25.3840   13.3440   92.3710 O   0  0  0  0  0  0  0  0  0  0  0  0
   23.7670   14.1980   94.0340 O   0  5  0  0  0  0  0  0  0  0  0  0
   26.1870   14.5260   94.3560 O   0  5  0  0  0  0  0  0  0  0  0  0
   25.1970   12.2720   94.5880 O   0  5  0  0  0  0  0  0  0  0  0  0
  1  2  2  0  0  0  0
  1  3  1  0  0  0  0
  1  4  1  0  0  0  0
  1  5  1  0  0  0  0
M  CHG  3   3  -1   4  -1   5  -1
M  END
$$$$
5IZJ_PO4_B_407
prProtoss 08172316043D 1   1.00000     0.00000     0
Protoss beta proteinsplus
  5  4  0  0  0  0            999 V2000
   23.2690   -0.0520  111.2740 P   0  0  0  0  0  0  0  0  0  0  0  0
   22.6940    1.0250  110.3910 O   0  0  0  0  0  0  0  0  0  0  0  0
   24.7540   -0.1590  111.0190 O   0  5  0  0  0  0  0  0  0  0  0  0
   22.6020   -1.3680  110.9550 O   0  5  0  0  0  0  0  0  0  0  0  0
   23.0230    0.3010  112.7220 O   0  5  0  0  0  0  0  0  0  0  0  0
  1  2  2  0  0  0  0
  1  3  1  0  0  0  0
  1  4  1  0  0  0  0
  1  5  1  0  0  0  0
M  CHG  3   3  -1   4  -1   5  -1
M  END
$$$$
5IZJ_PO4_B_408
prProtoss 08172316043D 1   1.00000     0.00000     0
Protoss beta proteinsplus
  5  4  0  0  0  0            999 V2000
    3.9860   19.6810  116.7280 P   0  0  0  0  0  0  0  0  0  0  0  0
    4.6770   19.4020  115.4160 O   0  0  0  0  0  0  0  0  0  0  0  0
    2.5100   19.8920  116.4820 O   0  5  0  0  0  0  0  0  0  0  0  0
    4.1630   18.5170  117.6740 O   0  5  0  0  0  0  0  0  0  0  0  0
    4.5830   20.9200  117.3510 O   0  5  0  0  0  0  0  0  0  0  0  0
  1  2  2  0  0  0  0
  1  3  1  0  0  0  0
  1  4  1  0  0  0  0
  1  5  1  0  0  0  0
M  CHG  3   3  -1   4  -1   5  -1
M  END
$$$$
5IZJ_PO4_B_409
prProtoss 08172316043D 1   1.00000     0.00000     0
Protoss beta proteinsplus
  5  4  0  0  0  0            999 V2000
    9.4610   14.3090  121.1570 P   0  0  0  0  0  0  0  0  0  0  0  0
    9.4730   15.4640  120.1820 O   0  0  0  0  0  0  0  0  0  0  0  0
   10.8590   13.7580  121.3050 O   0  5  0  0  0  0  0  0  0  0  0  0
    8.5430   13.2150  120.6640 O   0  5  0  0  0  0  0  0  0  0  0  0
    8.9660   14.7970  122.4990 O   0  5  0  0  0  0  0  0  0  0  0  0
  1  2  2  0  0  0  0
  1  3  1  0  0  0  0
  1  4  1  0  0  0  0
  1  5  1  0  0  0  0
M  CHG  3   3  -1   4  -1   5  -1
M  END
$$$$
5IZJ_PO4_B_410
prProtoss 08172316043D 1   1.00000     0.00000     0
Protoss beta proteinsplus
  5  4  0  0  0  0            999 V2000
   51.6970   18.7860  107.2980 P   0  0  0  0  0  0  0  0  0  0  0  0
   52.8040   18.9750  106.2880 O   0  0  0  0  0  0  0  0  0  0  0  0
   50.3970   19.3160  106.7390 O   0  5  0  0  0  0  0  0  0  0  0  0
   51.5600   17.3160  107.6140 O   0  5  0  0  0  0  0  0  0  0  0  0
   52.0460   19.5180  108.5690 O   0  5  0  0  0  0  0  0  0  0  0  0
  1  2  2  0  0  0  0
  1  3  1  0  0  0  0
  1  4  1  0  0  0  0
  1  5  1  0  0  0  0
M  CHG  3   3  -1   4  -1   5  -1
M  END
$$$$
5IZJ_PO4_B_411
prProtoss 08172316043D 1   1.00000     0.00000     0
Protoss beta proteinsplus
  5  4  0  0  0  0            999 V2000
   12.2100   33.1530   82.0980 P   0  0  0  0  0  0  0  0  0  0  0  0
   11.0540   33.3890   81.1530 O   0  0  0  0  0  0  0  0  0  0  0  0
   13.4680   32.8900   81.2960 O   0  5  0  0  0  0  0  0  0  0  0  0
   11.9020   31.9560   82.9740 O   0  5  0  0  0  0  0  0  0  0  0  0
   12.4090   34.3720   82.9750 O   0  5  0  0  0  0  0  0  0  0  0  0
  1  2  2  0  0  0  0
  1  3  1  0  0  0  0
  1  4  1  0  0  0  0
  1  5  1  0  0  0  0
M  CHG  3   3  -1   4  -1   5  -1
M  END
$$$$
5IZJ_PO4_B_412
prProtoss 08172316043D 1   1.00000     0.00000     0
Protoss beta proteinsplus
  5  4  0  0  0  0            999 V2000
   25.7250   37.6130   88.7920 P   0  0  0  0  0  0  0  0  0  0  0  0
   26.8460   37.6270   87.7780 O   0  0  0  0  0  0  0  0  0  0  0  0
   24.5710   38.4410   88.2770 O   0  5  0  0  0  0  0  0  0  0  0  0
   25.2590   36.1960   89.0300 O   0  5  0  0  0  0  0  0  0  0  0  0
   26.2180   38.1950   90.0950 O   0  5  0  0  0  0  0  0  0  0  0  0
  1  2  2  0  0  0  0
  1  3  1  0  0  0  0
  1  4  1  0  0  0  0
  1  5  1  0  0  0  0
M  CHG  3   3  -1   4  -1   5  -1
M  END
$$$$
5IZJ_6J9_B_413
prProtoss 08172316043D 1   1.00000     0.00000     0
Protoss beta proteinsplus
 29 31  0  0  0  0            999 V2000
   15.8800   37.2990  113.3940 N   0  3  0  0  0  0  0  0  0  0  0  0
   11.6940   33.2450  109.6060 N   0  0  0  0  0  0  0  0  0  0  0  0
   11.9430   34.5420  111.5770 N   0  0  0  0  0  0  0  0  0  0  0  0
   13.6860   33.2780  108.0900 N   0  0  0  0  0  0  0  0  0  0  0  0
   13.9070   35.8080  112.1320 N   0  0  0  0  0  0  0  0  0  0  0  0
   11.2230   33.7220  110.7780 C   0  0  0  0  0  0  0  0  0  0  0  0
   15.5340   37.5880  111.9870 C   0  0  0  0  0  0  0  0  0  0  0  0
   15.8120   35.8490  113.6690 C   0  0  0  0  0  0  0  0  0  0  0  0
   14.9040   33.8950  108.1600 C   0  0  0  0  0  0  0  0  0  0  0  0
   14.0740   37.2110  111.7300 C   0  0  0  0  0  0  0  0  0  0  0  0
   14.4030   35.2960  113.4190 C   0  0  0  0  0  0  0  0  0  0  0  0
   15.0420   34.6530  109.3190 C   0  0  0  0  0  0  0  0  0  0  0  0
   12.9410   33.5730  109.1710 C   0  0  0  0  0  0  0  0  0  0  0  0
   13.2060   34.9470  111.2660 C   0  0  0  0  0  0  0  0  0  0  0  0
   13.7950   34.4600  109.9820 C   0  0  0  0  0  0  0  0  0  0  0  0
   15.2372   37.7760  113.9934 H   0  0  0  0  0  0  0  0  0  0  0  0
   13.3895   32.6885  107.3387 H   0  0  0  0  0  0  0  0  0  0  0  0
   10.3030   33.4579  111.0675 H   0  0  0  0  0  0  0  0  0  0  0  0
   16.1266   37.0557  111.3824 H   0  0  0  0  0  0  0  0  0  0  0  0
   15.6628   38.5630  111.8061 H   0  0  0  0  0  0  0  0  0  0  0  0
   16.0600   35.6872  114.6242 H   0  0  0  0  0  0  0  0  0  0  0  0
   16.4584   35.3741  113.0717 H   0  0  0  0  0  0  0  0  0  0  0  0
   15.6132   33.8114  107.4599 H   0  0  0  0  0  0  0  0  0  0  0  0
   13.4694   37.7960  112.2706 H   0  0  0  0  0  0  0  0  0  0  0  0
   13.8593   37.3165  110.7590 H   0  0  0  0  0  0  0  0  0  0  0  0
   14.4352   34.2969  113.3921 H   0  0  0  0  0  0  0  0  0  0  0  0
   13.7924   35.5901  114.1543 H   0  0  0  0  0  0  0  0  0  0  0  0
   15.8253   35.1999  109.6147 H   0  0  0  0  0  0  0  0  0  0  0  0
   16.8084   37.6231  113.5756 H   0  0  0  0  0  0  0  0  0  0  0  0
  1  7  1  0  0  0  0
  1  8  1  0  0  0  0
  2  6  2  0  0  0  0
  2 13  1  0  0  0  0
  3  6  1  0  0  0  0
  3 14  2  0  0  0  0
  4  9  1  0  0  0  0
  4 13  1  0  0  0  0
  5 10  1  0  0  0  0
  5 11  1  0  0  0  0
  5 14  1  0  0  0  0
  7 10  1  0  0  0  0
  8 11  1  0  0  0  0
  9 12  2  0  0  0  0
 12 15  1  0  0  0  0
 13 15  2  0  0  0  0
 14 15  1  0  0  0  0
  1 16  1  0  0  0  0
  4 17  1  0  0  0  0
  6 18  1  0  0  0  0
  7 19  1  0  0  0  0
  7 20  1  0  0  0  0
  8 21  1  0  0  0  0
  8 22  1  0  0  0  0
  9 23  1  0  0  0  0
 10 24  1  0  0  0  0
 10 25  1  0  0  0  0
 11 26  1  0  0  0  0
 11 27  1  0  0  0  0
 12 28  1  0  0  0  0
  1 29  1  0  0  0  0
M  CHG  1   1   1
M  END
$$$$
5IZJ_PO4_F_101
prProtoss 08172316043D 1   1.00000     0.00000     0
Protoss beta proteinsplus
  5  4  0  0  0  0            999 V2000
   31.7600   18.1040   93.3470 P   0  0  0  0  0  0  0  0  0  0  0  0
   32.3460   18.0160   91.9650 O   0  0  0  0  0  0  0  0  0  0  0  0
   30.3680   18.6630   93.2050 O   0  5  0  0  0  0  0  0  0  0  0  0
   31.7160   16.7360   93.9730 O   0  5  0  0  0  0  0  0  0  0  0  0
   32.6180   18.9940   94.2080 O   0  5  0  0  0  0  0  0  0  0  0  0
  1  2  2  0  0  0  0
  1  3  1  0  0  0  0
  1  4  1  0  0  0  0
  1  5  1  0  0  0  0
M  CHG  3   3  -1   4  -1   5  -1
M  END
$$$$
5IZJ_ZEU_F_2
prProtoss 08172316043D 1   1.00000     0.00000     0
Protoss beta proteinsplus
 27 26  0  0  0  0            999 V2000
   35.3980   13.6880   92.8150 O   0  0  0  0  0  0  0  0  0  0  0  0
   31.5930   11.4830  100.7520 O   0  0  0  0  0  0  0  0  0  0  0  0
   34.5710   14.5600   93.0570 C   0  0  0  0  0  0  0  0  0  0  0  0
   31.3480   12.6770  100.7320 C   0  0  0  0  0  0  0  0  0  0  0  0
   34.9000   15.6070   94.1010 C   0  0  0  0  0  0  0  0  0  0  0  0
   31.0100   13.2530   99.3680 C   0  0  0  0  0  0  0  0  0  0  0  0
   35.2770   14.9910   95.4460 C   0  0  0  0  0  0  0  0  0  0  0  0
   32.2020   14.0080   98.7760 C   0  0  0  0  0  0  0  0  0  0  0  0
   34.0750   14.3320   96.1090 C   0  0  0  0  0  0  0  0  0  0  0  0
   33.2400   13.1010   98.1260 C   0  0  0  0  0  0  0  0  0  0  0  0
   34.3850   13.9240   97.5450 C   0  0  0  0  0  0  0  0  0  0  0  0
   34.1008   16.1942   94.2296 H   0  0  0  0  0  0  0  0  0  0  0  0
   35.6683   16.1568   93.7732 H   0  0  0  0  0  0  0  0  0  0  0  0
   30.2388   13.8827   99.4617 H   0  0  0  0  0  0  0  0  0  0  0  0
   30.7579   12.5067   98.7520 H   0  0  0  0  0  0  0  0  0  0  0  0
   35.6270   15.7097   96.0468 H   0  0  0  0  0  0  0  0  0  0  0  0
   35.9874   14.3023   95.3012 H   0  0  0  0  0  0  0  0  0  0  0  0
   32.6467   14.5214   99.5100 H   0  0  0  0  0  0  0  0  0  0  0  0
   31.8607   14.6439   98.0838 H   0  0  0  0  0  0  0  0  0  0  0  0
   33.8216   13.5176   95.5870 H   0  0  0  0  0  0  0  0  0  0  0  0
   33.3109   14.9771   96.1119 H   0  0  0  0  0  0  0  0  0  0  0  0
   32.8060   12.5782   97.3923 H   0  0  0  0  0  0  0  0  0  0  0  0
   33.6033   12.4722   98.8135 H   0  0  0  0  0  0  0  0  0  0  0  0
   34.5141   14.7458   98.0999 H   0  0  0  0  0  0  0  0  0  0  0  0
   35.2226   13.3778   97.5583 H   0  0  0  0  0  0  0  0  0  0  0  0
   31.3870   13.4500  101.8420 R#  0  0  0  0  0  0  0  0  0  0  0  0
   33.3720   14.6770   92.4680 R#  0  0  0  0  0  0  0  0  0  0  0  0
 11 25  1  0  0  0  0
  4 26  1  0  0  0  0
  1  3  2  0  0  0  0
  2  4  2  0  0  0  0
  3  5  1  0  0  0  0
  4  6  1  0  0  0  0
  5  7  1  0  0  0  0
  6  8  1  0  0  0  0
  7  9  1  0  0  0  0
  8 10  1  0  0  0  0
  9 11  1  0  0  0  0
 10 11  1  0  0  0  0
 11 24  1  0  0  0  0
  5 12  1  0  0  0  0
  5 13  1  0  0  0  0
  6 14  1  0  0  0  0
  6 15  1  0  0  0  0
  7 16  1  0  0  0  0
  7 17  1  0  0  0  0
  8 18  1  0  0  0  0
  8 19  1  0  0  0  0
  9 20  1  0  0  0  0
  9 21  1  0  0  0  0
 10 22  1  0  0  0  0
 10 23  1  0  0  0  0
  3 27  1  0  0  0  0
M  RGP  2  26   1  27   2
M  END
$$$$
5IZJ_NH2_F_6
prProtoss 08172316043D 1   1.00000     0.00000     0
Protoss beta proteinsplus
  4  3  0  0  0  0            999 V2000
   29.1138    7.1111   94.4114 N   0  0  0  0  0  0  0  0  0  0  0  0
   30.0479    7.3012   94.7135 H   0  0  0  0  0  0  0  0  0  0  0  0
   28.7963    6.1662   94.3324 H   0  0  0  0  0  0  0  0  0  0  0  0
   28.2390    8.1820   94.0950 R#  0  0  0  0  0  0  0  0  0  0  0  0
  1  4  1  0  0  0  0
  1  2  1  0  0  0  0
  1  3  1  0  0  0  0
M  RGP  1   4   1
M  END
$$$$
5J5X_SO4_A_401
prProtoss 03132510093D 1   1.00000     0.00000     0
Protoss beta proteinsplus
  5  4  0  0  0  0            999 V2000
  -23.2490   41.8590  -30.4260 S   0  0  0  0  0  0  0  0  0  0  0  0
  -21.8550   42.1620  -30.8140 O   0  0  0  0  0  0  0  0  0  0  0  0
  -24.1470   42.2290  -31.5440 O   0  0  0  0  0  0  0  0  0  0  0  0
  -23.5990   42.6430  -29.2200 O   0  5  0  0  0  0  0  0  0  0  0  0
  -23.3920   40.4170  -30.1190 O   0  5  0  0  0  0  0  0  0  0  0  0
  1  2  2  0  0  0  0
  1  3  2  0  0  0  0
  1  4  1  0  0  0  0
  1  5  1  0  0  0  0
M  CHG  2   4  -1   5  -1
M  END
$$$$
5J5X_SO4_A_402
prProtoss 03132510093D 1   1.00000     0.00000     0
Protoss beta proteinsplus
  5  4  0  0  0  0            999 V2000
  -21.1370   36.3650   13.7820 S   0  0  0  0  0  0  0  0  0  0  0  0
  -21.5030   35.3800   12.7330 O   0  0  0  0  0  0  0  0  0  0  0  0
  -20.2980   37.4290   13.1900 O   0  0  0  0  0  0  0  0  0  0  0  0
  -20.3850   35.6880   14.8610 O   0  5  0  0  0  0  0  0  0  0  0  0
  -22.3520   36.9840   14.3570 O   0  5  0  0  0  0  0  0  0  0  0  0
  1  2  2  0  0  0  0
  1  3  2  0  0  0  0
  1  4  1  0  0  0  0
  1  5  1  0  0  0  0
M  CHG  2   4  -1   5  -1
M  END
$$$$
5J5X_SO4_A_403
prProtoss 03132510093D 1   1.00000     0.00000     0
Protoss beta proteinsplus
  5  4  0  0  0  0            999 V2000
  -34.9390   53.1520   -4.1760 S   0  0  0  0  0  0  0  0  0  0  0  0
  -34.6330   52.0610   -5.1320 O   0  0  0  0  0  0  0  0  0  0  0  0
  -34.0360   54.2970   -4.4250 O   0  0  0  0  0  0  0  0  0  0  0  0
  -34.7470   52.6820   -2.7830 O   0  5  0  0  0  0  0  0  0  0  0  0
  -36.3400   53.5900   -4.3700 O   0  5  0  0  0  0  0  0  0  0  0  0
  1  2  2  0  0  0  0
  1  3  2  0  0  0  0
  1  4  1  0  0  0  0
  1  5  1  0  0  0  0
M  CHG  2   4  -1   5  -1
M  END
$$$$
5J5X_6J9_A_404
prProtoss 03132510093D 1   1.00000     0.00000     0
Protoss beta proteinsplus
 29 31  0  0  0  0            999 V2000
   -3.8420   23.0430   -5.2060 N   0  3  0  0  0  0  0  0  0  0  0  0
   -8.9830   26.4690   -7.5910 N   0  0  0  0  0  0  0  0  0  0  0  0
   -7.1900   24.9440   -7.2850 N   0  0  0  0  0  0  0  0  0  0  0  0
   -9.4470   27.9520   -5.6140 N   0  0  0  0  0  0  0  0  0  0  0  0
   -5.8810   24.7750   -5.2660 N   0  0  0  0  0  0  0  0  0  0  0  0
   -8.1830   25.4760   -8.0370 C   0  0  0  0  0  0  0  0  0  0  0  0
   -4.8690   22.8040   -4.1830 C   0  0  0  0  0  0  0  0  0  0  0  0
   -3.4160   24.4540   -5.1590 C   0  0  0  0  0  0  0  0  0  0  0  0
   -8.8750   28.0760   -4.3740 C   0  0  0  0  0  0  0  0  0  0  0  0
   -6.1670   23.5110   -4.5760 C   0  0  0  0  0  0  0  0  0  0  0  0
   -4.5860   25.4490   -5.1630 C   0  0  0  0  0  0  0  0  0  0  0  0
   -7.8370   27.1650   -4.2560 C   0  0  0  0  0  0  0  0  0  0  0  0
   -8.8300   26.9870   -6.3410 C   0  0  0  0  0  0  0  0  0  0  0  0
   -6.9150   25.3620   -6.0240 C   0  0  0  0  0  0  0  0  0  0  0  0
   -7.7670   26.4520   -5.4740 C   0  0  0  0  0  0  0  0  0  0  0  0
   -4.2185   22.8390   -6.1096 H   0  0  0  0  0  0  0  0  0  0  0  0
  -10.2172   28.5005   -5.9395 H   0  0  0  0  0  0  0  0  0  0  0  0
   -8.3299   25.1193   -8.9596 H   0  0  0  0  0  0  0  0  0  0  0  0
   -4.5508   23.1590   -3.3040 H   0  0  0  0  0  0  0  0  0  0  0  0
   -5.0369   21.8213   -4.1046 H   0  0  0  0  0  0  0  0  0  0  0  0
   -2.8418   24.6378   -5.9568 H   0  0  0  0  0  0  0  0  0  0  0  0
   -2.8830   24.5959   -4.3249 H   0  0  0  0  0  0  0  0  0  0  0  0
   -9.1615   28.7219   -3.6664 H   0  0  0  0  0  0  0  0  0  0  0  0
   -6.6933   22.9168   -5.1842 H   0  0  0  0  0  0  0  0  0  0  0  0
   -6.7003   23.7004   -3.7515 H   0  0  0  0  0  0  0  0  0  0  0  0
   -4.5636   25.9766   -4.3138 H   0  0  0  0  0  0  0  0  0  0  0  0
   -4.4812   26.0670   -5.9422 H   0  0  0  0  0  0  0  0  0  0  0  0
   -7.2479   27.0364   -3.4582 H   0  0  0  0  0  0  0  0  0  0  0  0
   -3.0546   22.4517   -5.0317 H   0  0  0  0  0  0  0  0  0  0  0  0
  1  7  1  0  0  0  0
  1  8  1  0  0  0  0
  2  6  2  0  0  0  0
  2 13  1  0  0  0  0
  3  6  1  0  0  0  0
  3 14  2  0  0  0  0
  4  9  1  0  0  0  0
  4 13  1  0  0  0  0
  5 10  1  0  0  0  0
  5 11  1  0  0  0  0
  5 14  1  0  0  0  0
  7 10  1  0  0  0  0
  8 11  1  0  0  0  0
  9 12  2  0  0  0  0
 12 15  1  0  0  0  0
 13 15  2  0  0  0  0
 14 15  1  0  0  0  0
  1 16  1  0  0  0  0
  4 17  1  0  0  0  0
  6 18  1  0  0  0  0
  7 19  1  0  0  0  0
  7 20  1  0  0  0  0
  8 21  1  0  0  0  0
  8 22  1  0  0  0  0
  9 23  1  0  0  0  0
 10 24  1  0  0  0  0
 10 25  1  0  0  0  0
 11 26  1  0  0  0  0
 11 27  1  0  0  0  0
 12 28  1  0  0  0  0
  1 29  1  0  0  0  0
M  CHG  1   1   1
M  END
$$$$
5J5X_ZEU_B_2
prProtoss 03132510093D 1   1.00000     0.00000     0
Protoss beta proteinsplus
 27 26  0  0  0  0            999 V2000
  -14.1380   57.3090    3.8810 O   0  0  0  0  0  0  0  0  0  0  0  0
   -7.7100   55.8780   -2.0300 O   0  0  0  0  0  0  0  0  0  0  0  0
  -13.8850   56.1870    3.4670 C   0  0  0  0  0  0  0  0  0  0  0  0
   -7.8930   54.6990   -1.7520 C   0  0  0  0  0  0  0  0  0  0  0  0
  -12.6250   55.5060    3.9630 C   0  0  0  0  0  0  0  0  0  0  0  0
   -9.3440   54.3020   -1.5110 C   0  0  0  0  0  0  0  0  0  0  0  0
  -11.6630   55.1790    2.8140 C   0  0  0  0  0  0  0  0  0  0  0  0
   -9.7360   53.9690   -0.0640 C   0  0  0  0  0  0  0  0  0  0  0  0
  -10.5310   56.1950    2.6810 C   0  0  0  0  0  0  0  0  0  0  0  0
   -9.1290   54.8370    1.0440 C   0  0  0  0  0  0  0  0  0  0  0  0
   -9.8790   56.1460    1.2960 C   0  0  0  0  0  0  0  0  0  0  0  0
  -12.8773   54.6560    4.4255 H   0  0  0  0  0  0  0  0  0  0  0  0
  -12.1624   56.1127    4.6095 H   0  0  0  0  0  0  0  0  0  0  0  0
   -9.5343   53.4950   -2.0700 H   0  0  0  0  0  0  0  0  0  0  0  0
   -9.9203   55.0609   -1.8142 H   0  0  0  0  0  0  0  0  0  0  0  0
  -12.1807   55.1640    1.9586 H   0  0  0  0  0  0  0  0  0  0  0  0
  -11.2645   54.2767    2.9783 H   0  0  0  0  0  0  0  0  0  0  0  0
   -9.4631   53.0231    0.1114 H   0  0  0  0  0  0  0  0  0  0  0  0
  -10.7307   54.0470    0.0037 H   0  0  0  0  0  0  0  0  0  0  0  0
   -9.8362   55.9972    3.3725 H   0  0  0  0  0  0  0  0  0  0  0  0
  -10.9002   57.1120    2.8322 H   0  0  0  0  0  0  0  0  0  0  0  0
   -8.1879   55.0588    0.7887 H   0  0  0  0  0  0  0  0  0  0  0  0
   -9.1283   54.3076    1.8923 H   0  0  0  0  0  0  0  0  0  0  0  0
   -9.2326   56.9052    1.2194 H   0  0  0  0  0  0  0  0  0  0  0  0
  -10.5927   56.2446    0.6025 H   0  0  0  0  0  0  0  0  0  0  0  0
   -6.8820   53.8110   -1.6770 R#  0  0  0  0  0  0  0  0  0  0  0  0
  -14.6390   55.5340    2.5750 R#  0  0  0  0  0  0  0  0  0  0  0  0
 11 25  1  0  0  0  0
  4 26  1  0  0  0  0
  1  3  2  0  0  0  0
  2  4  2  0  0  0  0
  3  5  1  0  0  0  0
  4  6  1  0  0  0  0
  5  7  1  0  0  0  0
  6  8  1  0  0  0  0
  7  9  1  0  0  0  0
  8 10  1  0  0  0  0
  9 11  1  0  0  0  0
 10 11  1  0  0  0  0
 11 24  1  0  0  0  0
  5 12  1  0  0  0  0
  5 13  1  0  0  0  0
  6 14  1  0  0  0  0
  6 15  1  0  0  0  0
  7 16  1  0  0  0  0
  7 17  1  0  0  0  0
  8 18  1  0  0  0  0
  8 19  1  0  0  0  0
  9 20  1  0  0  0  0
  9 21  1  0  0  0  0
 10 22  1  0  0  0  0
 10 23  1  0  0  0  0
  3 27  1  0  0  0  0
M  RGP  2  26   1  27   2
M  END
$$$$
5J5X_NH2_B_8
prProtoss 03132510093D 1   1.00000     0.00000     0
Protoss beta proteinsplus
  4  3  0  0  0  0            999 V2000
  -12.3130   59.7860  -12.0980 N   0  0  0  0  0  0  0  0  0  0  0  0
  -12.6921   59.3335  -12.9052 H   0  0  0  0  0  0  0  0  0  0  0  0
  -11.3816   60.1493  -12.1196 H   0  0  0  0  0  0  0  0  0  0  0  0
  -13.1000   59.9130  -10.9170 R#  0  0  0  0  0  0  0  0  0  0  0  0
  1  4  1  0  0  0  0
  1  2  1  0  0  0  0
  1  3  1  0  0  0  0
M  RGP  1   4   1
M  END
$$$$
5N39_8LZ_A_401
prProtoss 08172316053D 1   1.00000     0.00000     0
Protoss beta proteinsplus
 31 33  0  0  0  0            999 V2000
  -16.1530   25.4560  -23.8460 O   0  0  0  0  0  0  0  0  0  0  0  0
  -14.5940   23.1410  -24.5330 O   0  0  0  0  0  0  0  0  0  0  0  0
  -10.2250   25.8200  -26.0900 N   0  3  0  0  0  0  0  0  0  0  0  0
  -16.3450   24.2120  -23.1230 C   0  0  0  0  0  0  0  0  0  0  0  0
  -15.9280   23.0400  -23.9760 C   0  0  0  0  0  0  0  0  0  0  0  0
   -9.3000   24.7980  -26.6950 C   0  0  0  0  0  0  0  0  0  0  0  0
   -9.7330   24.7030  -28.1520 C   0  0  0  0  0  0  0  0  0  0  0  0
  -14.6970   26.7660  -25.1850 C   0  0  0  0  0  0  0  0  0  0  0  0
  -11.2210   25.0020  -28.1500 C   0  0  0  0  0  0  0  0  0  0  0  0
  -13.5330   26.8980  -25.9290 C   0  0  0  0  0  0  0  0  0  0  0  0
  -13.0850   24.5510  -25.6950 C   0  0  0  0  0  0  0  0  0  0  0  0
  -15.0590   25.5210  -24.6830 C   0  0  0  0  0  0  0  0  0  0  0  0
  -14.2600   24.4010  -24.9680 C   0  0  0  0  0  0  0  0  0  0  0  0
  -11.4440   25.9840  -26.9900 C   0  0  1  0  0  0  0  0  0  0  0  0
  -12.7080   25.8050  -26.1810 C   0  0  0  0  0  0  0  0  0  0  0  0
   -9.7490   26.6956  -26.0081 H   0  0  0  0  0  0  0  0  0  0  0  0
  -17.3106   24.1168  -22.8812 H   0  0  0  0  0  0  0  0  0  0  0  0
  -15.7925   24.2263  -22.2896 H   0  0  0  0  0  0  0  0  0  0  0  0
  -15.9688   22.2147  -23.4128 H   0  0  0  0  0  0  0  0  0  0  0  0
  -16.5764   22.9593  -24.7330 H   0  0  0  0  0  0  0  0  0  0  0  0
   -9.4026   23.9145  -26.2379 H   0  0  0  0  0  0  0  0  0  0  0  0
   -8.3488   25.0994  -26.6283 H   0  0  0  0  0  0  0  0  0  0  0  0
   -9.5610   23.7849  -28.5090 H   0  0  0  0  0  0  0  0  0  0  0  0
   -9.2420   25.3741  -28.7075 H   0  0  0  0  0  0  0  0  0  0  0  0
  -15.2737   27.5641  -25.0104 H   0  0  0  0  0  0  0  0  0  0  0  0
  -11.7453   24.1633  -28.0029 H   0  0  0  0  0  0  0  0  0  0  0  0
  -11.4945   25.4183  -29.0171 H   0  0  0  0  0  0  0  0  0  0  0  0
  -13.2818   27.7956  -26.2912 H   0  0  0  0  0  0  0  0  0  0  0  0
  -12.5054   23.7554  -25.8714 H   0  0  0  0  0  0  0  0  0  0  0  0
  -11.4377   26.9130  -27.3601 H   0  0  0  0  0  0  0  0  0  0  0  0
  -10.5165   25.5131  -25.1840 H   0  0  0  0  0  0  0  0  0  0  0  0
  1  4  1  0  0  0  0
  1 12  1  0  0  0  0
  2  5  1  0  0  0  0
  2 13  1  0  0  0  0
  3  6  1  0  0  0  0
  3 14  1  0  0  0  0
  4  5  1  0  0  0  0
  6  7  1  0  0  0  0
  7  9  1  0  0  0  0
  8 10  2  0  0  0  0
  8 12  1  0  0  0  0
  9 14  1  0  0  0  0
 10 15  1  0  0  0  0
 11 13  1  0  0  0  0
 11 15  2  0  0  0  0
 12 13  2  0  0  0  0
 14 15  1  0  0  0  0
  3 16  1  0  0  0  0
  4 17  1  0  0  0  0
  4 18  1  0  0  0  0
  5 19  1  0  0  0  0
  5 20  1  0  0  0  0
  6 21  1  0  0  0  0
  6 22  1  0  0  0  0
  7 23  1  0  0  0  0
  7 24  1  0  0  0  0
  8 25  1  0  0  0  0
  9 26  1  0  0  0  0
  9 27  1  0  0  0  0
 10 28  1  0  0  0  0
 11 29  1  0  0  0  0
 14 30  1  0  0  0  0
  3 31  1  0  0  0  0
M  CHG  1   3   1
M  END
$$$$
5N39_MPD_A_402
prProtoss 08172316053D 1   1.00000     0.00000     0
Protoss beta proteinsplus
 22 21  0  0  0  0            999 V2000
   -8.0010   12.2940   -4.5510 O   0  0  0  0  0  0  0  0  0  0  0  0
   -9.2470   13.2860   -2.3770 O   0  0  0  0  0  0  0  0  0  0  0  0
   -8.5760   12.9930   -6.7040 C   0  0  0  0  0  0  0  0  0  0  0  0
   -9.5280   15.4990   -3.0720 C   0  0  0  0  0  0  0  0  0  0  0  0
  -11.5330   14.0140   -2.6690 C   0  0  0  0  0  0  0  0  0  0  0  0
  -10.0860   13.5750   -4.6460 C   0  0  0  0  0  0  0  0  0  0  0  0
   -8.6670   13.3250   -5.2150 C   0  0  1  0  0  0  0  0  0  0  0  0
  -10.1050   14.0930   -3.2060 C   0  0  0  0  0  0  0  0  0  0  0  0
   -7.0348   12.5314   -4.4509 H   0  0  0  0  0  0  0  0  0  0  0  0
   -8.8141   12.5780   -2.9350 H   0  0  0  0  0  0  0  0  0  0  0  0
   -9.0401   13.7035   -7.2329 H   0  0  0  0  0  0  0  0  0  0  0  0
   -7.6151   12.9480   -6.9774 H   0  0  0  0  0  0  0  0  0  0  0  0
   -9.0132   12.1102   -6.8760 H   0  0  0  0  0  0  0  0  0  0  0  0
  -10.0689   16.1351   -3.6223 H   0  0  0  0  0  0  0  0  0  0  0  0
   -9.5560   15.7808   -2.1129 H   0  0  0  0  0  0  0  0  0  0  0  0
   -8.5809   15.5026   -3.3930 H   0  0  0  0  0  0  0  0  0  0  0  0
  -12.1351   14.5722   -3.2398 H   0  0  0  0  0  0  0  0  0  0  0  0
  -11.8437   13.0636   -2.6867 H   0  0  0  0  0  0  0  0  0  0  0  0
  -11.5549   14.3544   -1.7290 H   0  0  0  0  0  0  0  0  0  0  0  0
  -10.5916   12.7127   -4.6753 H   0  0  0  0  0  0  0  0  0  0  0  0
  -10.5422   14.2488   -5.2272 H   0  0  0  0  0  0  0  0  0  0  0  0
   -8.1385   14.1609   -5.0666 H   0  0  0  0  0  0  0  0  0  0  0  0
  1  7  1  0  0  0  0
  2  8  1  0  0  0  0
  3  7  1  0  0  0  0
  4  8  1  0  0  0  0
  5  8  1  0  0  0  0
  6  7  1  0  0  0  0
  6  8  1  0  0  0  0
  1  9  1  0  0  0  0
  2 10  1  0  0  0  0
  3 11  1  0  0  0  0
  3 12  1  0  0  0  0
  3 13  1  0  0  0  0
  4 14  1  0  0  0  0
  4 15  1  0  0  0  0
  4 16  1  0  0  0  0
  5 17  1  0  0  0  0
  5 18  1  0  0  0  0
  5 19  1  0  0  0  0
  6 20  1  0  0  0  0
  6 21  1  0  0  0  0
  7 22  1  0  0  0  0
M  END
$$$$
5N39_MPD_A_403
prProtoss 08172316053D 1   1.00000     0.00000     0
Protoss beta proteinsplus
 22 21  0  0  0  0            999 V2000
    7.7530    3.7600  -16.4270 O   0  0  0  0  0  0  0  0  0  0  0  0
    9.9580    2.8360  -17.9980 O   0  0  0  0  0  0  0  0  0  0  0  0
    6.8380    2.2860  -14.8100 C   0  0  0  0  0  0  0  0  0  0  0  0
   11.1320    2.3380  -15.9150 C   0  0  0  0  0  0  0  0  0  0  0  0
   10.6290    0.5440  -17.6160 C   0  0  0  0  0  0  0  0  0  0  0  0
    8.7480    1.5370  -16.3330 C   0  0  0  0  0  0  0  0  0  0  0  0
    8.1090    2.7170  -15.5580 C   0  0  1  0  0  0  0  0  0  0  0  0
   10.1230    1.8340  -16.9510 C   0  0  0  0  0  0  0  0  0  0  0  0
    6.8023    3.6443  -16.7147 H   0  0  0  0  0  0  0  0  0  0  0  0
    9.2192    3.4615  -17.7473 H   0  0  0  0  0  0  0  0  0  0  0  0
    7.0583    1.5412  -14.1801 H   0  0  0  0  0  0  0  0  0  0  0  0
    6.4752    3.0623  -14.2944 H   0  0  0  0  0  0  0  0  0  0  0  0
    6.1532    1.9740  -15.4686 H   0  0  0  0  0  0  0  0  0  0  0  0
   11.2446    1.6506  -15.1975 H   0  0  0  0  0  0  0  0  0  0  0  0
   12.0123    2.5029  -16.3598 H   0  0  0  0  0  0  0  0  0  0  0  0
   10.7979    3.1896  -15.5112 H   0  0  0  0  0  0  0  0  0  0  0  0
   10.7519   -0.1636  -16.9202 H   0  0  0  0  0  0  0  0  0  0  0  0
    9.9613    0.2337  -18.2927 H   0  0  0  0  0  0  0  0  0  0  0  0
   11.5031    0.7226  -18.0678 H   0  0  0  0  0  0  0  0  0  0  0  0
    8.1256    1.2777  -17.0715 H   0  0  0  0  0  0  0  0  0  0  0  0
    8.8517    0.7700  -15.6998 H   0  0  0  0  0  0  0  0  0  0  0  0
    8.7719    3.0630  -14.8940 H   0  0  0  0  0  0  0  0  0  0  0  0
  1  7  1  0  0  0  0
  2  8  1  0  0  0  0
  3  7  1  0  0  0  0
  4  8  1  0  0  0  0
  5  8  1  0  0  0  0
  6  7  1  0  0  0  0
  6  8  1  0  0  0  0
  1  9  1  0  0  0  0
  2 10  1  0  0  0  0
  3 11  1  0  0  0  0
  3 12  1  0  0  0  0
  3 13  1  0  0  0  0
  4 14  1  0  0  0  0
  4 15  1  0  0  0  0
  4 16  1  0  0  0  0
  5 17  1  0  0  0  0
  5 18  1  0  0  0  0
  5 19  1  0  0  0  0
  6 20  1  0  0  0  0
  6 21  1  0  0  0  0
  7 22  1  0  0  0  0
M  END
$$$$
5N39_DMS_A_404
prProtoss 08172316053D 1   1.00000     0.00000     0
Protoss beta proteinsplus
 10  9  0  0  0  0            999 V2000
   15.8690   31.1710  -19.0730 S   0  0  0  0  0  0  0  0  0  0  0  0
   14.8650   30.2940  -18.3930 O   0  0  0  0  0  0  0  0  0  0  0  0
   15.1520   31.8160  -20.6120 C   0  0  0  0  0  0  0  0  0  0  0  0
   16.1280   32.7150  -18.1420 C   0  0  0  0  0  0  0  0  0  0  0  0
   15.8194   32.4029  -21.0703 H   0  0  0  0  0  0  0  0  0  0  0  0
   14.9107   31.0536  -21.2125 H   0  0  0  0  0  0  0  0  0  0  0  0
   14.3311   32.3466  -20.4006 H   0  0  0  0  0  0  0  0  0  0  0  0
   16.8016   33.2815  -18.6167 H   0  0  0  0  0  0  0  0  0  0  0  0
   15.2631   33.2122  -18.0739 H   0  0  0  0  0  0  0  0  0  0  0  0
   16.4615   32.4990  -17.2243 H   0  0  0  0  0  0  0  0  0  0  0  0
  1  2  2  0  0  0  0
  1  3  1  0  0  0  0
  1  4  1  0  0  0  0
  3  5  1  0  0  0  0
  3  6  1  0  0  0  0
  3  7  1  0  0  0  0
  4  8  1  0  0  0  0
  4  9  1  0  0  0  0
  4 10  1  0  0  0  0
M  END
$$$$
5N39_DMS_A_405
prProtoss 08172316053D 1   1.00000     0.00000     0
Protoss beta proteinsplus
 10  9  0  0  0  0            999 V2000
   15.1740   13.6610  -32.6090 S   0  0  0  0  0  0  0  0  0  0  0  0
   14.7890   14.4310  -31.3750 O   0  0  0  0  0  0  0  0  0  0  0  0
   13.8430   12.5070  -33.0720 C   0  0  0  0  0  0  0  0  0  0  0  0
   15.1630   14.7760  -34.0490 C   0  0  0  0  0  0  0  0  0  0  0  0
   14.1104   12.0017  -33.8925 H   0  0  0  0  0  0  0  0  0  0  0  0
   13.6829   11.8648  -32.3224 H   0  0  0  0  0  0  0  0  0  0  0  0
   13.0050   13.0210  -33.2553 H   0  0  0  0  0  0  0  0  0  0  0  0
   15.4189   14.2640  -34.8690 H   0  0  0  0  0  0  0  0  0  0  0  0
   14.2467   15.1586  -34.1673 H   0  0  0  0  0  0  0  0  0  0  0  0
   15.8174   15.5176  -33.9013 H   0  0  0  0  0  0  0  0  0  0  0  0
  1  2  2  0  0  0  0
  1  3  1  0  0  0  0
  1  4  1  0  0  0  0
  3  5  1  0  0  0  0
  3  6  1  0  0  0  0
  3  7  1  0  0  0  0
  4  8  1  0  0  0  0
  4  9  1  0  0  0  0
  4 10  1  0  0  0  0
M  END
$$$$
6SPY_LR8_A_401
prProtoss 08172315393D 1   1.00000     0.00000     0
Protoss beta proteinsplus
 28 29  0  0  0  0            999 V2000
   16.6120    2.4770   20.3260 O   0  0  0  0  0  0  0  0  0  0  0  0
    7.9850    0.9350   17.8480 O   0  0  0  0  0  0  0  0  0  0  0  0
   16.0280    4.6670   20.2450 N   0  0  0  0  0  0  0  0  0  0  0  0
   12.0850    3.5110   19.1190 N   0  0  0  0  0  0  0  0  0  0  0  0
   10.5650    1.8210   18.6510 N   0  0  0  0  0  0  0  0  0  0  0  0
    8.1990    2.2810   18.2760 C   0  0  0  0  0  0  0  0  0  0  0  0
    8.8630    0.0690   18.5420 C   0  0  0  0  0  0  0  0  0  0  0  0
   13.3310    3.8870   19.4620 C   0  0  0  0  0  0  0  0  0  0  0  0
    9.6160    2.7350   18.0090 C   0  0  0  0  0  0  0  0  0  0  0  0
   10.3050    0.4220   18.2930 C   0  0  0  0  0  0  0  0  0  0  0  0
   12.8720    1.2400   19.0100 C   0  0  0  0  0  0  0  0  0  0  0  0
   14.1360    1.6600   19.3720 C   0  0  0  0  0  0  0  0  0  0  0  0
   15.7650    3.3770   20.0920 C   0  0  0  0  0  0  0  0  0  0  0  0
   11.8660    2.2010   18.9150 C   0  0  0  0  0  0  0  0  0  0  0  0
   14.3870    2.9940   19.6260 C   0  0  0  0  0  0  0  0  0  0  0  0
   15.3230    5.3480   20.0467 H   0  0  0  0  0  0  0  0  0  0  0  0
   16.9314    4.9593   20.5587 H   0  0  0  0  0  0  0  0  0  0  0  0
    8.0192    2.3412   19.2579 H   0  0  0  0  0  0  0  0  0  0  0  0
    7.5684    2.8814   17.7842 H   0  0  0  0  0  0  0  0  0  0  0  0
    8.7016   -0.8693   18.2362 H   0  0  0  0  0  0  0  0  0  0  0  0
    8.6773    0.1367   19.5223 H   0  0  0  0  0  0  0  0  0  0  0  0
   13.5081    4.8605   19.6070 H   0  0  0  0  0  0  0  0  0  0  0  0
    9.7805    2.7439   17.0227 H   0  0  0  0  0  0  0  0  0  0  0  0
    9.7433    3.6563   18.3765 H   0  0  0  0  0  0  0  0  0  0  0  0
   10.8888   -0.1724   18.8460 H   0  0  0  0  0  0  0  0  0  0  0  0
   10.5137    0.2867   17.3244 H   0  0  0  0  0  0  0  0  0  0  0  0
   12.6834    0.2762   18.8216 H   0  0  0  0  0  0  0  0  0  0  0  0
   14.8764    0.9925   19.4510 H   0  0  0  0  0  0  0  0  0  0  0  0
  1 13  2  0  0  0  0
  2  6  1  0  0  0  0
  2  7  1  0  0  0  0
  3 13  1  0  0  0  0
  4  8  1  0  0  0  0
  4 14  2  0  0  0  0
  5  9  1  0  0  0  0
  5 10  1  0  0  0  0
  5 14  1  0  0  0  0
  6  9  1  0  0  0  0
  7 10  1  0  0  0  0
  8 15  2  0  0  0  0
 11 12  2  0  0  0  0
 11 14  1  0  0  0  0
 12 15  1  0  0  0  0
 13 15  1  0  0  0  0
  3 16  1  0  0  0  0
  3 17  1  0  0  0  0
  6 18  1  0  0  0  0
  6 19  1  0  0  0  0
  7 20  1  0  0  0  0
  7 21  1  0  0  0  0
  8 22  1  0  0  0  0
  9 23  1  0  0  0  0
  9 24  1  0  0  0  0
 10 25  1  0  0  0  0
 10 26  1  0  0  0  0
 11 27  1  0  0  0  0
 12 28  1  0  0  0  0
M  END
$$$$
6SPY_DMS_A_402
prProtoss 08172315393D 1   1.00000     0.00000     0
Protoss beta proteinsplus
 10  9  0  0  0  0            999 V2000
   26.5180   15.6710    5.6620 S   0  0  0  0  0  0  0  0  0  0  0  0
   27.2610   14.3880    5.8430 O   0  0  0  0  0  0  0  0  0  0  0  0
   27.5390   16.7990    4.6710 C   0  0  0  0  0  0  0  0  0  0  0  0
   25.1790   15.4180    4.4650 C   0  0  0  0  0  0  0  0  0  0  0  0
   27.0523   17.6630    4.5423 H   0  0  0  0  0  0  0  0  0  0  0  0
   28.4027   16.9703    5.1451 H   0  0  0  0  0  0  0  0  0  0  0  0
   27.7243   16.3849    3.7798 H   0  0  0  0  0  0  0  0  0  0  0  0
   24.6777   16.2742    4.3397 H   0  0  0  0  0  0  0  0  0  0  0  0
   25.5650   15.1266    3.5897 H   0  0  0  0  0  0  0  0  0  0  0  0
   24.5560   14.7138    4.8056 H   0  0  0  0  0  0  0  0  0  0  0  0
  1  2  2  0  0  0  0
  1  3  1  0  0  0  0
  1  4  1  0  0  0  0
  3  5  1  0  0  0  0
  3  6  1  0  0  0  0
  3  7  1  0  0  0  0
  4  8  1  0  0  0  0
  4  9  1  0  0  0  0
  4 10  1  0  0  0  0
M  END
$$$$
6SPY_MPD_A_403
prProtoss 08172315393D 1   1.00000     0.00000     0
Protoss beta proteinsplus
 22 21  0  0  0  0            999 V2000
   16.9940   19.5060   38.8680 O   0  0  0  0  0  0  0  0  0  0  0  0
   18.2170   18.1690   40.6760 O   0  0  0  0  0  0  0  0  0  0  0  0
   16.3340   18.0000   37.1080 C   0  0  0  0  0  0  0  0  0  0  0  0
   19.5840   16.3110   40.0440 C   0  0  0  0  0  0  0  0  0  0  0  0
   20.3750   18.6890   39.7420 C   0  0  0  0  0  0  0  0  0  0  0  0
   18.5540   17.8080   38.3000 C   0  0  0  0  0  0  0  0  0  0  0  0
   17.0820   18.1690   38.4280 C   0  0  1  0  0  0  0  0  0  0  0  0
   19.1850   17.7390   39.6860 C   0  0  0  0  0  0  0  0  0  0  0  0
   16.0336   19.7504   39.0017 H   0  0  0  0  0  0  0  0  0  0  0  0
   17.5882   18.8279   40.2631 H   0  0  0  0  0  0  0  0  0  0  0  0
   16.4027   17.0494   36.8053 H   0  0  0  0  0  0  0  0  0  0  0  0
   15.3719   18.2401   37.2370 H   0  0  0  0  0  0  0  0  0  0  0  0
   16.7375   18.5998   36.4171 H   0  0  0  0  0  0  0  0  0  0  0  0
   20.2541   15.9761   39.3815 H   0  0  0  0  0  0  0  0  0  0  0  0
   19.9850   16.2966   40.9600 H   0  0  0  0  0  0  0  0  0  0  0  0
   18.7746   15.7241   40.0252 H   0  0  0  0  0  0  0  0  0  0  0  0
   21.0564   18.4099   39.0654 H   0  0  0  0  0  0  0  0  0  0  0  0
   20.0683   19.6196   39.5420 H   0  0  0  0  0  0  0  0  0  0  0  0
   20.7812   18.6610   40.6554 H   0  0  0  0  0  0  0  0  0  0  0  0
   19.0215   18.5045   37.7556 H   0  0  0  0  0  0  0  0  0  0  0  0
   18.6410   16.9192   37.8499 H   0  0  0  0  0  0  0  0  0  0  0  0
   16.6627   17.5751   39.1147 H   0  0  0  0  0  0  0  0  0  0  0  0
  1  7  1  0  0  0  0
  2  8  1  0  0  0  0
  3  7  1  0  0  0  0
  4  8  1  0  0  0  0
  5  8  1  0  0  0  0
  6  7  1  0  0  0  0
  6  8  1  0  0  0  0
  1  9  1  0  0  0  0
  2 10  1  0  0  0  0
  3 11  1  0  0  0  0
  3 12  1  0  0  0  0
  3 13  1  0  0  0  0
  4 14  1  0  0  0  0
  4 15  1  0  0  0  0
  4 16  1  0  0  0  0
  5 17  1  0  0  0  0
  5 18  1  0  0  0  0
  5 19  1  0  0  0  0
  6 20  1  0  0  0  0
  6 21  1  0  0  0  0
  7 22  1  0  0  0  0
M  END
$$$$
5M0C_7CB_A_401
prProtoss 08192305083D 1   1.00000     0.00000     0
Protoss beta proteinsplus
 22 23  0  0  0  0            999 V2000
  -27.6830    9.9330    4.4820 S   0  0  0  0  0  0  0  0  0  0  0  0
  -27.9530   10.8280    5.5700 O   0  0  0  0  0  0  0  0  0  0  0  0
  -26.4780   10.1320    3.7200 O   0  0  0  0  0  0  0  0  0  0  0  0
  -27.6380    8.4390    5.0820 N   0  0  0  0  0  0  0  0  0  0  0  0
  -33.1180    9.8510    4.4890 N   0  0  0  0  0  0  0  0  0  0  0  0
  -32.1480    9.8630    5.4140 C   0  0  0  0  0  0  0  0  0  0  0  0
  -32.7540    9.8880    3.2090 C   0  0  0  0  0  0  0  0  0  0  0  0
  -29.7220   10.0680    1.0460 C   0  0  0  0  0  0  0  0  0  0  0  0
  -30.8130    9.9120    5.1260 C   0  0  0  0  0  0  0  0  0  0  0  0
  -28.7210   10.0650    2.0010 C   0  0  0  0  0  0  0  0  0  0  0  0
  -31.0330   10.0040    1.4050 C   0  0  0  0  0  0  0  0  0  0  0  0
  -29.0350   10.0100    3.3340 C   0  0  0  0  0  0  0  0  0  0  0  0
  -31.4070    9.9530    2.7700 C   0  0  0  0  0  0  0  0  0  0  0  0
  -30.3970    9.9610    3.7720 C   0  0  0  0  0  0  0  0  0  0  0  0
  -27.4509    7.7894    4.3451 H   0  0  0  0  0  0  0  0  0  0  0  0
  -26.9161    8.3782    5.7713 H   0  0  0  0  0  0  0  0  0  0  0  0
  -32.4185    9.8343    6.3763 H   0  0  0  0  0  0  0  0  0  0  0  0
  -33.4738    9.8688    2.5151 H   0  0  0  0  0  0  0  0  0  0  0  0
  -29.4785   10.1179    0.0774 H   0  0  0  0  0  0  0  0  0  0  0  0
  -30.1368    9.9133    5.8627 H   0  0  0  0  0  0  0  0  0  0  0  0
  -27.7629   10.1032    1.7171 H   0  0  0  0  0  0  0  0  0  0  0  0
  -31.7397    9.9929    0.6976 H   0  0  0  0  0  0  0  0  0  0  0  0
  1  2  2  0  0  0  0
  1  3  2  0  0  0  0
  1  4  1  0  0  0  0
  1 12  1  0  0  0  0
  5  6  2  0  0  0  0
  5  7  1  0  0  0  0
  6  9  1  0  0  0  0
  7 13  2  0  0  0  0
  8 10  1  0  0  0  0
  8 11  2  0  0  0  0
  9 14  2  0  0  0  0
 10 12  2  0  0  0  0
 11 13  1  0  0  0  0
 12 14  1  0  0  0  0
 13 14  1  0  0  0  0
  4 15  1  0  0  0  0
  4 16  1  0  0  0  0
  6 17  1  0  0  0  0
  7 18  1  0  0  0  0
  8 19  1  0  0  0  0
  9 20  1  0  0  0  0
 10 21  1  0  0  0  0
 11 22  1  0  0  0  0
M  END
$$$$
5M0C_MRD_A_402
prProtoss 08192305083D 1   1.00000     0.00000     0
Protoss beta proteinsplus
 22 21  0  0  0  0            999 V2000
  -28.5030    2.6650   16.4420 O   0  0  0  0  0  0  0  0  0  0  0  0
  -26.0510    5.0170   16.5770 O   0  0  0  0  0  0  0  0  0  0  0  0
  -30.4570    3.9700   16.9910 C   0  0  0  0  0  0  0  0  0  0  0  0
  -26.9880    7.0450   15.7140 C   0  0  0  0  0  0  0  0  0  0  0  0
  -27.4690    6.2630   18.0460 C   0  0  0  0  0  0  0  0  0  0  0  0
  -28.4560    5.0830   16.0280 C   0  0  0  0  0  0  0  0  0  0  0  0
  -28.9460    3.9390   16.9320 C   0  0  2  0  0  0  0  0  0  0  0  0
  -27.2360    5.8370   16.6020 C   0  0  0  0  0  0  0  0  0  0  0  0
  -28.4278    2.6990   15.4454 H   0  0  0  0  0  0  0  0  0  0  0  0
  -25.2480    5.5958   16.4350 H   0  0  0  0  0  0  0  0  0  0  0  0
  -30.7590    4.8598   17.3330 H   0  0  0  0  0  0  0  0  0  0  0  0
  -30.8295    3.8210   16.0750 H   0  0  0  0  0  0  0  0  0  0  0  0
  -30.7815    3.2496   17.6040 H   0  0  0  0  0  0  0  0  0  0  0  0
  -27.7982    7.6312   15.7147 H   0  0  0  0  0  0  0  0  0  0  0  0
  -26.2042    7.5593   16.0620 H   0  0  0  0  0  0  0  0  0  0  0  0
  -26.7985    6.7395   14.7809 H   0  0  0  0  0  0  0  0  0  0  0  0
  -28.2874    6.8355   18.0967 H   0  0  0  0  0  0  0  0  0  0  0  0
  -27.5939    5.4515   18.6169 H   0  0  0  0  0  0  0  0  0  0  0  0
  -26.6787    6.7816   18.3722 H   0  0  0  0  0  0  0  0  0  0  0  0
  -29.2044    5.7353   15.9081 H   0  0  0  0  0  0  0  0  0  0  0  0
  -28.2027    4.6993   15.1400 H   0  0  0  0  0  0  0  0  0  0  0  0
  -28.5828    4.0759   17.8536 H   0  0  0  0  0  0  0  0  0  0  0  0
  1  7  1  0  0  0  0
  2  8  1  0  0  0  0
  3  7  1  0  0  0  0
  4  8  1  0  0  0  0
  5  8  1  0  0  0  0
  6  7  1  0  0  0  0
  6  8  1  0  0  0  0
  1  9  1  0  0  0  0
  2 10  1  0  0  0  0
  3 11  1  0  0  0  0
  3 12  1  0  0  0  0
  3 13  1  0  0  0  0
  4 14  1  0  0  0  0
  4 15  1  0  0  0  0
  4 16  1  0  0  0  0
  5 17  1  0  0  0  0
  5 18  1  0  0  0  0
  5 19  1  0  0  0  0
  6 20  1  0  0  0  0
  6 21  1  0  0  0  0
  7 22  1  0  0  0  0
M  END
$$$$
5M0C_DMS_A_403
prProtoss 08192305083D 1   1.00000     0.00000     0
Protoss beta proteinsplus
 10  9  0  0  0  0            999 V2000
  -39.1380   25.8690   -9.6630 S   0  0  0  0  0  0  0  0  0  0  0  0
  -37.9380   26.7070   -9.9750 O   0  0  0  0  0  0  0  0  0  0  0  0
  -40.4330   26.9150   -8.9410 C   0  0  0  0  0  0  0  0  0  0  0  0
  -39.9440   25.3630  -11.2070 C   0  0  0  0  0  0  0  0  0  0  0  0
  -41.2353   26.3558   -8.7322 H   0  0  0  0  0  0  0  0  0  0  0  0
  -40.0917   27.3354   -8.1003 H   0  0  0  0  0  0  0  0  0  0  0  0
  -40.6856   27.6302   -9.5926 H   0  0  0  0  0  0  0  0  0  0  0  0
  -40.7455   24.8032  -10.9967 H   0  0  0  0  0  0  0  0  0  0  0  0
  -40.2289   26.1752  -11.7160 H   0  0  0  0  0  0  0  0  0  0  0  0
  -39.3019   24.8316  -11.7596 H   0  0  0  0  0  0  0  0  0  0  0  0
  1  2  2  0  0  0  0
  1  3  1  0  0  0  0
  1  4  1  0  0  0  0
  3  5  1  0  0  0  0
  3  6  1  0  0  0  0
  3  7  1  0  0  0  0
  4  8  1  0  0  0  0
  4  9  1  0  0  0  0
  4 10  1  0  0  0  0
M  END
$$$$
7AXV_S95_A_401
prProtoss 08192302053D 1   1.00000     0.00000     0
Protoss beta proteinsplus
 20 21  0  0  0  0            999 V2000
    9.4130   -3.9050  -36.8200 S   0  0  0  0  0  0  0  0  0  0  0  0
   10.2070   -2.7800  -37.2900 O   0  0  0  0  0  0  0  0  0  0  0  0
    9.6720   -4.2200  -35.4210 O   0  0  0  0  0  0  0  0  0  0  0  0
    9.5380   -5.0660  -37.6850 O   0  5  0  0  0  0  0  0  0  0  0  0
    5.7860   -2.3240  -40.5410 N   0  0  0  0  0  0  0  0  0  0  0  0
    7.0700   -2.7160  -40.5350 C   0  0  0  0  0  0  0  0  0  0  0  0
    5.6740   -2.9090  -35.7390 C   0  0  0  0  0  0  0  0  0  0  0  0
    5.1510   -2.2810  -39.3760 C   0  0  0  0  0  0  0  0  0  0  0  0
    7.7540   -3.0850  -39.4150 C   0  0  0  0  0  0  0  0  0  0  0  0
    6.9990   -3.3190  -35.7380 C   0  0  0  0  0  0  0  0  0  0  0  0
    5.0520   -2.5630  -36.9010 C   0  0  0  0  0  0  0  0  0  0  0  0
    7.7060   -3.3890  -36.9090 C   0  0  0  0  0  0  0  0  0  0  0  0
    5.7430   -2.6240  -38.1370 C   0  0  0  0  0  0  0  0  0  0  0  0
    7.1000   -3.0470  -38.1590 C   0  0  0  0  0  0  0  0  0  0  0  0
    7.5561   -2.7388  -41.4086 H   0  0  0  0  0  0  0  0  0  0  0  0
    5.1692   -2.8668  -34.8768 H   0  0  0  0  0  0  0  0  0  0  0  0
    4.1949   -1.9880  -39.3737 H   0  0  0  0  0  0  0  0  0  0  0  0
    8.7075   -3.3794  -39.4794 H   0  0  0  0  0  0  0  0  0  0  0  0
    7.4415   -3.5654  -34.8757 H   0  0  0  0  0  0  0  0  0  0  0  0
    4.0983   -2.2630  -36.8815 H   0  0  0  0  0  0  0  0  0  0  0  0
  1  2  2  0  0  0  0
  1  3  2  0  0  0  0
  1  4  1  0  0  0  0
  1 12  1  0  0  0  0
  5  6  2  0  0  0  0
  5  8  1  0  0  0  0
  6  9  1  0  0  0  0
  7 10  1  0  0  0  0
  7 11  2  0  0  0  0
  8 13  2  0  0  0  0
  9 14  2  0  0  0  0
 10 12  2  0  0  0  0
 11 13  1  0  0  0  0
 12 14  1  0  0  0  0
 13 14  1  0  0  0  0
 11 20  1  0  0  0  0
  6 15  1  0  0  0  0
  7 16  1  0  0  0  0
  8 17  1  0  0  0  0
  9 18  1  0  0  0  0
 10 19  1  0  0  0  0
M  CHG  1   4  -1
M  END
$$$$
7AXV_S95_A_402
prProtoss 08192302053D 1   1.00000     0.00000     0
Protoss beta proteinsplus
 20 21  0  0  0  0            999 V2000
   13.6490  -25.1900  -27.7680 S   0  0  0  0  0  0  0  0  0  0  0  0
   13.1010  -24.2610  -28.7450 O   0  0  0  0  0  0  0  0  0  0  0  0
   12.6170  -25.8270  -26.9660 O   0  0  0  0  0  0  0  0  0  0  0  0
   14.5580  -26.1540  -28.3660 O   0  5  0  0  0  0  0  0  0  0  0  0
   17.2550  -25.9100  -23.7750 N   0  0  0  0  0  0  0  0  0  0  0  0
   16.5340  -26.6960  -24.5880 C   0  0  0  0  0  0  0  0  0  0  0  0
   15.2920  -22.0330  -25.9230 C   0  0  0  0  0  0  0  0  0  0  0  0
   17.1180  -24.5950  -23.9100 C   0  0  0  0  0  0  0  0  0  0  0  0
   15.6690  -26.2300  -25.5340 C   0  0  0  0  0  0  0  0  0  0  0  0
   14.5340  -22.8490  -26.7450 C   0  0  0  0  0  0  0  0  0  0  0  0
   16.1380  -22.5710  -24.9960 C   0  0  0  0  0  0  0  0  0  0  0  0
   14.6300  -24.2110  -26.6480 C   0  0  0  0  0  0  0  0  0  0  0  0
   16.2650  -23.9770  -24.8560 C   0  0  0  0  0  0  0  0  0  0  0  0
   15.5040  -24.8310  -25.6980 C   0  0  0  0  0  0  0  0  0  0  0  0
   16.6371  -27.6863  -24.4947 H   0  0  0  0  0  0  0  0  0  0  0  0
   15.2193  -21.0394  -26.0089 H   0  0  0  0  0  0  0  0  0  0  0  0
   17.6515  -24.0043  -23.3047 H   0  0  0  0  0  0  0  0  0  0  0  0
   15.1557  -26.8691  -26.1068 H   0  0  0  0  0  0  0  0  0  0  0  0
   13.9125  -22.4410  -27.4138 H   0  0  0  0  0  0  0  0  0  0  0  0
   16.6751  -21.9660  -24.4081 H   0  0  0  0  0  0  0  0  0  0  0  0
  1  2  2  0  0  0  0
  1  3  2  0  0  0  0
  1  4  1  0  0  0  0
  1 12  1  0  0  0  0
  5  6  2  0  0  0  0
  5  8  1  0  0  0  0
  6  9  1  0  0  0  0
  7 10  1  0  0  0  0
  7 11  2  0  0  0  0
  8 13  2  0  0  0  0
  9 14  2  0  0  0  0
 10 12  2  0  0  0  0
 11 13  1  0  0  0  0
 12 14  1  0  0  0  0
 13 14  1  0  0  0  0
 11 20  1  0  0  0  0
  6 15  1  0  0  0  0
  7 16  1  0  0  0  0
  8 17  1  0  0  0  0
  9 18  1  0  0  0  0
 10 19  1  0  0  0  0
M  CHG  1   4  -1
M  END
$$$$
7AXV_DMS_A_403
prProtoss 08192302053D 1   1.00000     0.00000     0
Protoss beta proteinsplus
 10  9  0  0  0  0            999 V2000
   10.8770  -15.0760   -3.1710 S   0  0  0  0  0  0  0  0  0  0  0  0
    9.9250  -14.0610   -2.6210 O   0  0  0  0  0  0  0  0  0  0  0  0
   10.9490  -14.9480   -4.9750 C   0  0  0  0  0  0  0  0  0  0  0  0
   12.5680  -14.6040   -2.7090 C   0  0  0  0  0  0  0  0  0  0  0  0
   11.5873  -15.6298   -5.3323 H   0  0  0  0  0  0  0  0  0  0  0  0
   10.0393  -15.1104   -5.3573 H   0  0  0  0  0  0  0  0  0  0  0  0
   11.2602  -14.0331   -5.2321 H   0  0  0  0  0  0  0  0  0  0  0  0
   13.2128  -15.2766   -3.0721 H   0  0  0  0  0  0  0  0  0  0  0  0
   12.7778  -13.7027   -3.0880 H   0  0  0  0  0  0  0  0  0  0  0  0
   12.6449  -14.5727   -1.7124 H   0  0  0  0  0  0  0  0  0  0  0  0
  1  2  2  0  0  0  0
  1  3  1  0  0  0  0
  1  4  1  0  0  0  0
  3  5  1  0  0  0  0
  3  6  1  0  0  0  0
  3  7  1  0  0  0  0
  4  8  1  0  0  0  0
  4  9  1  0  0  0  0
  4 10  1  0  0  0  0
M  END
$$$$
5N1L_47V_A_401
prProtoss 08172316053D 1   1.00000     0.00000     0
Protoss beta proteinsplus
 28 29  0  0  0  0            999 V2000
  -28.6250   -1.7220    4.9010 O   0  0  0  0  0  0  0  0  0  0  0  0
  -25.8950    1.3980    4.8800 O   0  0  0  0  0  0  0  0  0  0  0  0
  -31.3600   -4.3870    8.3520 N   0  0  0  0  0  0  0  0  0  0  0  0
  -28.3880   -1.6840    7.1520 N   0  0  0  0  0  0  0  0  0  0  0  0
  -25.0080    2.6920    6.7340 C   0  0  0  0  0  0  0  0  0  0  0  0
  -26.9950    0.0400    3.2030 C   0  0  0  0  0  0  0  0  0  0  0  0
  -30.5860   -3.7530    9.2390 C   0  0  0  0  0  0  0  0  0  0  0  0
  -31.1490   -4.1150    7.0620 C   0  0  0  0  0  0  0  0  0  0  0  0
  -29.5730   -2.8800    8.8920 C   0  0  0  0  0  0  0  0  0  0  0  0
  -30.1930   -3.2260    6.6110 C   0  0  0  0  0  0  0  0  0  0  0  0
  -26.5930    0.6290    6.8410 C   0  0  0  0  0  0  0  0  0  0  0  0
  -28.1110   -1.2650    5.9090 C   0  0  0  0  0  0  0  0  0  0  0  0
  -25.8420    1.5650    6.2450 C   0  0  0  0  0  0  0  0  0  0  0  0
  -26.7200    0.3290    4.6340 C   0  0  0  0  0  0  0  0  0  0  0  0
  -29.3780   -2.6070    7.5490 C   0  0  0  0  0  0  0  0  0  0  0  0
  -27.1710   -0.1810    5.8090 C   0  0  0  0  0  0  0  0  0  0  0  0
  -27.8269   -1.2967    7.8836 H   0  0  0  0  0  0  0  0  0  0  0  0
  -25.0401    2.7214    7.7331 H   0  0  0  0  0  0  0  0  0  0  0  0
  -24.0628    2.5617    6.4345 H   0  0  0  0  0  0  0  0  0  0  0  0
  -25.3594    3.5519    6.3637 H   0  0  0  0  0  0  0  0  0  0  0  0
  -27.6018   -0.7518    3.1335 H   0  0  0  0  0  0  0  0  0  0  0  0
  -27.4330    0.8337    2.7808 H   0  0  0  0  0  0  0  0  0  0  0  0
  -26.1353   -0.1564    2.7314 H   0  0  0  0  0  0  0  0  0  0  0  0
  -30.7501   -3.9207   10.2111 H   0  0  0  0  0  0  0  0  0  0  0  0
  -31.7158   -4.5819    6.3832 H   0  0  0  0  0  0  0  0  0  0  0  0
  -28.9968   -2.4572    9.5914 H   0  0  0  0  0  0  0  0  0  0  0  0
  -30.0907   -3.0334    5.6351 H   0  0  0  0  0  0  0  0  0  0  0  0
  -26.7260    0.5161    7.8257 H   0  0  0  0  0  0  0  0  0  0  0  0
  1 12  2  0  0  0  0
  2 13  1  0  0  0  0
  2 14  1  0  0  0  0
  3  7  2  0  0  0  0
  3  8  1  0  0  0  0
  4 12  1  0  0  0  0
  4 15  1  0  0  0  0
  5 13  1  0  0  0  0
  6 14  1  0  0  0  0
  7  9  1  0  0  0  0
  8 10  2  0  0  0  0
  9 15  2  0  0  0  0
 10 15  1  0  0  0  0
 11 13  2  0  0  0  0
 11 16  1  0  0  0  0
 12 16  1  0  0  0  0
 14 16  2  0  0  0  0
  4 17  1  0  0  0  0
  5 18  1  0  0  0  0
  5 19  1  0  0  0  0
  5 20  1  0  0  0  0
  6 21  1  0  0  0  0
  6 22  1  0  0  0  0
  6 23  1  0  0  0  0
  7 24  1  0  0  0  0
  8 25  1  0  0  0  0
  9 26  1  0  0  0  0
 10 27  1  0  0  0  0
 11 28  1  0  0  0  0
M  END
$$$$
5N1L_MPD_A_402
prProtoss 08172316053D 1   1.00000     0.00000     0
Protoss beta proteinsplus
 22 21  0  0  0  0            999 V2000
  -22.4910  -22.6960   -5.6530 O   0  0  0  0  0  0  0  0  0  0  0  0
  -23.7510  -24.8420   -4.8030 O   0  0  0  0  0  0  0  0  0  0  0  0
  -23.4720  -20.5190   -5.5590 C   0  0  0  0  0  0  0  0  0  0  0  0
  -24.3440  -23.9150   -2.6860 C   0  0  0  0  0  0  0  0  0  0  0  0
  -26.1210  -24.6430   -4.3220 C   0  0  0  0  0  0  0  0  0  0  0  0
  -24.7780  -22.6070   -4.8370 C   0  0  0  0  0  0  0  0  0  0  0  0
  -23.4190  -21.9170   -4.9350 C   0  0  1  0  0  0  0  0  0  0  0  0
  -24.7480  -23.9950   -4.1610 C   0  0  0  0  0  0  0  0  0  0  0  0
  -22.7668  -23.6567   -5.6210 H   0  0  0  0  0  0  0  0  0  0  0  0
  -24.2000  -25.6414   -5.2022 H   0  0  0  0  0  0  0  0  0  0  0  0
  -24.1282  -19.9549   -5.0578 H   0  0  0  0  0  0  0  0  0  0  0  0
  -22.5661  -20.0982   -5.5115 H   0  0  0  0  0  0  0  0  0  0  0  0
  -23.7563  -20.5912   -6.5150 H   0  0  0  0  0  0  0  0  0  0  0  0
  -24.9977  -23.3418   -2.1920 H   0  0  0  0  0  0  0  0  0  0  0  0
  -24.3410  -24.8336   -2.2909 H   0  0  0  0  0  0  0  0  0  0  0  0
  -23.4295  -23.5173   -2.6120 H   0  0  0  0  0  0  0  0  0  0  0  0
  -26.8136  -24.0695   -3.8846 H   0  0  0  0  0  0  0  0  0  0  0  0
  -26.3327  -24.7381   -5.2947 H   0  0  0  0  0  0  0  0  0  0  0  0
  -26.1159  -25.5459   -3.8922 H   0  0  0  0  0  0  0  0  0  0  0  0
  -25.1383  -22.7190   -5.7631 H   0  0  0  0  0  0  0  0  0  0  0  0
  -25.3900  -22.0169   -4.3104 H   0  0  0  0  0  0  0  0  0  0  0  0
  -23.0675  -21.8157   -4.0043 H   0  0  0  0  0  0  0  0  0  0  0  0
  1  7  1  0  0  0  0
  2  8  1  0  0  0  0
  3  7  1  0  0  0  0
  4  8  1  0  0  0  0
  5  8  1  0  0  0  0
  6  7  1  0  0  0  0
  6  8  1  0  0  0  0
  1  9  1  0  0  0  0
  2 10  1  0  0  0  0
  3 11  1  0  0  0  0
  3 12  1  0  0  0  0
  3 13  1  0  0  0  0
  4 14  1  0  0  0  0
  4 15  1  0  0  0  0
  4 16  1  0  0  0  0
  5 17  1  0  0  0  0
  5 18  1  0  0  0  0
  5 19  1  0  0  0  0
  6 20  1  0  0  0  0
  6 21  1  0  0  0  0
  7 22  1  0  0  0  0
M  END
$$$$
5N1L_MPD_A_403
prProtoss 08172316053D 1   1.00000     0.00000     0
Protoss beta proteinsplus
 22 21  0  0  0  0            999 V2000
   -6.8130  -10.6770  -14.3710 O   0  0  0  0  0  0  0  0  0  0  0  0
   -4.5890   -9.0910  -15.1720 O   0  0  0  0  0  0  0  0  0  0  0  0
   -7.6730  -12.2300  -15.9180 C   0  0  0  0  0  0  0  0  0  0  0  0
   -3.3500  -11.0800  -15.7800 C   0  0  0  0  0  0  0  0  0  0  0  0
   -3.9580   -9.3020  -17.4770 C   0  0  0  0  0  0  0  0  0  0  0  0
   -5.7640  -10.7200  -16.5640 C   0  0  0  0  0  0  0  0  0  0  0  0
   -6.4160  -11.5150  -15.4270 C   0  0  1  0  0  0  0  0  0  0  0  0
   -4.4120  -10.0700  -16.2330 C   0  0  0  0  0  0  0  0  0  0  0  0
   -7.7572  -10.3817  -14.5167 H   0  0  0  0  0  0  0  0  0  0  0  0
   -5.3034   -9.4035  -14.5459 H   0  0  0  0  0  0  0  0  0  0  0  0
   -7.4356  -12.8403  -16.6738 H   0  0  0  0  0  0  0  0  0  0  0  0
   -8.0667  -12.7637  -15.1696 H   0  0  0  0  0  0  0  0  0  0  0  0
   -8.3397  -11.5541  -16.2321 H   0  0  0  0  0  0  0  0  0  0  0  0
   -3.2128  -11.7636  -16.4969 H   0  0  0  0  0  0  0  0  0  0  0  0
   -2.4889  -10.6025  -15.6055 H   0  0  0  0  0  0  0  0  0  0  0  0
   -3.6560  -11.5323  -14.9423 H   0  0  0  0  0  0  0  0  0  0  0  0
   -3.8243   -9.9421  -18.2336 H   0  0  0  0  0  0  0  0  0  0  0  0
   -4.6557   -8.6309  -17.7275 H   0  0  0  0  0  0  0  0  0  0  0  0
   -3.0974   -8.8314  -17.2825 H   0  0  0  0  0  0  0  0  0  0  0  0
   -6.3964   -9.9935  -16.8328 H   0  0  0  0  0  0  0  0  0  0  0  0
   -5.6251  -11.3428  -17.3339 H   0  0  0  0  0  0  0  0  0  0  0  0
   -5.7652  -12.1920  -15.0833 H   0  0  0  0  0  0  0  0  0  0  0  0
  1  7  1  0  0  0  0
  2  8  1  0  0  0  0
  3  7  1  0  0  0  0
  4  8  1  0  0  0  0
  5  8  1  0  0  0  0
  6  7  1  0  0  0  0
  6  8  1  0  0  0  0
  1  9  1  0  0  0  0
  2 10  1  0  0  0  0
  3 11  1  0  0  0  0
  3 12  1  0  0  0  0
  3 13  1  0  0  0  0
  4 14  1  0  0  0  0
  4 15  1  0  0  0  0
  4 16  1  0  0  0  0
  5 17  1  0  0  0  0
  5 18  1  0  0  0  0
  5 19  1  0  0  0  0
  6 20  1  0  0  0  0
  6 21  1  0  0  0  0
  7 22  1  0  0  0  0
M  END
$$$$
5N1L_DMS_A_404
prProtoss 08172316053D 1   1.00000     0.00000     0
Protoss beta proteinsplus
 10  9  0  0  0  0            999 V2000
  -21.8100    7.8880  -16.8490 S   0  0  0  0  0  0  0  0  0  0  0  0
  -22.3060    7.4570  -15.4920 O   0  0  0  0  0  0  0  0  0  0  0  0
  -23.1770    7.9090  -18.0370 C   0  0  0  0  0  0  0  0  0  0  0  0
  -21.3790    9.6440  -16.8090 C   0  0  0  0  0  0  0  0  0  0  0  0
  -22.8362    8.1960  -18.9323 H   0  0  0  0  0  0  0  0  0  0  0  0
  -23.5707    6.9925  -18.1084 H   0  0  0  0  0  0  0  0  0  0  0  0
  -23.8788    8.5500  -17.7263 H   0  0  0  0  0  0  0  0  0  0  0  0
  -21.0504    9.9272  -17.7100 H   0  0  0  0  0  0  0  0  0  0  0  0
  -22.1872   10.1801  -16.5653 H   0  0  0  0  0  0  0  0  0  0  0  0
  -20.6611    9.7956  -16.1296 H   0  0  0  0  0  0  0  0  0  0  0  0
  1  2  2  0  0  0  0
  1  3  1  0  0  0  0
  1  4  1  0  0  0  0
  3  5  1  0  0  0  0
  3  6  1  0  0  0  0
  3  7  1  0  0  0  0
  4  8  1  0  0  0  0
  4  9  1  0  0  0  0
  4 10  1  0  0  0  0
M  END
$$$$
4IE9_PZX_A_401
prProtoss 05262315063D 1   1.00000     0.00000     0
Protoss beta proteinsplus
 27 28  0  0  0  0            999 V2000
   29.5100  -11.1630   -0.6960 O   0  0  0  0  0  0  0  0  0  0  0  0
   30.0140   -9.8960    1.1200 O   0  0  0  0  0  0  0  0  0  0  0  0
   25.7640   -9.3640   -0.2250 N   0  0  0  0  0  0  0  0  0  0  0  0
   26.7960   -9.8900   -0.6800 N   0  0  0  0  0  0  0  0  0  0  0  0
   33.5490   -9.9870    4.2330 N   0  0  0  0  0  0  0  0  0  0  0  0
   25.0550   -8.1450    1.9250 C   0  0  0  0  0  0  0  0  0  0  0  0
   31.3070  -10.4530    1.4210 C   0  0  0  0  0  0  0  0  0  0  0  0
   32.7380  -10.0840    5.2880 C   0  0  0  0  0  0  0  0  0  0  0  0
   33.1170  -10.0730    2.9800 C   0  0  0  0  0  0  0  0  0  0  0  0
   31.3570  -10.3110    5.1150 C   0  0  0  0  0  0  0  0  0  0  0  0
   30.8640  -10.4640    3.8080 C   0  0  0  0  0  0  0  0  0  0  0  0
   27.2630   -9.2340    1.3560 C   0  0  0  0  0  0  0  0  0  0  0  0
   29.1480  -10.4160    0.2110 C   0  0  0  0  0  0  0  0  0  0  0  0
   26.0200   -8.9190    1.0120 C   0  0  0  0  0  0  0  0  0  0  0  0
   27.7290   -9.8620    0.2850 C   0  0  0  0  0  0  0  0  0  0  0  0
   31.7560  -10.3330    2.7320 C   0  0  0  0  0  0  0  0  0  0  0  0
   25.5091   -7.9392    2.7919 H   0  0  0  0  0  0  0  0  0  0  0  0
   24.7862   -7.2915    1.4787 H   0  0  0  0  0  0  0  0  0  0  0  0
   24.2420   -8.7009    2.0983 H   0  0  0  0  0  0  0  0  0  0  0  0
   31.9753  -10.0006    0.8305 H   0  0  0  0  0  0  0  0  0  0  0  0
   31.2741  -11.4280    1.2013 H   0  0  0  0  0  0  0  0  0  0  0  0
   33.1132   -9.9948    6.2106 H   0  0  0  0  0  0  0  0  0  0  0  0
   33.7540   -9.9539    2.2184 H   0  0  0  0  0  0  0  0  0  0  0  0
   30.7436  -10.3618    5.9031 H   0  0  0  0  0  0  0  0  0  0  0  0
   29.8971  -10.6622    3.6476 H   0  0  0  0  0  0  0  0  0  0  0  0
   27.7349   -9.0433    2.2168 H   0  0  0  0  0  0  0  0  0  0  0  0
   24.8893   -9.2865   -0.7033 H   0  0  0  0  0  0  0  0  0  0  0  0
  1 13  2  0  0  0  0
  2  7  1  0  0  0  0
  2 13  1  0  0  0  0
  3  4  1  0  0  0  0
  3 14  1  0  0  0  0
  4 15  2  0  0  0  0
  5  8  2  0  0  0  0
  5  9  1  0  0  0  0
  6 14  1  0  0  0  0
  7 16  1  0  0  0  0
  8 10  1  0  0  0  0
  9 16  2  0  0  0  0
 10 11  2  0  0  0  0
 11 16  1  0  0  0  0
 12 14  2  0  0  0  0
 12 15  1  0  0  0  0
 13 15  1  0  0  0  0
  3 27  1  0  0  0  0
  6 17  1  0  0  0  0
  6 18  1  0  0  0  0
  6 19  1  0  0  0  0
  7 20  1  0  0  0  0
  7 21  1  0  0  0  0
  8 22  1  0  0  0  0
  9 23  1  0  0  0  0
 10 24  1  0  0  0  0
 11 25  1  0  0  0  0
 12 26  1  0  0  0  0
M  END
$$$$
4IE9_GOL_A_402
prProtoss 05262315063D 1   1.00000     0.00000     0
Protoss beta proteinsplus
 14 13  0  0  0  0            999 V2000
   23.6060  -13.1130    1.7530 O   0  0  0  0  0  0  0  0  0  0  0  0
   20.4600  -13.7930   -1.4320 O   0  0  0  0  0  0  0  0  0  0  0  0
   23.1230  -15.2070   -0.6610 O   0  0  0  0  0  0  0  0  0  0  0  0
   23.5960  -13.0460    0.3220 C   0  0  0  0  0  0  0  0  0  0  0  0
   21.8190  -13.3420   -1.4230 C   0  0  0  0  0  0  0  0  0  0  0  0
   22.5290  -13.9850   -0.2370 C   0  0  0  0  0  0  0  0  0  0  0  0
   23.8075  -14.0490    2.0415 H   0  0  0  0  0  0  0  0  0  0  0  0
   20.1224  -13.8153   -2.3730 H   0  0  0  0  0  0  0  0  0  0  0  0
   22.4155  -15.8130   -1.0246 H   0  0  0  0  0  0  0  0  0  0  0  0
   24.4924  -13.3172   -0.0286 H   0  0  0  0  0  0  0  0  0  0  0  0
   23.3956  -12.1091    0.0357 H   0  0  0  0  0  0  0  0  0  0  0  0
   21.8443  -12.3464   -1.3330 H   0  0  0  0  0  0  0  0  0  0  0  0
   22.2703  -13.6113   -2.2738 H   0  0  0  0  0  0  0  0  0  0  0  0
   21.8581  -14.1794    0.4786 H   0  0  0  0  0  0  0  0  0  0  0  0
  1  4  1  0  0  0  0
  2  5  1  0  0  0  0
  3  6  1  0  0  0  0
  4  6  1  0  0  0  0
  5  6  1  0  0  0  0
  1  7  1  0  0  0  0
  2  8  1  0  0  0  0
  3  9  1  0  0  0  0
  4 10  1  0  0  0  0
  4 11  1  0  0  0  0
  5 12  1  0  0  0  0
  5 13  1  0  0  0  0
  6 14  1  0  0  0  0
M  END
$$$$
3MVJ_XFE_A_351
prProtoss 05262315113D 1   1.00000     0.00000     0
Protoss beta proteinsplus
 32 34  0  0  0  0            999 V2000
   14.7000   14.8250   14.7820 N   0  3  0  0  0  0  0  0  0  0  0  0
   21.4860   17.5680   15.4410 N   0  0  0  0  0  0  0  0  0  0  0  0
   20.1990   15.5920   15.6890 N   0  0  0  0  0  0  0  0  0  0  0  0
   20.6570   19.0510   13.6620 N   0  0  0  0  0  0  0  0  0  0  0  0
   18.2760   14.9270   14.4630 N   0  0  0  0  0  0  0  0  0  0  0  0
   17.7390   17.5150   12.1420 C   0  0  0  0  0  0  0  0  0  0  0  0
   21.2470   16.3890   16.0300 C   0  0  0  0  0  0  0  0  0  0  0  0
   19.6320   19.0330   12.7630 C   0  0  0  0  0  0  0  0  0  0  0  0
   18.1660   13.8180   15.4410 C   0  0  0  0  0  0  0  0  0  0  0  0
   16.9630   15.3250   13.9210 C   0  0  0  0  0  0  0  0  0  0  0  0
   16.6720   13.5410   15.5420 C   0  0  0  0  0  0  0  0  0  0  0  0
   20.6430   17.9380   14.4290 C   0  0  0  0  0  0  0  0  0  0  0  0
   19.3080   15.8820   14.7100 C   0  0  0  0  0  0  0  0  0  0  0  0
   15.9820   14.2380   14.3730 C   0  0  1  0  0  0  0  0  0  0  0  0
   18.9360   17.8850   12.9640 C   0  0  0  0  0  0  0  0  0  0  0  0
   19.5440   17.1070   14.0420 C   0  0  0  0  0  0  0  0  0  0  0  0
   13.9629   14.1731   14.6038 H   0  0  0  0  0  0  0  0  0  0  0  0
   14.7275   15.0383   15.7586 H   0  0  0  0  0  0  0  0  0  0  0  0
   21.3282   19.7878   13.7430 H   0  0  0  0  0  0  0  0  0  0  0  0
   17.3793   16.6357   12.4540 H   0  0  0  0  0  0  0  0  0  0  0  0
   17.0350   18.2180   12.2431 H   0  0  0  0  0  0  0  0  0  0  0  0
   18.0039   17.4444   11.1803 H   0  0  0  0  0  0  0  0  0  0  0  0
   21.8664   16.0812   16.7523 H   0  0  0  0  0  0  0  0  0  0  0  0
   19.4301   19.7361   12.0811 H   0  0  0  0  0  0  0  0  0  0  0  0
   18.5349   14.0926   16.3290 H   0  0  0  0  0  0  0  0  0  0  0  0
   18.6536   13.0088   15.1133 H   0  0  0  0  0  0  0  0  0  0  0  0
   16.9971   15.3708   12.9226 H   0  0  0  0  0  0  0  0  0  0  0  0
   16.6901   16.2150   14.2864 H   0  0  0  0  0  0  0  0  0  0  0  0
   16.3185   13.8983   16.4065 H   0  0  0  0  0  0  0  0  0  0  0  0
   16.5058   12.5560   15.4956 H   0  0  0  0  0  0  0  0  0  0  0  0
   15.8337   13.5856   13.6298 H   0  0  0  0  0  0  0  0  0  0  0  0
   14.5364   15.6635   14.2622 H   0  0  0  0  0  0  0  0  0  0  0  0
  1 14  1  0  0  0  0
  2  7  2  0  0  0  0
  2 12  1  0  0  0  0
  3  7  1  0  0  0  0
  3 13  2  0  0  0  0
  4  8  1  0  0  0  0
  4 12  1  0  0  0  0
  5  9  1  0  0  0  0
  5 10  1  0  0  0  0
  5 13  1  0  0  0  0
  6 15  1  0  0  0  0
  8 15  2  0  0  0  0
  9 11  1  0  0  0  0
 10 14  1  0  0  0  0
 11 14  1  0  0  0  0
 12 16  2  0  0  0  0
 13 16  1  0  0  0  0
 15 16  1  0  0  0  0
  1 17  1  0  0  0  0
  1 18  1  0  0  0  0
  4 19  1  0  0  0  0
  6 20  1  0  0  0  0
  6 21  1  0  0  0  0
  6 22  1  0  0  0  0
  7 23  1  0  0  0  0
  8 24  1  0  0  0  0
  9 25  1  0  0  0  0
  9 26  1  0  0  0  0
 10 27  1  0  0  0  0
 10 28  1  0  0  0  0
 11 29  1  0  0  0  0
 11 30  1  0  0  0  0
 14 31  1  0  0  0  0
  1 32  1  0  0  0  0
M  CHG  1   1   1
M  END
$$$$
3MVJ_XFE_E_351
prProtoss 05262315113D 1   1.00000     0.00000     0
Protoss beta proteinsplus
 32 34  0  0  0  0            999 V2000
   -2.6210  -14.7870   19.8150 N   0  3  0  0  0  0  0  0  0  0  0  0
   -1.7140  -17.6010   13.2880 N   0  0  0  0  0  0  0  0  0  0  0  0
   -1.6370  -16.0550   15.0330 N   0  0  0  0  0  0  0  0  0  0  0  0
   -2.8850  -19.7360   13.8160 N   0  0  0  0  0  0  0  0  0  0  0  0
   -2.6440  -16.3940   17.1760 N   0  0  0  0  0  0  0  0  0  0  0  0
   -4.0570  -19.4950   17.2660 C   0  0  0  0  0  0  0  0  0  0  0  0
   -1.3480  -16.4120   13.7790 C   0  0  0  0  0  0  0  0  0  0  0  0
   -3.5270  -20.2710   14.8940 C   0  0  0  0  0  0  0  0  0  0  0  0
   -3.9320  -16.7500   17.8160 C   0  0  0  0  0  0  0  0  0  0  0  0
   -2.3120  -14.9780   17.4120 C   0  0  0  0  0  0  0  0  0  0  0  0
   -4.4760  -15.4540   18.4470 C   0  0  0  0  0  0  0  0  0  0  0  0
   -2.4040  -18.4830   14.0650 C   0  0  0  0  0  0  0  0  0  0  0  0
   -2.3430  -16.8580   15.8710 C   0  0  0  0  0  0  0  0  0  0  0  0
   -3.2560  -14.5520   18.5350 C   0  0  1  0  0  0  0  0  0  0  0  0
   -3.4700  -19.3100   15.8800 C   0  0  0  0  0  0  0  0  0  0  0  0
   -2.7390  -18.1180   15.3790 C   0  0  0  0  0  0  0  0  0  0  0  0
   -2.9538  -14.1184   20.4800 H   0  0  0  0  0  0  0  0  0  0  0  0
   -2.8407  -15.7098   20.1317 H   0  0  0  0  0  0  0  0  0  0  0  0
   -2.7786  -20.2087   12.9412 H   0  0  0  0  0  0  0  0  0  0  0  0
   -3.8971  -18.6703   17.8085 H   0  0  0  0  0  0  0  0  0  0  0  0
   -5.0405  -19.6599   17.1922 H   0  0  0  0  0  0  0  0  0  0  0  0
   -3.6204  -20.2768   17.7113 H   0  0  0  0  0  0  0  0  0  0  0  0
   -0.8462  -15.7754   13.1934 H   0  0  0  0  0  0  0  0  0  0  0  0
   -3.9515  -21.1743   14.9560 H   0  0  0  0  0  0  0  0  0  0  0  0
   -3.7877  -17.4441   18.5212 H   0  0  0  0  0  0  0  0  0  0  0  0
   -4.5736  -17.0978   17.1323 H   0  0  0  0  0  0  0  0  0  0  0  0
   -2.4730  -14.4342   16.5883 H   0  0  0  0  0  0  0  0  0  0  0  0
   -1.3578  -14.8801   17.6949 H   0  0  0  0  0  0  0  0  0  0  0  0
   -4.8536  -15.6317   19.3557 H   0  0  0  0  0  0  0  0  0  0  0  0
   -5.1806  -15.0444   17.8675 H   0  0  0  0  0  0  0  0  0  0  0  0
   -3.5155  -13.5912   18.4371 H   0  0  0  0  0  0  0  0  0  0  0  0
   -1.6300  -14.6952   19.7173 H   0  0  0  0  0  0  0  0  0  0  0  0
  1 14  1  0  0  0  0
  2  7  2  0  0  0  0
  2 12  1  0  0  0  0
  3  7  1  0  0  0  0
  3 13  2  0  0  0  0
  4  8  1  0  0  0  0
  4 12  1  0  0  0  0
  5  9  1  0  0  0  0
  5 10  1  0  0  0  0
  5 13  1  0  0  0  0
  6 15  1  0  0  0  0
  8 15  2  0  0  0  0
  9 11  1  0  0  0  0
 10 14  1  0  0  0  0
 11 14  1  0  0  0  0
 12 16  2  0  0  0  0
 13 16  1  0  0  0  0
 15 16  1  0  0  0  0
  1 17  1  0  0  0  0
  1 18  1  0  0  0  0
  4 19  1  0  0  0  0
  6 20  1  0  0  0  0
  6 21  1  0  0  0  0
  6 22  1  0  0  0  0
  7 23  1  0  0  0  0
  8 24  1  0  0  0  0
  9 25  1  0  0  0  0
  9 26  1  0  0  0  0
 10 27  1  0  0  0  0
 10 28  1  0  0  0  0
 11 29  1  0  0  0  0
 11 30  1  0  0  0  0
 14 31  1  0  0  0  0
  1 32  1  0  0  0  0
M  CHG  1   1   1
M  END
$$$$
2VNY_M02_A_1351
prProtoss 05262315063D 1   1.00000     0.00000     0
Protoss beta proteinsplus
 31 33  0  0  0  0            999 V2000
   10.2640    7.0810    4.5470 N   0  3  0  0  0  0  0  0  0  0  0  0
    3.1690    9.7380    3.8940 N   0  0  0  0  0  0  0  0  0  0  0  0
    3.1730    9.6510    1.4680 N   0  0  0  0  0  0  0  0  0  0  0  0
    5.3920    9.9180    4.8040 N   0  0  0  0  0  0  0  0  0  0  0  0
    5.3630    9.7760    1.0780 N   0  0  0  0  0  0  0  0  0  0  0  0
    7.3780    9.9900    3.5280 N   0  0  0  0  0  0  0  0  0  0  0  0
    4.0580    9.8490    4.8830 C   0  0  0  0  0  0  0  0  0  0  0  0
    4.1480    9.6600    0.5310 C   0  0  0  0  0  0  0  0  0  0  0  0
    8.2480    9.5360    2.4380 C   0  0  0  0  0  0  0  0  0  0  0  0
    8.1780   10.2840    4.7210 C   0  0  0  0  0  0  0  0  0  0  0  0
    9.0130    8.2850    2.8210 C   0  0  0  0  0  0  0  0  0  0  0  0
    8.8630    9.0230    5.2130 C   0  0  0  0  0  0  0  0  0  0  0  0
    9.7770    8.4410    4.1380 C   0  0  0  0  0  0  0  0  0  0  0  0
    3.7670    9.7330    2.6900 C   0  0  0  0  0  0  0  0  0  0  0  0
    5.9600    9.9040    3.5720 C   0  0  0  0  0  0  0  0  0  0  0  0
    5.1190    9.8120    2.4530 C   0  0  0  0  0  0  0  0  0  0  0  0
   10.7685    7.1525    5.4074 H   0  0  0  0  0  0  0  0  0  0  0  0
    9.4821    6.4697    4.6689 H   0  0  0  0  0  0  0  0  0  0  0  0
    3.6763    9.8855    5.8066 H   0  0  0  0  0  0  0  0  0  0  0  0
    3.9808    9.5885   -0.4523 H   0  0  0  0  0  0  0  0  0  0  0  0
    8.9005   10.2616    2.2196 H   0  0  0  0  0  0  0  0  0  0  0  0
    7.6862    9.3399    1.6343 H   0  0  0  0  0  0  0  0  0  0  0  0
    7.5808   10.6383    5.4406 H   0  0  0  0  0  0  0  0  0  0  0  0
    8.8700   10.9695    4.4945 H   0  0  0  0  0  0  0  0  0  0  0  0
    9.6672    8.0748    2.0944 H   0  0  0  0  0  0  0  0  0  0  0  0
    8.3647    7.5294    2.9146 H   0  0  0  0  0  0  0  0  0  0  0  0
    8.1676    8.3455    5.4527 H   0  0  0  0  0  0  0  0  0  0  0  0
    9.4082    9.2417    6.0223 H   0  0  0  0  0  0  0  0  0  0  0  0
   10.5594    9.0484    4.0003 H   0  0  0  0  0  0  0  0  0  0  0  0
   10.8658    6.7150    3.8371 H   0  0  0  0  0  0  0  0  0  0  0  0
    2.1899    9.5942    1.2940 H   0  0  0  0  0  0  0  0  0  0  0  0
  1 13  1  0  0  0  0
  2  7  2  0  0  0  0
  2 14  1  0  0  0  0
  3  8  1  0  0  0  0
  3 14  1  0  0  0  0
  4  7  1  0  0  0  0
  4 15  2  0  0  0  0
  5  8  2  0  0  0  0
  5 16  1  0  0  0  0
  6  9  1  0  0  0  0
  6 10  1  0  0  0  0
  6 15  1  0  0  0  0
  9 11  1  0  0  0  0
 10 12  1  0  0  0  0
 11 13  1  0  0  0  0
 12 13  1  0  0  0  0
 14 16  2  0  0  0  0
 15 16  1  0  0  0  0
  1 17  1  0  0  0  0
  1 18  1  0  0  0  0
  3 31  1  0  0  0  0
  7 19  1  0  0  0  0
  8 20  1  0  0  0  0
  9 21  1  0  0  0  0
  9 22  1  0  0  0  0
 10 23  1  0  0  0  0
 10 24  1  0  0  0  0
 11 25  1  0  0  0  0
 11 26  1  0  0  0  0
 12 27  1  0  0  0  0
 12 28  1  0  0  0  0
 13 29  1  0  0  0  0
  1 30  1  0  0  0  0
M  CHG  1   1   1
M  END
$$$$
5N1O_MPD_A_401
prProtoss 08192303243D 1   1.00000     0.00000     0
Protoss beta proteinsplus
 22 21  0  0  0  0            999 V2000
   -7.9950   12.3180   -4.4460 O   0  0  0  0  0  0  0  0  0  0  0  0
   -9.2740   13.0010   -2.3040 O   0  0  0  0  0  0  0  0  0  0  0  0
   -8.8050   12.6390   -6.6650 C   0  0  0  0  0  0  0  0  0  0  0  0
   -9.5960   15.2360   -2.9540 C   0  0  0  0  0  0  0  0  0  0  0  0
  -11.5990   13.7160   -2.5880 C   0  0  0  0  0  0  0  0  0  0  0  0
  -10.2160   13.2840   -4.5550 C   0  0  0  0  0  0  0  0  0  0  0  0
   -8.8250   13.1530   -5.2090 C   0  0  1  0  0  0  0  0  0  0  0  0
  -10.1620   13.8200   -3.1120 C   0  0  0  0  0  0  0  0  0  0  0  0
   -8.3324   12.2822   -3.5053 H   0  0  0  0  0  0  0  0  0  0  0  0
   -9.8004   12.5495   -1.5836 H   0  0  0  0  0  0  0  0  0  0  0  0
   -9.3907   13.2189   -7.2313 H   0  0  0  0  0  0  0  0  0  0  0  0
   -7.8689   12.6672   -7.0156 H   0  0  0  0  0  0  0  0  0  0  0  0
   -9.1424   11.6980   -6.6910 H   0  0  0  0  0  0  0  0  0  0  0  0
  -10.1511   15.8778   -3.4830 H   0  0  0  0  0  0  0  0  0  0  0  0
   -9.6143   15.4965   -1.9887 H   0  0  0  0  0  0  0  0  0  0  0  0
   -8.6534   15.2573   -3.2872 H   0  0  0  0  0  0  0  0  0  0  0  0
  -12.2008   14.2828   -3.1506 H   0  0  0  0  0  0  0  0  0  0  0  0
  -11.9015   12.7638   -2.6312 H   0  0  0  0  0  0  0  0  0  0  0  0
  -11.6320   14.0335   -1.6403 H   0  0  0  0  0  0  0  0  0  0  0  0
  -10.6473   12.3819   -4.5427 H   0  0  0  0  0  0  0  0  0  0  0  0
  -10.7681   13.9099   -5.1058 H   0  0  0  0  0  0  0  0  0  0  0  0
   -8.4105   14.0630   -5.2098 H   0  0  0  0  0  0  0  0  0  0  0  0
  1  7  1  0  0  0  0
  2  8  1  0  0  0  0
  3  7  1  0  0  0  0
  4  8  1  0  0  0  0
  5  8  1  0  0  0  0
  6  7  1  0  0  0  0
  6  8  1  0  0  0  0
  1  9  1  0  0  0  0
  2 10  1  0  0  0  0
  3 11  1  0  0  0  0
  3 12  1  0  0  0  0
  3 13  1  0  0  0  0
  4 14  1  0  0  0  0
  4 15  1  0  0  0  0
  4 16  1  0  0  0  0
  5 17  1  0  0  0  0
  5 18  1  0  0  0  0
  5 19  1  0  0  0  0
  6 20  1  0  0  0  0
  6 21  1  0  0  0  0
  7 22  1  0  0  0  0
M  END
$$$$
5N1O_8GB_A_402
prProtoss 08192303243D 1   1.00000     0.00000     0
Protoss beta proteinsplus
 21 21  0  0  0  0            999 V2000
  -10.9350   26.9560  -25.9080 Cl  0  0  0  0  0  0  0  0  0  0  0  0
  -13.3380   22.0320  -26.1080 Cl  0  0  0  0  0  0  0  0  0  0  0  0
  -16.5270   26.5110  -22.9230 O   0  0  0  0  0  0  0  0  0  0  0  0
  -14.8430   27.4900  -24.5150 O   0  0  0  0  0  0  0  0  0  0  0  0
  -16.7380   24.1890  -22.5010 C   0  0  0  0  0  0  0  0  0  0  0  0
  -12.6660   27.1720  -26.3420 C   0  0  0  0  0  0  0  0  0  0  0  0
  -13.1120   24.7360  -26.1520 C   0  0  0  0  0  0  0  0  0  0  0  0
  -14.7930   23.8350  -24.6820 C   0  0  0  0  0  0  0  0  0  0  0  0
  -13.7800   23.6590  -25.6070 C   0  0  0  0  0  0  0  0  0  0  0  0
  -16.1470   25.3610  -23.2040 C   0  0  0  0  0  0  0  0  0  0  0  0
  -14.5010   26.2270  -24.8830 C   0  0  0  0  0  0  0  0  0  0  0  0
  -13.4730   26.0360  -25.8080 C   0  0  0  0  0  0  0  0  0  0  0  0
  -15.1410   25.1280  -24.2850 C   0  0  0  0  0  0  0  0  0  0  0  0
  -15.5781   27.6362  -23.8530 H   0  0  0  0  0  0  0  0  0  0  0  0
  -16.3215   23.3481  -22.8467 H   0  0  0  0  0  0  0  0  0  0  0  0
  -16.5653   24.2673  -21.5192 H   0  0  0  0  0  0  0  0  0  0  0  0
  -17.7241   24.1644  -22.6650 H   0  0  0  0  0  0  0  0  0  0  0  0
  -12.7562   27.2029  -27.3374 H   0  0  0  0  0  0  0  0  0  0  0  0
  -13.0010   28.0289  -25.9502 H   0  0  0  0  0  0  0  0  0  0  0  0
  -12.3642   24.5821  -26.7978 H   0  0  0  0  0  0  0  0  0  0  0  0
  -15.2717   23.0440  -24.3011 H   0  0  0  0  0  0  0  0  0  0  0  0
  1  6  1  0  0  0  0
  2  9  1  0  0  0  0
  3 10  2  0  0  0  0
  4 11  1  0  0  0  0
  5 10  1  0  0  0  0
  6 12  1  0  0  0  0
  7  9  2  0  0  0  0
  7 12  1  0  0  0  0
  8  9  1  0  0  0  0
  8 13  2  0  0  0  0
 10 13  1  0  0  0  0
 11 12  2  0  0  0  0
 11 13  1  0  0  0  0
  4 14  1  0  0  0  0
  5 15  1  0  0  0  0
  5 16  1  0  0  0  0
  5 17  1  0  0  0  0
  6 18  1  0  0  0  0
  6 19  1  0  0  0  0
  7 20  1  0  0  0  0
  8 21  1  0  0  0  0
M  END
$$$$
5N37_MPD_A_401
prProtoss 08172316053D 1   1.00000     0.00000     0
Protoss beta proteinsplus
 22 21  0  0  0  0            999 V2000
   -8.0260   12.1290   -4.3610 O   0  0  0  0  0  0  0  0  0  0  0  0
   -9.1340   13.1430   -2.2290 O   0  0  0  0  0  0  0  0  0  0  0  0
   -8.5100   12.9080   -6.5750 C   0  0  0  0  0  0  0  0  0  0  0  0
   -9.3990   15.4050   -2.9070 C   0  0  0  0  0  0  0  0  0  0  0  0
  -11.3940   13.8730   -2.5070 C   0  0  0  0  0  0  0  0  0  0  0  0
   -9.9930   13.5410   -4.5190 C   0  0  0  0  0  0  0  0  0  0  0  0
   -8.5890   13.2040   -5.0640 C   0  0  1  0  0  0  0  0  0  0  0  0
   -9.9710   13.9940   -3.0510 C   0  0  0  0  0  0  0  0  0  0  0  0
   -8.0727   12.3119   -3.3790 H   0  0  0  0  0  0  0  0  0  0  0  0
   -9.6928   12.7075   -1.5232 H   0  0  0  0  0  0  0  0  0  0  0  0
   -8.9094   13.6697   -7.0852 H   0  0  0  0  0  0  0  0  0  0  0  0
   -7.5534   12.7928   -6.8425 H   0  0  0  0  0  0  0  0  0  0  0  0
   -9.0160   12.0695   -6.7773 H   0  0  0  0  0  0  0  0  0  0  0  0
   -9.9400   16.0417   -3.4565 H   0  0  0  0  0  0  0  0  0  0  0  0
   -9.4324   15.6818   -1.9467 H   0  0  0  0  0  0  0  0  0  0  0  0
   -8.4505   15.4141   -3.2237 H   0  0  0  0  0  0  0  0  0  0  0  0
  -12.0078   14.4475   -3.0484 H   0  0  0  0  0  0  0  0  0  0  0  0
  -11.6926   12.9203   -2.5637 H   0  0  0  0  0  0  0  0  0  0  0  0
  -11.4127   14.1720   -1.5529 H   0  0  0  0  0  0  0  0  0  0  0  0
  -10.5681   12.7263   -4.5930 H   0  0  0  0  0  0  0  0  0  0  0  0
  -10.3829   14.2758   -5.0740 H   0  0  0  0  0  0  0  0  0  0  0  0
   -8.0099   14.0009   -4.8918 H   0  0  0  0  0  0  0  0  0  0  0  0
  1  7  1  0  0  0  0
  2  8  1  0  0  0  0
  3  7  1  0  0  0  0
  4  8  1  0  0  0  0
  5  8  1  0  0  0  0
  6  7  1  0  0  0  0
  6  8  1  0  0  0  0
  1  9  1  0  0  0  0
  2 10  1  0  0  0  0
  3 11  1  0  0  0  0
  3 12  1  0  0  0  0
  3 13  1  0  0  0  0
  4 14  1  0  0  0  0
  4 15  1  0  0  0  0
  4 16  1  0  0  0  0
  5 17  1  0  0  0  0
  5 18  1  0  0  0  0
  5 19  1  0  0  0  0
  6 20  1  0  0  0  0
  6 21  1  0  0  0  0
  7 22  1  0  0  0  0
M  END
$$$$
5N37_8JT_A_402
prProtoss 08172316053D 1   1.00000     0.00000     0
Protoss beta proteinsplus
 34 36  0  0  0  0            999 V2000
  -12.2310   20.3590  -31.9990 O   0  0  0  0  0  0  0  0  0  0  0  0
  -12.9250   22.5360  -32.3400 O   0  0  0  0  0  0  0  0  0  0  0  0
  -10.2310   24.5280  -27.5490 N   0  3  0  0  0  0  0  0  0  0  0  0
  -13.0470   21.1950  -32.8140 C   0  0  0  0  0  0  0  0  0  0  0  0
   -9.7940   24.4130  -28.9740 C   0  0  0  0  0  0  0  0  0  0  0  0
  -12.7500   27.0190  -26.7960 C   0  0  0  0  0  0  0  0  0  0  0  0
  -12.2170   26.4880  -25.6010 C   0  0  0  0  0  0  0  0  0  0  0  0
  -10.5330   20.9160  -30.2670 C   0  0  0  0  0  0  0  0  0  0  0  0
  -12.0370   26.2680  -27.8980 C   0  0  0  0  0  0  0  0  0  0  0  0
  -12.0650   24.9970  -25.8780 C   0  0  0  0  0  0  0  0  0  0  0  0
  -10.0020   21.9620  -29.5280 C   0  0  0  0  0  0  0  0  0  0  0  0
  -11.4410   23.5310  -30.6350 C   0  0  0  0  0  0  0  0  0  0  0  0
  -11.5080   21.2180  -31.1970 C   0  0  0  0  0  0  0  0  0  0  0  0
  -11.9550   22.4950  -31.3660 C   0  0  0  0  0  0  0  0  0  0  0  0
  -11.6810   24.8900  -27.3510 C   0  0  0  0  0  0  0  0  0  0  0  0
  -10.4420   23.2710  -29.7050 C   0  0  0  0  0  0  0  0  0  0  0  0
   -9.6733   25.2324  -27.1100 H   0  0  0  0  0  0  0  0  0  0  0  0
  -14.0006   20.9000  -32.7535 H   0  0  0  0  0  0  0  0  0  0  0  0
  -12.7416   21.1429  -33.7648 H   0  0  0  0  0  0  0  0  0  0  0  0
   -8.8031   24.2799  -28.9922 H   0  0  0  0  0  0  0  0  0  0  0  0
  -10.0248   25.2637  -29.4462 H   0  0  0  0  0  0  0  0  0  0  0  0
  -12.5649   27.9996  -26.8600 H   0  0  0  0  0  0  0  0  0  0  0  0
  -13.7365   26.8622  -26.8429 H   0  0  0  0  0  0  0  0  0  0  0  0
  -12.8420   26.6431  -24.8360 H   0  0  0  0  0  0  0  0  0  0  0  0
  -11.3298   26.9013  -25.3957 H   0  0  0  0  0  0  0  0  0  0  0  0
  -10.2208   19.9757  -30.1313 H   0  0  0  0  0  0  0  0  0  0  0  0
  -11.2055   26.7565  -28.1624 H   0  0  0  0  0  0  0  0  0  0  0  0
  -12.6367   26.1761  -28.6929 H   0  0  0  0  0  0  0  0  0  0  0  0
  -12.9273   24.5205  -25.7066 H   0  0  0  0  0  0  0  0  0  0  0  0
  -11.3478   24.6062  -25.3011 H   0  0  0  0  0  0  0  0  0  0  0  0
   -9.2882   21.7723  -28.8539 H   0  0  0  0  0  0  0  0  0  0  0  0
  -11.7796   24.4624  -30.7682 H   0  0  0  0  0  0  0  0  0  0  0  0
  -12.2561   24.2013  -27.7925 H   0  0  0  0  0  0  0  0  0  0  0  0
  -10.0679   23.6479  -27.1032 H   0  0  0  0  0  0  0  0  0  0  0  0
  1  4  1  0  0  0  0
  1 13  1  0  0  0  0
  2  4  1  0  0  0  0
  2 14  1  0  0  0  0
  3  5  1  0  0  0  0
  3 15  1  0  0  0  0
  5 16  1  0  0  0  0
  6  7  1  0  0  0  0
  6  9  1  0  0  0  0
  7 10  1  0  0  0  0
  8 11  2  0  0  0  0
  8 13  1  0  0  0  0
  9 15  1  0  0  0  0
 10 15  1  0  0  0  0
 11 16  1  0  0  0  0
 12 14  1  0  0  0  0
 12 16  2  0  0  0  0
 13 14  2  0  0  0  0
  3 17  1  0  0  0  0
  4 18  1  0  0  0  0
  4 19  1  0  0  0  0
  5 20  1  0  0  0  0
  5 21  1  0  0  0  0
  6 22  1  0  0  0  0
  6 23  1  0  0  0  0
  7 24  1  0  0  0  0
  7 25  1  0  0  0  0
  8 26  1  0  0  0  0
  9 27  1  0  0  0  0
  9 28  1  0  0  0  0
 10 29  1  0  0  0  0
 10 30  1  0  0  0  0
 11 31  1  0  0  0  0
 12 32  1  0  0  0  0
 15 33  1  0  0  0  0
  3 34  1  0  0  0  0
M  CHG  1   3   1
M  END
$$$$
5N37_8JT_A_403
prProtoss 08172316053D 1   1.00000     0.00000     0
Protoss beta proteinsplus
 18 18  0  0  0  0            999 V2000
  -12.2130   13.5330    3.5040 N   0  3  0  0  0  0  0  0  0  0  0  0
  -14.0180   14.5780    0.6160 C   0  0  0  0  0  0  0  0  0  0  0  0
  -13.5710   13.2470    0.0500 C   0  0  0  0  0  0  0  0  0  0  0  0
  -14.2140   14.3120    2.1130 C   0  0  0  0  0  0  0  0  0  0  0  0
  -12.6710   12.6660    1.1660 C   0  0  0  0  0  0  0  0  0  0  0  0
  -13.2660   13.1680    2.4820 C   0  0  0  0  0  0  0  0  0  0  0  0
  -12.5642   13.3539    4.4230 H   0  0  0  0  0  0  0  0  0  0  0  0
  -11.3923   12.9835    3.3478 H   0  0  0  0  0  0  0  0  0  0  0  0
  -14.8757   14.8715    0.1939 H   0  0  0  0  0  0  0  0  0  0  0  0
  -13.3182   15.2772    0.4699 H   0  0  0  0  0  0  0  0  0  0  0  0
  -13.0542   13.3738   -0.7966 H   0  0  0  0  0  0  0  0  0  0  0  0
  -14.3548   12.6509   -0.1240 H   0  0  0  0  0  0  0  0  0  0  0  0
  -15.1610   14.0477    2.2953 H   0  0  0  0  0  0  0  0  0  0  0  0
  -13.9888   15.1307    2.6413 H   0  0  0  0  0  0  0  0  0  0  0  0
  -11.7315   12.9923    1.0614 H   0  0  0  0  0  0  0  0  0  0  0  0
  -12.6818   11.6665    1.1375 H   0  0  0  0  0  0  0  0  0  0  0  0
  -13.8184   12.4285    2.8666 H   0  0  0  0  0  0  0  0  0  0  0  0
  -11.9862   14.5031    3.4171 H   0  0  0  0  0  0  0  0  0  0  0  0
  1  6  1  0  0  0  0
  2  3  1  0  0  0  0
  2  4  1  0  0  0  0
  3  5  1  0  0  0  0
  4  6  1  0  0  0  0
  5  6  1  0  0  0  0
  1  7  1  0  0  0  0
  1  8  1  0  0  0  0
  2  9  1  0  0  0  0
  2 10  1  0  0  0  0
  3 11  1  0  0  0  0
  3 12  1  0  0  0  0
  4 13  1  0  0  0  0
  4 14  1  0  0  0  0
  5 15  1  0  0  0  0
  5 16  1  0  0  0  0
  6 17  1  0  0  0  0
  1 18  1  0  0  0  0
M  CHG  1   1   1
M  END
$$$$
5N37_DMS_A_404
prProtoss 08172316053D 1   1.00000     0.00000     0
Protoss beta proteinsplus
 10  9  0  0  0  0            999 V2000
  -13.3760    3.7520  -27.3680 S   0  0  0  0  0  0  0  0  0  0  0  0
  -14.6120    2.9300  -27.5210 O   0  0  0  0  0  0  0  0  0  0  0  0
  -12.2210    2.7080  -26.4440 C   0  0  0  0  0  0  0  0  0  0  0  0
  -12.5340    3.7650  -28.9760 C   0  0  0  0  0  0  0  0  0  0  0  0
  -11.3629    3.2024  -26.3049 H   0  0  0  0  0  0  0  0  0  0  0  0
  -12.6190    2.4749  -25.5567 H   0  0  0  0  0  0  0  0  0  0  0  0
  -12.0431    1.8701  -26.9600 H   0  0  0  0  0  0  0  0  0  0  0  0
  -11.6977    4.3092  -28.9099 H   0  0  0  0  0  0  0  0  0  0  0  0
  -12.3023    2.8283  -29.2385 H   0  0  0  0  0  0  0  0  0  0  0  0
  -13.1382    4.1646  -29.6654 H   0  0  0  0  0  0  0  0  0  0  0  0
  1  2  2  0  0  0  0
  1  3  1  0  0  0  0
  1  4  1  0  0  0  0
  3  5  1  0  0  0  0
  3  6  1  0  0  0  0
  3  7  1  0  0  0  0
  4  8  1  0  0  0  0
  4  9  1  0  0  0  0
  4 10  1  0  0  0  0
M  END
$$$$
5N37_DMS_A_405
prProtoss 08172316053D 1   1.00000     0.00000     0
Protoss beta proteinsplus
 10  9  0  0  0  0            999 V2000
   16.1260   31.1870  -19.0580 S   0  0  0  0  0  0  0  0  0  0  0  0
   15.1400   30.2320  -18.4610 O   0  0  0  0  0  0  0  0  0  0  0  0
   15.4210   31.9250  -20.5590 C   0  0  0  0  0  0  0  0  0  0  0  0
   16.2560   32.6830  -18.0320 C   0  0  0  0  0  0  0  0  0  0  0  0
   16.0797   32.5630  -20.9578 H   0  0  0  0  0  0  0  0  0  0  0  0
   15.2139   31.2034  -21.2196 H   0  0  0  0  0  0  0  0  0  0  0  0
   14.5810   32.4152  -20.3265 H   0  0  0  0  0  0  0  0  0  0  0  0
   16.9171   33.3117  -18.4416 H   0  0  0  0  0  0  0  0  0  0  0  0
   15.3623   33.1283  -17.9771 H   0  0  0  0  0  0  0  0  0  0  0  0
   16.5601   32.4316  -17.1131 H   0  0  0  0  0  0  0  0  0  0  0  0
  1  2  2  0  0  0  0
  1  3  1  0  0  0  0
  1  4  1  0  0  0  0
  3  5  1  0  0  0  0
  3  6  1  0  0  0  0
  3  7  1  0  0  0  0
  4  8  1  0  0  0  0
  4  9  1  0  0  0  0
  4 10  1  0  0  0  0
M  END
$$$$
5N37_DMS_A_406
prProtoss 08172316053D 1   1.00000     0.00000     0
Protoss beta proteinsplus
 10  9  0  0  0  0            999 V2000
   -7.8020    0.5720  -34.1570 S   0  0  0  0  0  0  0  0  0  0  0  0
   -7.8760    1.9730  -34.6920 O   0  0  0  0  0  0  0  0  0  0  0  0
   -6.2120    0.3240  -33.3190 C   0  0  0  0  0  0  0  0  0  0  0  0
   -8.9210    0.4120  -32.7330 C   0  0  0  0  0  0  0  0  0  0  0  0
   -6.1646   -0.6095  -32.9634 H   0  0  0  0  0  0  0  0  0  0  0  0
   -5.4662    0.4715  -33.9687 H   0  0  0  0  0  0  0  0  0  0  0  0
   -6.1288    0.9733  -32.5630 H   0  0  0  0  0  0  0  0  0  0  0  0
   -8.8735   -0.5204  -32.3748 H   0  0  0  0  0  0  0  0  0  0  0  0
   -8.6473    1.0574  -32.0198 H   0  0  0  0  0  0  0  0  0  0  0  0
   -9.8577    0.6111  -33.0211 H   0  0  0  0  0  0  0  0  0  0  0  0
  1  2  2  0  0  0  0
  1  3  1  0  0  0  0
  1  4  1  0  0  0  0
  3  5  1  0  0  0  0
  3  6  1  0  0  0  0
  3  7  1  0  0  0  0
  4  8  1  0  0  0  0
  4  9  1  0  0  0  0
  4 10  1  0  0  0  0
M  END
$$$$
5M0L_7CT_A_401
prProtoss 08172316053D 1   1.00000     0.00000     0
Protoss beta proteinsplus
 25 26  0  0  0  0            999 V2000
   13.8380  -27.4860  -20.2040 S   0  0  0  0  0  0  0  0  0  0  0  0
   14.5660  -28.6690  -20.5160 O   0  0  0  0  0  0  0  0  0  0  0  0
   13.2750  -26.7030  -21.2570 O   0  0  0  0  0  0  0  0  0  0  0  0
   12.6340  -27.9480  -19.2390 N   0  0  0  0  0  0  0  0  0  0  0  0
   17.3730  -27.7000  -16.0790 N   0  0  0  0  0  0  0  0  0  0  0  0
   11.6230  -26.9700  -18.8560 C   0  0  0  0  0  0  0  0  0  0  0  0
   16.7190  -28.5920  -16.8450 C   0  0  0  0  0  0  0  0  0  0  0  0
   17.2000  -26.4110  -16.3560 C   0  0  0  0  0  0  0  0  0  0  0  0
   15.4000  -24.1310  -18.6950 C   0  0  0  0  0  0  0  0  0  0  0  0
   15.8990  -28.2560  -17.8800 C   0  0  0  0  0  0  0  0  0  0  0  0
   14.6910  -25.0500  -19.4540 C   0  0  0  0  0  0  0  0  0  0  0  0
   16.2140  -24.5430  -17.6810 C   0  0  0  0  0  0  0  0  0  0  0  0
   14.8280  -26.3930  -19.2200 C   0  0  0  0  0  0  0  0  0  0  0  0
   16.3770  -25.9240  -17.4000 C   0  0  0  0  0  0  0  0  0  0  0  0
   15.6900  -26.8850  -18.1910 C   0  0  0  0  0  0  0  0  0  0  0  0
   12.1582  -28.6963  -19.7012 H   0  0  0  0  0  0  0  0  0  0  0  0
   10.9478  -27.4045  -18.2599 H   0  0  0  0  0  0  0  0  0  0  0  0
   12.0590  -26.2129  -18.3694 H   0  0  0  0  0  0  0  0  0  0  0  0
   11.1687  -26.6217  -19.6759 H   0  0  0  0  0  0  0  0  0  0  0  0
   16.8426  -29.5633  -16.6418 H   0  0  0  0  0  0  0  0  0  0  0  0
   17.6825  -25.7423  -15.7903 H   0  0  0  0  0  0  0  0  0  0  0  0
   15.3134  -23.1547  -18.8935 H   0  0  0  0  0  0  0  0  0  0  0  0
   15.4476  -28.9688  -18.4168 H   0  0  0  0  0  0  0  0  0  0  0  0
   14.0767  -24.7309  -20.1757 H   0  0  0  0  0  0  0  0  0  0  0  0
   16.7007  -23.8649  -17.1302 H   0  0  0  0  0  0  0  0  0  0  0  0
  1  2  2  0  0  0  0
  1  3  2  0  0  0  0
  1  4  1  0  0  0  0
  1 13  1  0  0  0  0
  4  6  1  0  0  0  0
  5  7  2  0  0  0  0
  5  8  1  0  0  0  0
  7 10  1  0  0  0  0
  8 14  2  0  0  0  0
  9 11  1  0  0  0  0
  9 12  2  0  0  0  0
 10 15  2  0  0  0  0
 11 13  2  0  0  0  0
 12 14  1  0  0  0  0
 13 15  1  0  0  0  0
 14 15  1  0  0  0  0
  4 16  1  0  0  0  0
  6 17  1  0  0  0  0
  6 18  1  0  0  0  0
  6 19  1  0  0  0  0
  7 20  1  0  0  0  0
  8 21  1  0  0  0  0
  9 22  1  0  0  0  0
 10 23  1  0  0  0  0
 11 24  1  0  0  0  0
 12 25  1  0  0  0  0
M  END
$$$$
5M0L_7CT_A_402
prProtoss 08172316053D 1   1.00000     0.00000     0
Protoss beta proteinsplus
 25 26  0  0  0  0            999 V2000
   10.6610  -14.7630    4.8920 S   0  0  0  0  0  0  0  0  0  0  0  0
   10.3820  -16.0540    5.4520 O   0  0  0  0  0  0  0  0  0  0  0  0
   12.0160  -14.3830    4.6410 O   0  0  0  0  0  0  0  0  0  0  0  0
   10.0310  -13.6650    5.8940 N   0  0  0  0  0  0  0  0  0  0  0  0
    5.5860  -15.2920    3.0870 N   0  0  0  0  0  0  0  0  0  0  0  0
   10.0360  -12.2680    5.4810 C   0  0  0  0  0  0  0  0  0  0  0  0
    6.2490  -15.5730    4.2190 C   0  0  0  0  0  0  0  0  0  0  0  0
    6.2890  -14.8080    2.0680 C   0  0  0  0  0  0  0  0  0  0  0  0
    9.7610  -13.8330    1.1160 C   0  0  0  0  0  0  0  0  0  0  0  0
    7.5870  -15.3810    4.3910 C   0  0  0  0  0  0  0  0  0  0  0  0
   10.4300  -14.0980    2.2980 C   0  0  0  0  0  0  0  0  0  0  0  0
    8.4190  -14.0580    1.0120 C   0  0  0  0  0  0  0  0  0  0  0  0
    9.7540  -14.5950    3.3860 C   0  0  0  0  0  0  0  0  0  0  0  0
    7.6820  -14.5760    2.1060 C   0  0  0  0  0  0  0  0  0  0  0  0
    8.3560  -14.8660    3.3200 C   0  0  0  0  0  0  0  0  0  0  0  0
   10.5403  -13.7214    6.7527 H   0  0  0  0  0  0  0  0  0  0  0  0
    9.6173  -11.7076    6.1956 H   0  0  0  0  0  0  0  0  0  0  0  0
   10.9781  -11.9680    5.3313 H   0  0  0  0  0  0  0  0  0  0  0  0
    9.5160  -12.1694    4.6326 H   0  0  0  0  0  0  0  0  0  0  0  0
    5.7277  -15.9474    4.9858 H   0  0  0  0  0  0  0  0  0  0  0  0
    5.8013  -14.5947    1.2215 H   0  0  0  0  0  0  0  0  0  0  0  0
   10.2654  -13.4734    0.3310 H   0  0  0  0  0  0  0  0  0  0  0  0
    8.0210  -15.6016    5.2645 H   0  0  0  0  0  0  0  0  0  0  0  0
   11.4132  -13.9264    2.3608 H   0  0  0  0  0  0  0  0  0  0  0  0
    7.9496  -13.8547    0.1527 H   0  0  0  0  0  0  0  0  0  0  0  0
  1  2  2  0  0  0  0
  1  3  2  0  0  0  0
  1  4  1  0  0  0  0
  1 13  1  0  0  0  0
  4  6  1  0  0  0  0
  5  7  2  0  0  0  0
  5  8  1  0  0  0  0
  7 10  1  0  0  0  0
  8 14  2  0  0  0  0
  9 11  1  0  0  0  0
  9 12  2  0  0  0  0
 10 15  2  0  0  0  0
 11 13  2  0  0  0  0
 12 14  1  0  0  0  0
 13 15  1  0  0  0  0
 14 15  1  0  0  0  0
  4 16  1  0  0  0  0
  6 17  1  0  0  0  0
  6 18  1  0  0  0  0
  6 19  1  0  0  0  0
  7 20  1  0  0  0  0
  8 21  1  0  0  0  0
  9 22  1  0  0  0  0
 10 23  1  0  0  0  0
 11 24  1  0  0  0  0
 12 25  1  0  0  0  0
M  END
$$$$
5M0L_MPD_A_403
prProtoss 08172316053D 1   1.00000     0.00000     0
Protoss beta proteinsplus
 22 21  0  0  0  0            999 V2000
   11.4630  -39.0120  -18.7430 O   0  0  0  0  0  0  0  0  0  0  0  0
    9.4020  -41.2320  -15.8400 O   0  0  0  0  0  0  0  0  0  0  0  0
    9.2250  -39.5230  -18.1170 C   0  0  0  0  0  0  0  0  0  0  0  0
   11.0210  -40.6160  -14.1700 C   0  0  0  0  0  0  0  0  0  0  0  0
    9.2510  -39.0130  -14.8920 C   0  0  0  0  0  0  0  0  0  0  0  0
   11.1660  -39.6480  -16.4430 C   0  0  0  0  0  0  0  0  0  0  0  0
   10.5570  -38.9440  -17.6590 C   0  0  1  0  0  0  0  0  0  0  0  0
   10.1980  -40.1180  -15.3520 C   0  0  0  0  0  0  0  0  0  0  0  0
   12.3464  -38.6359  -18.4632 H   0  0  0  0  0  0  0  0  0  0  0  0
    9.1904  -41.8481  -15.0813 H   0  0  0  0  0  0  0  0  0  0  0  0
    8.5682  -39.4845  -17.3639 H   0  0  0  0  0  0  0  0  0  0  0  0
    8.8781  -38.9908  -18.8893 H   0  0  0  0  0  0  0  0  0  0  0  0
    9.3540  -40.4738  -18.3985 H   0  0  0  0  0  0  0  0  0  0  0  0
   11.5798  -39.8671  -13.8138 H   0  0  0  0  0  0  0  0  0  0  0  0
   10.4078  -40.9451  -13.4519 H   0  0  0  0  0  0  0  0  0  0  0  0
   11.6155  -41.3626  -14.4687 H   0  0  0  0  0  0  0  0  0  0  0  0
    9.7835  -38.2376  -14.5526 H   0  0  0  0  0  0  0  0  0  0  0  0
    8.6849  -38.7174  -15.6615 H   0  0  0  0  0  0  0  0  0  0  0  0
    8.6641  -39.3601  -14.1605 H   0  0  0  0  0  0  0  0  0  0  0  0
   11.8121  -39.0130  -16.0195 H   0  0  0  0  0  0  0  0  0  0  0  0
   11.6585  -40.4522  -16.7757 H   0  0  0  0  0  0  0  0  0  0  0  0
   10.4174  -37.9814  -17.4268 H   0  0  0  0  0  0  0  0  0  0  0  0
  1  7  1  0  0  0  0
  2  8  1  0  0  0  0
  3  7  1  0  0  0  0
  4  8  1  0  0  0  0
  5  8  1  0  0  0  0
  6  7  1  0  0  0  0
  6  8  1  0  0  0  0
  1  9  1  0  0  0  0
  2 10  1  0  0  0  0
  3 11  1  0  0  0  0
  3 12  1  0  0  0  0
  3 13  1  0  0  0  0
  4 14  1  0  0  0  0
  4 15  1  0  0  0  0
  4 16  1  0  0  0  0
  5 17  1  0  0  0  0
  5 18  1  0  0  0  0
  5 19  1  0  0  0  0
  6 20  1  0  0  0  0
  6 21  1  0  0  0  0
  7 22  1  0  0  0  0
M  END
$$$$
6YNC_7CT_A_401
prProtoss 08172315423D 1   1.00000     0.00000     0
Protoss beta proteinsplus
 25 26  0  0  0  0            999 V2000
  -12.8640  -26.4030   27.0530 S   0  0  0  0  0  0  0  0  0  0  0  0
  -13.5750  -27.5500   27.5260 O   0  0  0  0  0  0  0  0  0  0  0  0
  -12.2520  -25.5150   27.9950 O   0  0  0  0  0  0  0  0  0  0  0  0
  -11.7000  -26.9390   26.0710 N   0  0  0  0  0  0  0  0  0  0  0  0
  -16.6340  -27.0790   23.2050 N   0  0  0  0  0  0  0  0  0  0  0  0
  -10.6380  -26.0250   25.6500 C   0  0  0  0  0  0  0  0  0  0  0  0
  -15.9070  -27.8780   24.0060 C   0  0  0  0  0  0  0  0  0  0  0  0
  -16.5020  -25.7700   23.3650 C   0  0  0  0  0  0  0  0  0  0  0  0
  -14.6280  -23.2370   25.3650 C   0  0  0  0  0  0  0  0  0  0  0  0
  -15.0320  -27.4280   24.9460 C   0  0  0  0  0  0  0  0  0  0  0  0
  -13.8320  -24.0630   26.1410 C   0  0  0  0  0  0  0  0  0  0  0  0
  -15.5080  -23.7620   24.4620 C   0  0  0  0  0  0  0  0  0  0  0  0
  -13.9410  -25.4260   26.0390 C   0  0  0  0  0  0  0  0  0  0  0  0
  -15.6340  -25.1660   24.3050 C   0  0  0  0  0  0  0  0  0  0  0  0
  -14.8550  -26.0310   25.1190 C   0  0  0  0  0  0  0  0  0  0  0  0
  -11.2571  -27.7058   26.5356 H   0  0  0  0  0  0  0  0  0  0  0  0
  -10.0015  -26.5080   25.0487 H   0  0  0  0  0  0  0  0  0  0  0  0
  -11.0390  -25.2518   25.1588 H   0  0  0  0  0  0  0  0  0  0  0  0
  -10.1476  -25.6905   26.4548 H   0  0  0  0  0  0  0  0  0  0  0  0
  -16.0165  -28.8668   23.9043 H   0  0  0  0  0  0  0  0  0  0  0  0
  -17.0516  -25.1702   22.7835 H   0  0  0  0  0  0  0  0  0  0  0  0
  -14.5576  -22.2447   25.4670 H   0  0  0  0  0  0  0  0  0  0  0  0
  -14.5188  -28.0756   25.5093 H   0  0  0  0  0  0  0  0  0  0  0  0
  -13.1741  -23.6632   26.7792 H   0  0  0  0  0  0  0  0  0  0  0  0
  -16.0696  -23.1498   23.9054 H   0  0  0  0  0  0  0  0  0  0  0  0
  1  2  2  0  0  0  0
  1  3  2  0  0  0  0
  1  4  1  0  0  0  0
  1 13  1  0  0  0  0
  4  6  1  0  0  0  0
  5  7  2  0  0  0  0
  5  8  1  0  0  0  0
  7 10  1  0  0  0  0
  8 14  2  0  0  0  0
  9 11  1  0  0  0  0
  9 12  2  0  0  0  0
 10 15  2  0  0  0  0
 11 13  2  0  0  0  0
 12 14  1  0  0  0  0
 13 15  1  0  0  0  0
 14 15  1  0  0  0  0
  4 16  1  0  0  0  0
  6 17  1  0  0  0  0
  6 18  1  0  0  0  0
  6 19  1  0  0  0  0
  7 20  1  0  0  0  0
  8 21  1  0  0  0  0
  9 22  1  0  0  0  0
 10 23  1  0  0  0  0
 11 24  1  0  0  0  0
 12 25  1  0  0  0  0
M  END
$$$$
4YXS_EMU_A_401
prProtoss 05262315263D 1   1.00000     0.00000     0
Protoss beta proteinsplus
 28 30  0  0  0  0            999 V2000
   33.3760   -9.9070    4.4980 N   0  0  0  0  0  0  0  0  0  0  0  0
   31.2350   -9.9050    5.4050 N   0  0  0  0  0  0  0  0  0  0  0  0
   33.4700   -9.8620    1.9640 N   0  0  0  0  0  0  0  0  0  0  0  0
   31.3460   -9.8570    1.6240 N   0  0  0  0  0  0  0  0  0  0  0  0
   29.2450   -9.8260    3.9940 N   0  0  0  0  0  0  0  0  0  0  0  0
   32.5840   -9.9300    5.5600 C   0  0  0  0  0  0  0  0  0  0  0  0
   32.5180  -10.1330    1.0710 C   0  0  0  0  0  0  0  0  0  0  0  0
   24.7420   -8.6590    2.5800 C   0  0  0  0  0  0  0  0  0  0  0  0
   25.5270   -7.5390    3.0000 C   0  0  0  0  0  0  0  0  0  0  0  0
   25.0700  -10.0540    2.9830 C   0  0  0  0  0  0  0  0  0  0  0  0
   28.2680   -9.4760    5.1250 C   0  0  0  0  0  0  0  0  0  0  0  0
   26.6780   -7.8200    3.8570 C   0  0  0  0  0  0  0  0  0  0  0  0
   26.2070  -10.3390    3.8140 C   0  0  0  0  0  0  0  0  0  0  0  0
   32.8790   -9.8910    3.1990 C   0  0  0  0  0  0  0  0  0  0  0  0
   30.6130   -9.8680    4.1280 C   0  0  0  0  0  0  0  0  0  0  0  0
   27.0160   -9.1990    4.2700 C   0  0  0  0  0  0  0  0  0  0  0  0
   31.4900   -9.8850    2.9720 C   0  0  0  0  0  0  0  0  0  0  0  0
   28.8594  -10.0385    3.0961 H   0  0  0  0  0  0  0  0  0  0  0  0
   32.9803   -9.9658    6.4774 H   0  0  0  0  0  0  0  0  0  0  0  0
   32.6630  -10.4833    0.1457 H   0  0  0  0  0  0  0  0  0  0  0  0
   23.9461   -8.4993    1.9960 H   0  0  0  0  0  0  0  0  0  0  0  0
   25.2989   -6.6064    2.7202 H   0  0  0  0  0  0  0  0  0  0  0  0
   24.4892  -10.8055    2.6701 H   0  0  0  0  0  0  0  0  0  0  0  0
   28.5597   -8.6688    5.6382 H   0  0  0  0  0  0  0  0  0  0  0  0
   28.1320  -10.2405    5.7552 H   0  0  0  0  0  0  0  0  0  0  0  0
   27.2498   -7.0621    4.1710 H   0  0  0  0  0  0  0  0  0  0  0  0
   26.4392  -11.2767    4.0723 H   0  0  0  0  0  0  0  0  0  0  0  0
   34.4325   -9.6734    1.7691 H   0  0  0  0  0  0  0  0  0  0  0  0
  1  6  2  0  0  0  0
  1 14  1  0  0  0  0
  2  6  1  0  0  0  0
  2 15  2  0  0  0  0
  3  7  1  0  0  0  0
  3 14  1  0  0  0  0
  4  7  2  0  0  0  0
  4 17  1  0  0  0  0
  5 11  1  0  0  0  0
  5 15  1  0  0  0  0
  8  9  2  0  0  0  0
  8 10  1  0  0  0  0
  9 12  1  0  0  0  0
 10 13  2  0  0  0  0
 11 16  1  0  0  0  0
 12 16  2  0  0  0  0
 13 16  1  0  0  0  0
 14 17  2  0  0  0  0
 15 17  1  0  0  0  0
  3 28  1  0  0  0  0
  5 18  1  0  0  0  0
  6 19  1  0  0  0  0
  7 20  1  0  0  0  0
  8 21  1  0  0  0  0
  9 22  1  0  0  0  0
 10 23  1  0  0  0  0
 11 24  1  0  0  0  0
 11 25  1  0  0  0  0
 12 26  1  0  0  0  0
 13 27  1  0  0  0  0
M  END
$$$$
2UW8_GVQ_A_1351
prProtoss 05262315313D 1   1.00000     0.00000     0
Protoss beta proteinsplus
 31 32  0  0  0  0            999 V2000
   13.8270   13.2460    1.3960 Cl  0  0  0  0  0  0  0  0  0  0  0  0
   11.5040    7.2980    2.7980 N   0  3  0  0  0  0  0  0  0  0  0  0
   10.1490    7.8480    2.9600 C   0  0  0  0  0  0  0  0  0  0  0  0
    6.4160   10.9900    4.5290 C   0  0  0  0  0  0  0  0  0  0  0  0
    6.6960   10.4470    3.2780 C   0  0  0  0  0  0  0  0  0  0  0  0
    7.3680   10.9210    5.5320 C   0  0  0  0  0  0  0  0  0  0  0  0
    7.9240    9.8390    3.0370 C   0  0  0  0  0  0  0  0  0  0  0  0
    8.5970   10.3160    5.2930 C   0  0  0  0  0  0  0  0  0  0  0  0
   11.8140   11.4510    1.2840 C   0  0  0  0  0  0  0  0  0  0  0  0
   12.9300   11.7090    3.4050 C   0  0  0  0  0  0  0  0  0  0  0  0
   10.9790   10.4960    1.8390 C   0  0  0  0  0  0  0  0  0  0  0  0
   12.0960   10.7570    3.9550 C   0  0  0  0  0  0  0  0  0  0  0  0
   12.7810   12.0510    2.0750 C   0  0  0  0  0  0  0  0  0  0  0  0
    8.8780    9.7700    4.0470 C   0  0  0  0  0  0  0  0  0  0  0  0
   11.1270   10.1490    3.1740 C   0  0  0  0  0  0  0  0  0  0  0  0
   10.2300    9.1220    3.8160 C   0  0  2  0  0  0  0  0  0  0  0  0
   11.4625    6.4679    2.2419 H   0  0  0  0  0  0  0  0  0  0  0  0
   12.0861    7.9736    2.3455 H   0  0  0  0  0  0  0  0  0  0  0  0
    9.5652    7.1748    3.4138 H   0  0  0  0  0  0  0  0  0  0  0  0
    9.7669    8.0697    2.0629 H   0  0  0  0  0  0  0  0  0  0  0  0
    5.5333   11.4269    4.7020 H   0  0  0  0  0  0  0  0  0  0  0  0
    6.0120   10.4941    2.5500 H   0  0  0  0  0  0  0  0  0  0  0  0
    7.1708   11.3081    6.4327 H   0  0  0  0  0  0  0  0  0  0  0  0
    8.1210    9.4511    2.1366 H   0  0  0  0  0  0  0  0  0  0  0  0
    9.2813   10.2738    6.0210 H   0  0  0  0  0  0  0  0  0  0  0  0
   11.7202   11.7054    0.3215 H   0  0  0  0  0  0  0  0  0  0  0  0
   13.6348   12.1466    3.9634 H   0  0  0  0  0  0  0  0  0  0  0  0
   10.2736   10.0591    1.2809 H   0  0  0  0  0  0  0  0  0  0  0  0
   12.1913   10.5059    4.9182 H   0  0  0  0  0  0  0  0  0  0  0  0
   10.6175    8.8787    4.7052 H   0  0  0  0  0  0  0  0  0  0  0  0
   11.8843    7.0787    3.6965 H   0  0  0  0  0  0  0  0  0  0  0  0
  1 13  1  0  0  0  0
  2  3  1  0  0  0  0
  3 16  1  0  0  0  0
  4  5  2  0  0  0  0
  4  6  1  0  0  0  0
  5  7  1  0  0  0  0
  6  8  2  0  0  0  0
  7 14  2  0  0  0  0
  8 14  1  0  0  0  0
  9 11  2  0  0  0  0
  9 13  1  0  0  0  0
 10 12  1  0  0  0  0
 10 13  2  0  0  0  0
 11 15  1  0  0  0  0
 12 15  2  0  0  0  0
 14 16  1  0  0  0  0
 15 16  1  0  0  0  0
  2 17  1  0  0  0  0
  2 18  1  0  0  0  0
  3 19  1  0  0  0  0
  3 20  1  0  0  0  0
  4 21  1  0  0  0  0
  5 22  1  0  0  0  0
  6 23  1  0  0  0  0
  7 24  1  0  0  0  0
  8 25  1  0  0  0  0
  9 26  1  0  0  0  0
 10 27  1  0  0  0  0
 11 28  1  0  0  0  0
 12 29  1  0  0  0  0
 16 30  1  0  0  0  0
  2 31  1  0  0  0  0
M  CHG  1   2   1
M  END
$$$$
2VNW_M01_A_1351
prProtoss 05262315533D 1   1.00000     0.00000     0
Protoss beta proteinsplus
 34 36  0  0  0  0            999 V2000
   11.1660    6.9680    2.7950 N   0  3  0  0  0  0  0  0  0  0  0  0
    2.9400    9.6130    3.9550 N   0  0  0  0  0  0  0  0  0  0  0  0
    2.9550    9.5480    1.5210 N   0  0  0  0  0  0  0  0  0  0  0  0
    5.1520    9.8890    4.8650 N   0  0  0  0  0  0  0  0  0  0  0  0
    5.1330    9.7820    1.1450 N   0  0  0  0  0  0  0  0  0  0  0  0
    7.1050   10.0550    3.5650 N   0  0  0  0  0  0  0  0  0  0  0  0
    3.8220    9.7650    4.9450 C   0  0  0  0  0  0  0  0  0  0  0  0
    3.9340    9.6300    0.5960 C   0  0  0  0  0  0  0  0  0  0  0  0
   10.4050    7.4110    3.9950 C   0  0  0  0  0  0  0  0  0  0  0  0
    7.9000    9.8070    2.3550 C   0  0  0  0  0  0  0  0  0  0  0  0
    7.9770   10.3000    4.7150 C   0  0  0  0  0  0  0  0  0  0  0  0
    8.8070    8.6100    2.5290 C   0  0  0  0  0  0  0  0  0  0  0  0
    8.8500    9.0950    4.9900 C   0  0  0  0  0  0  0  0  0  0  0  0
    3.5260    9.6500    2.7530 C   0  0  0  0  0  0  0  0  0  0  0  0
    5.7050    9.9110    3.6390 C   0  0  0  0  0  0  0  0  0  0  0  0
    9.6980    8.7260    3.7700 C   0  0  0  0  0  0  0  0  0  0  0  0
    4.8780    9.7890    2.5250 C   0  0  0  0  0  0  0  0  0  0  0  0
   11.6163    6.0964    2.9889 H   0  0  0  0  0  0  0  0  0  0  0  0
   10.5380    6.8548    2.0251 H   0  0  0  0  0  0  0  0  0  0  0  0
    3.4385    9.7894    5.8682 H   0  0  0  0  0  0  0  0  0  0  0  0
    3.7746    9.5818   -0.3900 H   0  0  0  0  0  0  0  0  0  0  0  0
   11.0412    7.5143    4.7595 H   0  0  0  0  0  0  0  0  0  0  0  0
    9.7242    6.7139    4.2198 H   0  0  0  0  0  0  0  0  0  0  0  0
    8.4586   10.6135    2.1614 H   0  0  0  0  0  0  0  0  0  0  0  0
    7.2813    9.6380    1.5878 H   0  0  0  0  0  0  0  0  0  0  0  0
    7.4140   10.4881    5.5198 H   0  0  0  0  0  0  0  0  0  0  0  0
    8.5590   11.0902    4.5233 H   0  0  0  0  0  0  0  0  0  0  0  0
    9.3909    8.5297    1.7211 H   0  0  0  0  0  0  0  0  0  0  0  0
    8.2422    7.7893    2.6150 H   0  0  0  0  0  0  0  0  0  0  0  0
    8.2664    8.3183    5.2270 H   0  0  0  0  0  0  0  0  0  0  0  0
    9.4572    9.3020    5.7571 H   0  0  0  0  0  0  0  0  0  0  0  0
   10.3796    9.4416    3.6172 H   0  0  0  0  0  0  0  0  0  0  0  0
   11.8550    7.6552    2.5648 H   0  0  0  0  0  0  0  0  0  0  0  0
    1.9794    9.4324    1.3342 H   0  0  0  0  0  0  0  0  0  0  0  0
  1  9  1  0  0  0  0
  2  7  2  0  0  0  0
  2 14  1  0  0  0  0
  3  8  1  0  0  0  0
  3 14  1  0  0  0  0
  4  7  1  0  0  0  0
  4 15  2  0  0  0  0
  5  8  2  0  0  0  0
  5 17  1  0  0  0  0
  6 10  1  0  0  0  0
  6 11  1  0  0  0  0
  6 15  1  0  0  0  0
  9 16  1  0  0  0  0
 10 12  1  0  0  0  0
 11 13  1  0  0  0  0
 12 16  1  0  0  0  0
 13 16  1  0  0  0  0
 14 17  2  0  0  0  0
 15 17  1  0  0  0  0
  1 18  1  0  0  0  0
  1 19  1  0  0  0  0
  3 34  1  0  0  0  0
  7 20  1  0  0  0  0
  8 21  1  0  0  0  0
  9 22  1  0  0  0  0
  9 23  1  0  0  0  0
 10 24  1  0  0  0  0
 10 25  1  0  0  0  0
 11 26  1  0  0  0  0
 11 27  1  0  0  0  0
 12 28  1  0  0  0  0
 12 29  1  0  0  0  0
 13 30  1  0  0  0  0
 13 31  1  0  0  0  0
 16 32  1  0  0  0  0
  1 33  1  0  0  0  0
M  CHG  1   1   1
M  END
$$$$
6YOT_P4W_A_401
prProtoss 08172315423D 1   1.00000     0.00000     0
Protoss beta proteinsplus
 28 29  0  0  0  0            999 V2000
   13.8030  -25.8410  -27.4360 S   0  0  0  0  0  0  0  0  0  0  0  0
   14.6690  -26.8720  -27.9140 O   0  0  0  0  0  0  0  0  0  0  0  0
   13.2330  -24.9110  -28.3590 O   0  0  0  0  0  0  0  0  0  0  0  0
   17.1060  -26.5900  -23.1790 N   0  0  0  0  0  0  0  0  0  0  0  0
   12.5830  -26.5780  -26.6700 N   0  0  0  0  0  0  0  0  0  0  0  0
   11.5290  -25.7180  -26.1160 C   0  0  0  0  0  0  0  0  0  0  0  0
   12.1090  -27.8380  -27.2500 C   0  0  0  0  0  0  0  0  0  0  0  0
   16.4420  -27.3750  -24.0390 C   0  0  0  0  0  0  0  0  0  0  0  0
   16.9900  -25.2750  -23.3290 C   0  0  0  0  0  0  0  0  0  0  0  0
   15.1790  -22.7300  -25.3540 C   0  0  0  0  0  0  0  0  0  0  0  0
   15.6560  -26.9110  -25.0520 C   0  0  0  0  0  0  0  0  0  0  0  0
   14.4780  -23.5450  -26.2280 C   0  0  0  0  0  0  0  0  0  0  0  0
   16.0420  -23.2600  -24.4400 C   0  0  0  0  0  0  0  0  0  0  0  0
   14.6480  -24.9040  -26.1920 C   0  0  0  0  0  0  0  0  0  0  0  0
   16.2130  -24.6620  -24.3360 C   0  0  0  0  0  0  0  0  0  0  0  0
   15.5090  -25.5170  -25.2290 C   0  0  0  0  0  0  0  0  0  0  0  0
   10.8362  -26.2849  -25.6703 H   0  0  0  0  0  0  0  0  0  0  0  0
   11.9278  -25.0911  -25.4467 H   0  0  0  0  0  0  0  0  0  0  0  0
   11.1055  -25.1925  -26.8539 H   0  0  0  0  0  0  0  0  0  0  0  0
   11.3589  -28.1987  -26.6957 H   0  0  0  0  0  0  0  0  0  0  0  0
   11.7862  -27.6752  -28.1823 H   0  0  0  0  0  0  0  0  0  0  0  0
   12.8586  -28.4997  -27.2676 H   0  0  0  0  0  0  0  0  0  0  0  0
   16.5287  -28.3653  -23.9306 H   0  0  0  0  0  0  0  0  0  0  0  0
   17.4826  -24.6839  -22.6903 H   0  0  0  0  0  0  0  0  0  0  0  0
   15.0505  -21.7391  -25.3937 H   0  0  0  0  0  0  0  0  0  0  0  0
   15.1888  -27.5502  -25.6628 H   0  0  0  0  0  0  0  0  0  0  0  0
   13.8453  -23.1396  -26.8879 H   0  0  0  0  0  0  0  0  0  0  0  0
   16.5592  -22.6523  -23.8373 H   0  0  0  0  0  0  0  0  0  0  0  0
  1  2  2  0  0  0  0
  1  3  2  0  0  0  0
  1  5  1  0  0  0  0
  1 14  1  0  0  0  0
  4  8  2  0  0  0  0
  4  9  1  0  0  0  0
  5  6  1  0  0  0  0
  5  7  1  0  0  0  0
  8 11  1  0  0  0  0
  9 15  2  0  0  0  0
 10 12  1  0  0  0  0
 10 13  2  0  0  0  0
 11 16  2  0  0  0  0
 12 14  2  0  0  0  0
 13 15  1  0  0  0  0
 14 16  1  0  0  0  0
 15 16  1  0  0  0  0
  6 17  1  0  0  0  0
  6 18  1  0  0  0  0
  6 19  1  0  0  0  0
  7 20  1  0  0  0  0
  7 21  1  0  0  0  0
  7 22  1  0  0  0  0
  8 23  1  0  0  0  0
  9 24  1  0  0  0  0
 10 25  1  0  0  0  0
 11 26  1  0  0  0  0
 12 27  1  0  0  0  0
 13 28  1  0  0  0  0
M  END
$$$$
6YOT_P4W_A_402
prProtoss 08172315423D 1   1.00000     0.00000     0
Protoss beta proteinsplus
 28 29  0  0  0  0            999 V2000
   13.1880  -15.1530   -0.6860 S   0  0  0  0  0  0  0  0  0  0  0  0
   14.5460  -15.0360   -1.1180 O   0  0  0  0  0  0  0  0  0  0  0  0
   12.7490  -16.3440   -0.0320 O   0  0  0  0  0  0  0  0  0  0  0  0
    7.9500  -15.4890   -2.2130 N   0  0  0  0  0  0  0  0  0  0  0  0
   12.9240  -13.9200    0.3410 N   0  0  0  0  0  0  0  0  0  0  0  0
   11.7080  -13.9630    1.1630 C   0  0  0  0  0  0  0  0  0  0  0  0
   13.3240  -12.5780   -0.0970 C   0  0  0  0  0  0  0  0  0  0  0  0
    8.6730  -15.8710   -1.1500 C   0  0  0  0  0  0  0  0  0  0  0  0
    8.6030  -14.9210   -3.2230 C   0  0  0  0  0  0  0  0  0  0  0  0
   12.0500  -14.0620   -4.3490 C   0  0  0  0  0  0  0  0  0  0  0  0
   10.0230  -15.7000   -1.0330 C   0  0  0  0  0  0  0  0  0  0  0  0
   12.7840  -14.4030   -3.2250 C   0  0  0  0  0  0  0  0  0  0  0  0
   10.6940  -14.1870   -4.3630 C   0  0  0  0  0  0  0  0  0  0  0  0
   12.1580  -14.8870   -2.1110 C   0  0  0  0  0  0  0  0  0  0  0  0
   10.0040  -14.7060   -3.2420 C   0  0  0  0  0  0  0  0  0  0  0  0
   10.7390  -15.0930   -2.0900 C   0  0  0  0  0  0  0  0  0  0  0  0
   11.6699  -13.1504    1.7446 H   0  0  0  0  0  0  0  0  0  0  0  0
   10.9043  -13.9852    0.5684 H   0  0  0  0  0  0  0  0  0  0  0  0
   11.7217  -14.7826    1.7358 H   0  0  0  0  0  0  0  0  0  0  0  0
   13.1090  -11.9153    0.6204 H   0  0  0  0  0  0  0  0  0  0  0  0
   14.3074  -12.5658   -0.2782 H   0  0  0  0  0  0  0  0  0  0  0  0
   12.8282  -12.3382   -0.9317 H   0  0  0  0  0  0  0  0  0  0  0  0
    8.1912  -16.3107   -0.3920 H   0  0  0  0  0  0  0  0  0  0  0  0
    8.0727  -14.6274   -4.0183 H   0  0  0  0  0  0  0  0  0  0  0  0
   12.5222  -13.7194   -5.1612 H   0  0  0  0  0  0  0  0  0  0  0  0
   10.5003  -16.0013   -0.2076 H   0  0  0  0  0  0  0  0  0  0  0  0
   13.7781  -14.2943   -3.2288 H   0  0  0  0  0  0  0  0  0  0  0  0
   10.1802  -13.9089   -5.1746 H   0  0  0  0  0  0  0  0  0  0  0  0
  1  2  2  0  0  0  0
  1  3  2  0  0  0  0
  1  5  1  0  0  0  0
  1 14  1  0  0  0  0
  4  8  2  0  0  0  0
  4  9  1  0  0  0  0
  5  6  1  0  0  0  0
  5  7  1  0  0  0  0
  8 11  1  0  0  0  0
  9 15  2  0  0  0  0
 10 12  1  0  0  0  0
 10 13  2  0  0  0  0
 11 16  2  0  0  0  0
 12 14  2  0  0  0  0
 13 15  1  0  0  0  0
 14 16  1  0  0  0  0
 15 16  1  0  0  0  0
  6 17  1  0  0  0  0
  6 18  1  0  0  0  0
  6 19  1  0  0  0  0
  7 20  1  0  0  0  0
  7 21  1  0  0  0  0
  7 22  1  0  0  0  0
  8 23  1  0  0  0  0
  9 24  1  0  0  0  0
 10 25  1  0  0  0  0
 11 26  1  0  0  0  0
 12 27  1  0  0  0  0
 13 28  1  0  0  0  0
M  END
$$$$
4C38_VUP_A_1351
prProtoss 05262315133D 1   1.00000     0.00000     0
Protoss beta proteinsplus
 30 32  0  0  0  0            999 V2000
   31.6400  -10.3700    5.3290 O   0  0  0  0  0  0  0  0  0  0  0  0
   32.2430   -9.8250    1.9810 N   0  0  0  0  0  0  0  0  0  0  0  0
   32.5260  -10.2290    4.2660 N   0  0  0  0  0  0  0  0  0  0  0  0
   30.3190  -10.2440    4.9110 N   0  0  0  0  0  0  0  0  0  0  0  0
   26.2260  -10.1940   -0.6570 N   0  0  0  0  0  0  0  0  0  0  0  0
   29.4150  -10.0820    1.3810 N   0  0  0  0  0  0  0  0  0  0  0  0
   27.9490   -9.8450    3.0870 N   0  0  0  0  0  0  0  0  0  0  0  0
   27.0230  -10.8920    5.1240 C   0  0  0  0  0  0  0  0  0  0  0  0
   23.9130  -10.0780    0.0470 C   0  0  0  0  0  0  0  0  0  0  0  0
   27.3900   -9.6140    4.4350 C   0  0  0  0  0  0  0  0  0  0  0  0
   27.5380  -10.1960   -0.3900 C   0  0  0  0  0  0  0  0  0  0  0  0
   25.8080   -9.9270    1.6940 C   0  0  0  0  0  0  0  0  0  0  0  0
   31.7730  -10.0340    3.2140 C   0  0  0  0  0  0  0  0  0  0  0  0
   29.2620   -9.9450    2.6850 C   0  0  0  0  0  0  0  0  0  0  0  0
   25.3730  -10.0670    0.3840 C   0  0  0  0  0  0  0  0  0  0  0  0
   28.1150  -10.0860    0.8760 C   0  0  0  0  0  0  0  0  0  0  0  0
   30.3930  -10.0390    3.6180 C   0  0  0  0  0  0  0  0  0  0  0  0
   27.1880   -9.9400    1.9150 C   0  0  0  0  0  0  0  0  0  0  0  0
   31.6083   -9.6829    1.2214 H   0  0  0  0  0  0  0  0  0  0  0  0
   33.2295   -9.8107    1.8177 H   0  0  0  0  0  0  0  0  0  0  0  0
   26.6505  -10.6876    6.0292 H   0  0  0  0  0  0  0  0  0  0  0  0
   26.3363  -11.3772    4.5827 H   0  0  0  0  0  0  0  0  0  0  0  0
   27.8372  -11.4646    5.2201 H   0  0  0  0  0  0  0  0  0  0  0  0
   23.3767   -9.9784    0.8851 H   0  0  0  0  0  0  0  0  0  0  0  0
   23.7081   -9.3198   -0.5720 H   0  0  0  0  0  0  0  0  0  0  0  0
   23.6799  -10.9432   -0.3970 H   0  0  0  0  0  0  0  0  0  0  0  0
   26.5705   -9.0472    4.3506 H   0  0  0  0  0  0  0  0  0  0  0  0
   28.0714   -9.1346    4.9880 H   0  0  0  0  0  0  0  0  0  0  0  0
   28.1605  -10.2842   -1.1676 H   0  0  0  0  0  0  0  0  0  0  0  0
   25.1608   -9.8212    2.4490 H   0  0  0  0  0  0  0  0  0  0  0  0
  1  3  1  0  0  0  0
  1  4  1  0  0  0  0
  2 13  1  0  0  0  0
  3 13  2  0  0  0  0
  4 17  2  0  0  0  0
  5 11  1  0  0  0  0
  5 15  2  0  0  0  0
  6 14  2  0  0  0  0
  6 16  1  0  0  0  0
  7 10  1  0  0  0  0
  7 14  1  0  0  0  0
  7 18  1  0  0  0  0
  8 10  1  0  0  0  0
  9 15  1  0  0  0  0
 11 16  2  0  0  0  0
 12 15  1  0  0  0  0
 12 18  2  0  0  0  0
 13 17  1  0  0  0  0
 14 17  1  0  0  0  0
 16 18  1  0  0  0  0
  2 19  1  0  0  0  0
  2 20  1  0  0  0  0
  8 21  1  0  0  0  0
  8 22  1  0  0  0  0
  8 23  1  0  0  0  0
  9 24  1  0  0  0  0
  9 25  1  0  0  0  0
  9 26  1  0  0  0  0
 10 27  1  0  0  0  0
 10 28  1  0  0  0  0
 11 29  1  0  0  0  0
 12 30  1  0  0  0  0
M  END
$$$$
4C38_MOH_A_1352
prProtoss 05262315133D 1   1.00000     0.00000     0
Protoss beta proteinsplus
  6  5  0  0  0  0            999 V2000
   40.1140   -7.3720   -8.8800 O   0  0  0  0  0  0  0  0  0  0  0  0
   41.1380   -8.0860   -8.2260 C   0  0  0  0  0  0  0  0  0  0  0  0
   39.3326   -7.9765   -9.0347 H   0  0  0  0  0  0  0  0  0  0  0  0
   41.7391   -8.5051   -8.9065 H   0  0  0  0  0  0  0  0  0  0  0  0
   41.6678   -7.4600   -7.6537 H   0  0  0  0  0  0  0  0  0  0  0  0
   40.7338   -8.7995   -7.6537 H   0  0  0  0  0  0  0  0  0  0  0  0
  1  2  1  0  0  0  0
  1  3  1  0  0  0  0
  2  4  1  0  0  0  0
  2  5  1  0  0  0  0
  2  6  1  0  0  0  0
M  END
$$$$
4C38_MOH_A_1353
prProtoss 05262315133D 1   1.00000     0.00000     0
Protoss beta proteinsplus
  6  5  0  0  0  0            999 V2000
   22.9150  -19.3070   15.2310 O   0  0  0  0  0  0  0  0  0  0  0  0
   24.0960  -18.7700   15.7210 C   0  0  0  0  0  0  0  0  0  0  0  0
   22.1734  -19.1264   15.8771 H   0  0  0  0  0  0  0  0  0  0  0  0
   24.6831  -18.5030   14.9568 H   0  0  0  0  0  0  0  0  0  0  0  0
   23.8903  -17.9666   16.2798 H   0  0  0  0  0  0  0  0  0  0  0  0
   24.5662  -19.4531   16.2798 H   0  0  0  0  0  0  0  0  0  0  0  0
  1  2  1  0  0  0  0
  1  3  1  0  0  0  0
  2  4  1  0  0  0  0
  2  5  1  0  0  0  0
  2  6  1  0  0  0  0
M  END
$$$$
4C38_MOH_A_1354
prProtoss 05262315133D 1   1.00000     0.00000     0
Protoss beta proteinsplus
  6  5  0  0  0  0            999 V2000
    3.9530    6.8870   -4.4160 O   0  0  0  0  0  0  0  0  0  0  0  0
    3.0360    5.9950   -4.9870 C   0  0  0  0  0  0  0  0  0  0  0  0
    3.8957    6.8313   -3.4192 H   0  0  0  0  0  0  0  0  0  0  0  0
    3.0933    6.0507   -5.9838 H   0  0  0  0  0  0  0  0  0  0  0  0
    3.2494    5.0635   -4.6924 H   0  0  0  0  0  0  0  0  0  0  0  0
    2.1108    6.2341   -4.6924 H   0  0  0  0  0  0  0  0  0  0  0  0
  1  2  1  0  0  0  0
  1  3  1  0  0  0  0
  2  4  1  0  0  0  0
  2  5  1  0  0  0  0
  2  6  1  0  0  0  0
M  END
$$$$
2GNF_Y27_A_501
prProtoss 05262315163D 1   1.00000     0.00000     0
Protoss beta proteinsplus
 40 41  0  0  0  0            999 V2000
    7.5170   10.0600   41.9260 O   0  0  0  0  0  0  0  0  0  0  0  0
   13.7500    7.1170   40.9030 N   0  3  0  0  0  0  0  0  0  0  0  0
    3.0630   10.2640   44.5440 N   0  0  0  0  0  0  0  0  0  0  0  0
    7.2190    9.8130   44.2520 N   0  0  0  0  0  0  0  0  0  0  0  0
   13.9640    7.4060   43.3560 C   0  0  0  0  0  0  0  0  0  0  0  0
    3.8200   10.1310   45.6670 C   0  0  0  0  0  0  0  0  0  0  0  0
    3.5640   10.2620   43.2940 C   0  0  0  0  0  0  0  0  0  0  0  0
    5.1980    9.9890   45.5840 C   0  0  0  0  0  0  0  0  0  0  0  0
    4.9340   10.1350   43.1070 C   0  0  0  0  0  0  0  0  0  0  0  0
    9.6040    7.9990   42.5540 C   0  0  0  0  0  0  0  0  0  0  0  0
   10.4620   10.3700   42.9070 C   0  0  0  0  0  0  0  0  0  0  0  0
   11.0610    7.4850   42.6130 C   0  0  0  0  0  0  0  0  0  0  0  0
   11.9020    9.7720   43.0770 C   0  0  0  0  0  0  0  0  0  0  0  0
    7.9880    9.7810   43.0660 C   0  0  0  0  0  0  0  0  0  0  0  0
   13.5230    8.0650   42.0410 C   0  0  2  0  0  0  0  0  0  0  0  0
    5.7770    9.9740   44.2750 C   0  0  0  0  0  0  0  0  0  0  0  0
    9.4020    9.3230   43.3050 C   0  0  0  0  0  0  0  0  0  0  0  0
   12.0440    8.5720   42.1270 C   0  0  0  0  0  0  0  0  0  0  0  0
   13.4622    7.5479   40.0477 H   0  0  0  0  0  0  0  0  0  0  0  0
   14.7217    6.8867   40.8498 H   0  0  0  0  0  0  0  0  0  0  0  0
    7.6965    9.7193   45.1256 H   0  0  0  0  0  0  0  0  0  0  0  0
   13.8117    8.0401   44.1141 H   0  0  0  0  0  0  0  0  0  0  0  0
   13.4317    6.5729   43.5063 H   0  0  0  0  0  0  0  0  0  0  0  0
   14.9358    7.1758   43.3040 H   0  0  0  0  0  0  0  0  0  0  0  0
    3.3775   10.1356   46.5638 H   0  0  0  0  0  0  0  0  0  0  0  0
    2.9541   10.3513   42.5066 H   0  0  0  0  0  0  0  0  0  0  0  0
    5.7629    9.9008   46.4044 H   0  0  0  0  0  0  0  0  0  0  0  0
    5.3295   10.1542   42.1887 H   0  0  0  0  0  0  0  0  0  0  0  0
    9.0060    7.3081   42.9603 H   0  0  0  0  0  0  0  0  0  0  0  0
    9.3530    8.1351   41.5956 H   0  0  0  0  0  0  0  0  0  0  0  0
   10.3241   10.6336   41.9523 H   0  0  0  0  0  0  0  0  0  0  0  0
   10.3673   11.1753   43.4922 H   0  0  0  0  0  0  0  0  0  0  0  0
   11.1484    6.6785   42.0283 H   0  0  0  0  0  0  0  0  0  0  0  0
   11.2842    7.2387   43.5562 H   0  0  0  0  0  0  0  0  0  0  0  0
   12.0339    9.4722   44.0219 H   0  0  0  0  0  0  0  0  0  0  0  0
   12.5850   10.4659   42.8490 H   0  0  0  0  0  0  0  0  0  0  0  0
   14.1077    8.8623   41.8915 H   0  0  0  0  0  0  0  0  0  0  0  0
    9.5039    9.1397   44.2828 H   0  0  0  0  0  0  0  0  0  0  0  0
   11.7605    8.8626   41.2131 H   0  0  0  0  0  0  0  0  0  0  0  0
   13.2176    6.2837   41.0520 H   0  0  0  0  0  0  0  0  0  0  0  0
  1 14  2  0  0  0  0
  2 15  1  0  0  0  0
  3  6  2  0  0  0  0
  3  7  1  0  0  0  0
  4 14  1  0  0  0  0
  4 16  1  0  0  0  0
  5 15  1  0  0  0  0
  6  8  1  0  0  0  0
  7  9  2  0  0  0  0
  8 16  2  0  0  0  0
  9 16  1  0  0  0  0
 10 12  1  0  0  0  0
 10 17  1  0  0  0  0
 11 13  1  0  0  0  0
 11 17  1  0  0  0  0
 12 18  1  0  0  0  0
 13 18  1  0  0  0  0
 14 17  1  0  0  0  0
 15 18  1  0  0  0  0
  2 19  1  0  0  0  0
  2 20  1  0  0  0  0
  4 21  1  0  0  0  0
  5 22  1  0  0  0  0
  5 23  1  0  0  0  0
  5 24  1  0  0  0  0
  6 25  1  0  0  0  0
  7 26  1  0  0  0  0
  8 27  1  0  0  0  0
  9 28  1  0  0  0  0
 10 29  1  0  0  0  0
 10 30  1  0  0  0  0
 11 31  1  0  0  0  0
 11 32  1  0  0  0  0
 12 33  1  0  0  0  0
 12 34  1  0  0  0  0
 13 35  1  0  0  0  0
 13 36  1  0  0  0  0
 15 37  1  0  0  0  0
 17 38  1  0  0  0  0
 18 39  1  0  0  0  0
  2 40  1  0  0  0  0
M  CHG  1   2   1
M  END
$$$$
2GNJ_Y27_A_501
prProtoss 05262315203D 1   1.00000     0.00000     0
Protoss beta proteinsplus
 40 41  0  0  0  0            999 V2000
    7.3520    9.8870    1.4790 O   0  0  0  0  0  0  0  0  0  0  0  0
   13.5380    6.8380    0.6630 N   0  3  0  0  0  0  0  0  0  0  0  0
    2.7480   10.0070    4.1890 N   0  0  0  0  0  0  0  0  0  0  0  0
    6.9210    9.4600    3.7290 N   0  0  0  0  0  0  0  0  0  0  0  0
   13.6360    6.9610    3.1600 C   0  0  0  0  0  0  0  0  0  0  0  0
    3.5360    9.8280    5.2290 C   0  0  0  0  0  0  0  0  0  0  0  0
    3.2510   10.0480    2.9550 C   0  0  0  0  0  0  0  0  0  0  0  0
    4.9070    9.6460    5.0690 C   0  0  0  0  0  0  0  0  0  0  0  0
    4.6000    9.9220    2.7030 C   0  0  0  0  0  0  0  0  0  0  0  0
    9.3370    7.6300    1.9050 C   0  0  0  0  0  0  0  0  0  0  0  0
   10.1860    9.9780    2.4870 C   0  0  0  0  0  0  0  0  0  0  0  0
   10.7730    7.1060    2.0930 C   0  0  0  0  0  0  0  0  0  0  0  0
   11.5840    9.3980    2.8210 C   0  0  0  0  0  0  0  0  0  0  0  0
    7.7390    9.4660    2.5670 C   0  0  0  0  0  0  0  0  0  0  0  0
   13.2700    7.7040    1.8660 C   0  0  2  0  0  0  0  0  0  0  0  0
    5.4690    9.6840    3.7930 C   0  0  0  0  0  0  0  0  0  0  0  0
    9.1180    8.9010    2.7550 C   0  0  0  0  0  0  0  0  0  0  0  0
   11.8090    8.2240    1.8510 C   0  0  0  0  0  0  0  0  0  0  0  0
   13.2942    7.3375   -0.1683 H   0  0  0  0  0  0  0  0  0  0  0  0
   14.5082    6.5975    0.6349 H   0  0  0  0  0  0  0  0  0  0  0  0
    7.3833    9.2843    4.5982 H   0  0  0  0  0  0  0  0  0  0  0  0
   13.4517    7.5505    3.9464 H   0  0  0  0  0  0  0  0  0  0  0  0
   13.0879    6.1277    3.2323 H   0  0  0  0  0  0  0  0  0  0  0  0
   14.6067    6.7211    3.1435 H   0  0  0  0  0  0  0  0  0  0  0  0
    3.1432    9.8227    6.1486 H   0  0  0  0  0  0  0  0  0  0  0  0
    2.6267   10.1748    2.1842 H   0  0  0  0  0  0  0  0  0  0  0  0
    5.4879    9.4883    5.8676 H   0  0  0  0  0  0  0  0  0  0  0  0
    4.9559    9.9971    1.7715 H   0  0  0  0  0  0  0  0  0  0  0  0
    8.6880    6.9252    2.1913 H   0  0  0  0  0  0  0  0  0  0  0  0
    9.1884    7.8479    0.9404 H   0  0  0  0  0  0  0  0  0  0  0  0
   10.1562   10.2473    1.5244 H   0  0  0  0  0  0  0  0  0  0  0  0
   10.0084   10.7765    3.0622 H   0  0  0  0  0  0  0  0  0  0  0  0
   10.9370    6.3629    1.4442 H   0  0  0  0  0  0  0  0  0  0  0  0
   10.8756    6.7623    3.0264 H   0  0  0  0  0  0  0  0  0  0  0  0
   11.6075    9.0747    3.7670 H   0  0  0  0  0  0  0  0  0  0  0  0
   12.2885   10.0955    2.6895 H   0  0  0  0  0  0  0  0  0  0  0  0
   13.8707    8.5007    1.7996 H   0  0  0  0  0  0  0  0  0  0  0  0
    9.2007    8.6337    3.7151 H   0  0  0  0  0  0  0  0  0  0  0  0
   11.6400    8.5766    0.9306 H   0  0  0  0  0  0  0  0  0  0  0  0
   12.9895    6.0041    0.7237 H   0  0  0  0  0  0  0  0  0  0  0  0
  1 14  2  0  0  0  0
  2 15  1  0  0  0  0
  3  6  2  0  0  0  0
  3  7  1  0  0  0  0
  4 14  1  0  0  0  0
  4 16  1  0  0  0  0
  5 15  1  0  0  0  0
  6  8  1  0  0  0  0
  7  9  2  0  0  0  0
  8 16  2  0  0  0  0
  9 16  1  0  0  0  0
 10 12  1  0  0  0  0
 10 17  1  0  0  0  0
 11 13  1  0  0  0  0
 11 17  1  0  0  0  0
 12 18  1  0  0  0  0
 13 18  1  0  0  0  0
 14 17  1  0  0  0  0
 15 18  1  0  0  0  0
  2 19  1  0  0  0  0
  2 20  1  0  0  0  0
  4 21  1  0  0  0  0
  5 22  1  0  0  0  0
  5 23  1  0  0  0  0
  5 24  1  0  0  0  0
  6 25  1  0  0  0  0
  7 26  1  0  0  0  0
  8 27  1  0  0  0  0
  9 28  1  0  0  0  0
 10 29  1  0  0  0  0
 10 30  1  0  0  0  0
 11 31  1  0  0  0  0
 11 32  1  0  0  0  0
 12 33  1  0  0  0  0
 12 34  1  0  0  0  0
 13 35  1  0  0  0  0
 13 36  1  0  0  0  0
 15 37  1  0  0  0  0
 17 38  1  0  0  0  0
 18 39  1  0  0  0  0
  2 40  1  0  0  0  0
M  CHG  1   2   1
M  END
$$$$
7PIG_7QR_A_401
prProtoss 08172315453D 1   1.00000     0.00000     0
Protoss beta proteinsplus
 32 33  0  0  0  0            999 V2000
   14.8480  -24.4710  -26.9910 Cl  0  0  0  0  0  0  0  0  0  0  0  0
   17.2020  -24.6870  -24.3460 N   0  0  0  0  0  0  0  0  0  0  0  0
   17.3770  -21.1810  -24.0730 N   0  0  0  0  0  0  0  0  0  0  0  0
   10.5890  -20.2420  -27.5910 N   0  3  0  0  0  0  0  0  0  0  0  0
   16.7110  -23.7870  -24.8470 C   0  0  0  0  0  0  0  0  0  0  0  0
    9.8640  -20.2910  -28.8640 C   0  0  0  0  0  0  0  0  0  0  0  0
   10.2870  -21.5670  -29.6570 C   0  0  0  0  0  0  0  0  0  0  0  0
   12.0440  -20.1450  -27.8260 C   0  0  0  0  0  0  0  0  0  0  0  0
   11.8040  -21.5580  -29.8990 C   0  0  0  0  0  0  0  0  0  0  0  0
   15.8150  -20.3020  -25.7430 C   0  0  0  0  0  0  0  0  0  0  0  0
   14.9020  -20.5190  -26.7600 C   0  0  0  0  0  0  0  0  0  0  0  0
   13.6250  -22.0560  -28.2940 C   0  0  0  0  0  0  0  0  0  0  0  0
   16.4460  -21.3730  -25.0870 C   0  0  0  0  0  0  0  0  0  0  0  0
   15.1970  -22.8660  -26.5240 C   0  0  0  0  0  0  0  0  0  0  0  0
   12.5480  -21.3380  -28.6120 C   0  0  0  0  0  0  0  0  0  0  0  0
   14.5750  -21.8070  -27.1850 C   0  0  0  0  0  0  0  0  0  0  0  0
   16.1160  -22.6710  -25.5060 C   0  0  0  0  0  0  0  0  0  0  0  0
   17.8042  -21.9695  -23.6306 H   0  0  0  0  0  0  0  0  0  0  0  0
   17.6197  -20.2543  -23.7859 H   0  0  0  0  0  0  0  0  0  0  0  0
   10.3948  -21.0730  -27.0698 H   0  0  0  0  0  0  0  0  0  0  0  0
   10.0813  -19.4769  -29.4026 H   0  0  0  0  0  0  0  0  0  0  0  0
    8.8804  -20.3203  -28.6861 H   0  0  0  0  0  0  0  0  0  0  0  0
    9.8116  -21.5827  -30.5367 H   0  0  0  0  0  0  0  0  0  0  0  0
   10.0407  -22.3807  -29.1304 H   0  0  0  0  0  0  0  0  0  0  0  0
   12.5159  -20.1108  -26.9450 H   0  0  0  0  0  0  0  0  0  0  0  0
   12.2372  -19.3094  -28.3402 H   0  0  0  0  0  0  0  0  0  0  0  0
   12.0298  -20.8227  -30.5381 H   0  0  0  0  0  0  0  0  0  0  0  0
   12.0788  -22.4361  -30.2906 H   0  0  0  0  0  0  0  0  0  0  0  0
   16.0301  -19.3645  -25.4694 H   0  0  0  0  0  0  0  0  0  0  0  0
   14.4663  -19.7341  -27.2007 H   0  0  0  0  0  0  0  0  0  0  0  0
   13.8129  -22.8524  -28.8688 H   0  0  0  0  0  0  0  0  0  0  0  0
   10.2860  -19.4437  -27.0706 H   0  0  0  0  0  0  0  0  0  0  0  0
  1 14  1  0  0  0  0
  2  5  3  0  0  0  0
  3 13  1  0  0  0  0
  4  6  1  0  0  0  0
  4  8  1  0  0  0  0
  5 17  1  0  0  0  0
  6  7  1  0  0  0  0
  7  9  1  0  0  0  0
  8 15  1  0  0  0  0
  9 15  1  0  0  0  0
 10 11  2  0  0  0  0
 10 13  1  0  0  0  0
 11 16  1  0  0  0  0
 12 15  2  0  0  0  0
 12 16  1  0  0  0  0
 13 17  2  0  0  0  0
 14 16  2  0  0  0  0
 14 17  1  0  0  0  0
  3 18  1  0  0  0  0
  3 19  1  0  0  0  0
  4 20  1  0  0  0  0
  6 21  1  0  0  0  0
  6 22  1  0  0  0  0
  7 23  1  0  0  0  0
  7 24  1  0  0  0  0
  8 25  1  0  0  0  0
  8 26  1  0  0  0  0
  9 27  1  0  0  0  0
  9 28  1  0  0  0  0
 10 29  1  0  0  0  0
 11 30  1  0  0  0  0
 12 31  1  0  0  0  0
  4 32  1  0  0  0  0
M  CHG  1   4   1
M  END
$$$$
7PIG_MPD_A_402
prProtoss 08172315453D 1   1.00000     0.00000     0
Protoss beta proteinsplus
 22 21  0  0  0  0            999 V2000
    8.6790  -12.9510   -4.1930 O   0  0  0  0  0  0  0  0  0  0  0  0
   10.0330  -13.8390   -2.1420 O   0  0  0  0  0  0  0  0  0  0  0  0
    9.6280  -12.4870   -6.3340 C   0  0  0  0  0  0  0  0  0  0  0  0
   10.4750  -15.8050   -3.3540 C   0  0  0  0  0  0  0  0  0  0  0  0
   12.3660  -14.4030   -2.4280 C   0  0  0  0  0  0  0  0  0  0  0  0
   11.0400  -13.4580   -4.3260 C   0  0  0  0  0  0  0  0  0  0  0  0
    9.7160  -13.3510   -5.0740 C   0  0  1  0  0  0  0  0  0  0  0  0
   10.9780  -14.3900   -3.0820 C   0  0  0  0  0  0  0  0  0  0  0  0
    8.9685  -13.1008   -3.2476 H   0  0  0  0  0  0  0  0  0  0  0  0
   10.5092  -13.5870   -1.2995 H   0  0  0  0  0  0  0  0  0  0  0  0
   10.3516  -12.7522   -6.9712 H   0  0  0  0  0  0  0  0  0  0  0  0
    8.7368  -12.6198   -6.7677 H   0  0  0  0  0  0  0  0  0  0  0  0
    9.7381  -11.5244   -6.0865 H   0  0  0  0  0  0  0  0  0  0  0  0
   11.0856  -16.2565   -4.0046 H   0  0  0  0  0  0  0  0  0  0  0  0
   10.4576  -16.3227   -2.4986 H   0  0  0  0  0  0  0  0  0  0  0  0
    9.5522  -15.7629   -3.7370 H   0  0  0  0  0  0  0  0  0  0  0  0
   13.0329  -14.7831   -3.0689 H   0  0  0  0  0  0  0  0  0  0  0  0
   12.6298  -13.4689   -2.1873 H   0  0  0  0  0  0  0  0  0  0  0  0
   12.3398  -14.9655   -1.6016 H   0  0  0  0  0  0  0  0  0  0  0  0
   11.3068  -12.5432   -4.0228 H   0  0  0  0  0  0  0  0  0  0  0  0
   11.7305  -13.8154   -4.9548 H   0  0  0  0  0  0  0  0  0  0  0  0
    9.4877  -14.2809   -5.3624 H   0  0  0  0  0  0  0  0  0  0  0  0
  1  7  1  0  0  0  0
  2  8  1  0  0  0  0
  3  7  1  0  0  0  0
  4  8  1  0  0  0  0
  5  8  1  0  0  0  0
  6  7  1  0  0  0  0
  6  8  1  0  0  0  0
  1  9  1  0  0  0  0
  2 10  1  0  0  0  0
  3 11  1  0  0  0  0
  3 12  1  0  0  0  0
  3 13  1  0  0  0  0
  4 14  1  0  0  0  0
  4 15  1  0  0  0  0
  4 16  1  0  0  0  0
  5 17  1  0  0  0  0
  5 18  1  0  0  0  0
  5 19  1  0  0  0  0
  6 20  1  0  0  0  0
  6 21  1  0  0  0  0
  7 22  1  0  0  0  0
M  END
$$$$
5N1F_MPD_A_401
prProtoss 08172316053D 1   1.00000     0.00000     0
Protoss beta proteinsplus
 22 21  0  0  0  0            999 V2000
   -8.5270   19.3290   -9.9760 O   0  0  0  0  0  0  0  0  0  0  0  0
   -6.7640   18.2560   -8.3350 O   0  0  0  0  0  0  0  0  0  0  0  0
   -9.2330   18.0660  -11.9300 C   0  0  0  0  0  0  0  0  0  0  0  0
   -6.6230   15.9590   -8.9000 C   0  0  0  0  0  0  0  0  0  0  0  0
   -4.8340   17.5800   -9.6150 C   0  0  0  0  0  0  0  0  0  0  0  0
   -7.0640   17.6240  -10.7280 C   0  0  0  0  0  0  0  0  0  0  0  0
   -8.5110   18.0540  -10.5770 C   0  0  1  0  0  0  0  0  0  0  0  0
   -6.3350   17.3680   -9.4010 C   0  0  0  0  0  0  0  0  0  0  0  0
   -9.4735   19.6162   -9.8287 H   0  0  0  0  0  0  0  0  0  0  0  0
   -7.4773   18.8676   -8.6774 H   0  0  0  0  0  0  0  0  0  0  0  0
   -9.2051   17.1503  -12.3308 H   0  0  0  0  0  0  0  0  0  0  0  0
  -10.1847   18.3431  -11.7975 H   0  0  0  0  0  0  0  0  0  0  0  0
   -8.7800   18.7125  -12.5439 H   0  0  0  0  0  0  0  0  0  0  0  0
   -6.3472   15.2952   -9.5952 H   0  0  0  0  0  0  0  0  0  0  0  0
   -6.1093   15.7930   -8.0582 H   0  0  0  0  0  0  0  0  0  0  0  0
   -7.6016   15.8636   -8.7176 H   0  0  0  0  0  0  0  0  0  0  0  0
   -4.5133   16.9781  -10.3463 H   0  0  0  0  0  0  0  0  0  0  0  0
   -4.6647   18.5323   -9.8688 H   0  0  0  0  0  0  0  0  0  0  0  0
   -4.3436   17.3681   -8.7697 H   0  0  0  0  0  0  0  0  0  0  0  0
   -6.5739   18.3435  -11.2200 H   0  0  0  0  0  0  0  0  0  0  0  0
   -7.0431   16.7800  -11.2639 H   0  0  0  0  0  0  0  0  0  0  0  0
   -8.9758   17.4082   -9.9713 H   0  0  0  0  0  0  0  0  0  0  0  0
  1  7  1  0  0  0  0
  2  8  1  0  0  0  0
  3  7  1  0  0  0  0
  4  8  1  0  0  0  0
  5  8  1  0  0  0  0
  6  7  1  0  0  0  0
  6  8  1  0  0  0  0
  1  9  1  0  0  0  0
  2 10  1  0  0  0  0
  3 11  1  0  0  0  0
  3 12  1  0  0  0  0
  3 13  1  0  0  0  0
  4 14  1  0  0  0  0
  4 15  1  0  0  0  0
  4 16  1  0  0  0  0
  5 17  1  0  0  0  0
  5 18  1  0  0  0  0
  5 19  1  0  0  0  0
  6 20  1  0  0  0  0
  6 21  1  0  0  0  0
  7 22  1  0  0  0  0
M  END
$$$$
5N1F_MPD_A_402
prProtoss 08172316053D 1   1.00000     0.00000     0
Protoss beta proteinsplus
 22 21  0  0  0  0            999 V2000
  -16.9170   26.6540  -36.1580 O   0  0  0  0  0  0  0  0  0  0  0  0
  -15.2630   25.5720  -34.1840 O   0  0  0  0  0  0  0  0  0  0  0  0
  -19.0500   25.5650  -36.4800 C   0  0  0  0  0  0  0  0  0  0  0  0
  -17.0160   25.8340  -32.4820 C   0  0  0  0  0  0  0  0  0  0  0  0
  -16.0170   23.6130  -33.1310 C   0  0  0  0  0  0  0  0  0  0  0  0
  -17.4630   24.7280  -34.7550 C   0  0  0  0  0  0  0  0  0  0  0  0
  -17.9680   25.9790  -35.4790 C   0  0  1  0  0  0  0  0  0  0  0  0
  -16.4580   24.9750  -33.6210 C   0  0  0  0  0  0  0  0  0  0  0  0
  -16.2302   25.9898  -36.4531 H   0  0  0  0  0  0  0  0  0  0  0  0
  -14.9185   24.9941  -34.9238 H   0  0  0  0  0  0  0  0  0  0  0  0
  -19.7865   25.0909  -35.9976 H   0  0  0  0  0  0  0  0  0  0  0  0
  -19.4165   26.3791  -36.9304 H   0  0  0  0  0  0  0  0  0  0  0  0
  -18.6537   24.9546  -37.1658 H   0  0  0  0  0  0  0  0  0  0  0  0
  -17.8381   25.4023  -32.1109 H   0  0  0  0  0  0  0  0  0  0  0  0
  -16.3288   25.9179  -31.7604 H   0  0  0  0  0  0  0  0  0  0  0  0
  -17.2453   26.7425  -32.8312 H   0  0  0  0  0  0  0  0  0  0  0  0
  -16.7967   23.1362  -32.7252 H   0  0  0  0  0  0  0  0  0  0  0  0
  -15.6641   23.0802  -33.9002 H   0  0  0  0  0  0  0  0  0  0  0  0
  -15.2988   23.7224  -32.4438 H   0  0  0  0  0  0  0  0  0  0  0  0
  -17.0234   24.1377  -35.4320 H   0  0  0  0  0  0  0  0  0  0  0  0
  -18.2550   24.2572  -34.3664 H   0  0  0  0  0  0  0  0  0  0  0  0
  -18.3703   26.6008  -34.8071 H   0  0  0  0  0  0  0  0  0  0  0  0
  1  7  1  0  0  0  0
  2  8  1  0  0  0  0
  3  7  1  0  0  0  0
  4  8  1  0  0  0  0
  5  8  1  0  0  0  0
  6  7  1  0  0  0  0
  6  8  1  0  0  0  0
  1  9  1  0  0  0  0
  2 10  1  0  0  0  0
  3 11  1  0  0  0  0
  3 12  1  0  0  0  0
  3 13  1  0  0  0  0
  4 14  1  0  0  0  0
  4 15  1  0  0  0  0
  4 16  1  0  0  0  0
  5 17  1  0  0  0  0
  5 18  1  0  0  0  0
  5 19  1  0  0  0  0
  6 20  1  0  0  0  0
  6 21  1  0  0  0  0
  7 22  1  0  0  0  0
M  END
$$$$
5N1F_8ET_A_403
prProtoss 08172316053D 1   1.00000     0.00000     0
Protoss beta proteinsplus
 30 32  0  0  0  0            999 V2000
  -12.8770    7.0930  -30.7240 O   0  0  0  0  0  0  0  0  0  0  0  0
  -16.9690    7.3670  -31.2760 N   0  0  0  0  0  0  0  0  0  0  0  0
   -9.6970    1.7140  -28.5180 N   0  0  0  0  0  0  0  0  0  0  0  0
  -13.0620    5.0510  -29.6850 N   0  0  0  0  0  0  0  0  0  0  0  0
  -17.7010    6.2600  -31.1010 C   0  0  0  0  0  0  0  0  0  0  0  0
  -10.5540    0.7630  -28.8500 C   0  0  0  0  0  0  0  0  0  0  0  0
  -15.6710    7.3010  -30.9680 C   0  0  0  0  0  0  0  0  0  0  0  0
  -17.1790    5.0730  -30.6320 C   0  0  0  0  0  0  0  0  0  0  0  0
  -11.8190    0.9910  -29.3770 C   0  0  0  0  0  0  0  0  0  0  0  0
   -9.5500    5.3220  -28.5600 C   0  0  0  0  0  0  0  0  0  0  0  0
   -9.1990    4.0240  -28.3740 C   0  0  0  0  0  0  0  0  0  0  0  0
  -10.8010    5.6750  -29.0340 C   0  0  0  0  0  0  0  0  0  0  0  0
  -15.8330    5.0240  -30.3350 C   0  0  0  0  0  0  0  0  0  0  0  0
  -12.2330    2.2710  -29.5550 C   0  0  0  0  0  0  0  0  0  0  0  0
  -13.5630    6.1490  -30.3160 C   0  0  0  0  0  0  0  0  0  0  0  0
  -10.0930    3.0000  -28.7130 C   0  0  0  0  0  0  0  0  0  0  0  0
  -11.7220    4.7150  -29.3360 C   0  0  0  0  0  0  0  0  0  0  0  0
  -15.0450    6.1520  -30.5080 C   0  0  0  0  0  0  0  0  0  0  0  0
  -11.3750    3.3340  -29.2210 C   0  0  0  0  0  0  0  0  0  0  0  0
  -13.7459    4.3697  -29.4241 H   0  0  0  0  0  0  0  0  0  0  0  0
  -18.6757    6.2957  -31.3216 H   0  0  0  0  0  0  0  0  0  0  0  0
  -10.2717   -0.1864  -28.7121 H   0  0  0  0  0  0  0  0  0  0  0  0
  -15.1187    8.1277  -31.0753 H   0  0  0  0  0  0  0  0  0  0  0  0
  -17.7610    4.2689  -30.5104 H   0  0  0  0  0  0  0  0  0  0  0  0
  -12.4141    0.2253  -29.6209 H   0  0  0  0  0  0  0  0  0  0  0  0
   -8.8878    6.0411  -28.3492 H   0  0  0  0  0  0  0  0  0  0  0  0
   -8.3016    3.7985  -27.9947 H   0  0  0  0  0  0  0  0  0  0  0  0
  -11.0316    6.6404  -29.1560 H   0  0  0  0  0  0  0  0  0  0  0  0
  -15.4258    4.1762  -29.9953 H   0  0  0  0  0  0  0  0  0  0  0  0
  -13.1443    2.4576  -29.9221 H   0  0  0  0  0  0  0  0  0  0  0  0
  1 15  2  0  0  0  0
  2  5  2  0  0  0  0
  2  7  1  0  0  0  0
  3  6  1  0  0  0  0
  3 16  2  0  0  0  0
  4 15  1  0  0  0  0
  4 17  1  0  0  0  0
  5  8  1  0  0  0  0
  6  9  2  0  0  0  0
  7 18  2  0  0  0  0
  8 13  2  0  0  0  0
  9 14  1  0  0  0  0
 10 11  2  0  0  0  0
 10 12  1  0  0  0  0
 11 16  1  0  0  0  0
 12 17  2  0  0  0  0
 13 18  1  0  0  0  0
 14 19  2  0  0  0  0
 15 18  1  0  0  0  0
 16 19  1  0  0  0  0
 17 19  1  0  0  0  0
  4 20  1  0  0  0  0
  5 21  1  0  0  0  0
  6 22  1  0  0  0  0
  7 23  1  0  0  0  0
  8 24  1  0  0  0  0
  9 25  1  0  0  0  0
 10 26  1  0  0  0  0
 11 27  1  0  0  0  0
 12 28  1  0  0  0  0
 13 29  1  0  0  0  0
 14 30  1  0  0  0  0
M  END
$$$$
5M0B_IQU_A_401
prProtoss 08192305083D 1   1.00000     0.00000     0
Protoss beta proteinsplus
 31 32  0  0  0  0            999 V2000
   13.0170  -23.8970  -27.9530 S   0  0  0  0  0  0  0  0  0  0  0  0
   13.7680  -24.0730  -29.1540 O   0  0  0  0  0  0  0  0  0  0  0  0
   12.5400  -25.0490  -27.2450 O   0  0  0  0  0  0  0  0  0  0  0  0
    8.7730  -23.1010  -28.9670 N   0  3  0  0  0  0  0  0  0  0  0  0
   11.7070  -23.0320  -28.3530 N   0  0  0  0  0  0  0  0  0  0  0  0
   16.7450  -24.6530  -24.0890 N   0  0  0  0  0  0  0  0  0  0  0  0
    9.4340  -22.1440  -28.0340 C   0  0  0  0  0  0  0  0  0  0  0  0
   10.6480  -22.7660  -27.3720 C   0  0  0  0  0  0  0  0  0  0  0  0
   16.0200  -25.4290  -24.9120 C   0  0  0  0  0  0  0  0  0  0  0  0
   16.5920  -23.3400  -24.1930 C   0  0  0  0  0  0  0  0  0  0  0  0
   14.6810  -20.7570  -26.1050 C   0  0  0  0  0  0  0  0  0  0  0  0
   15.1300  -24.9490  -25.8270 C   0  0  0  0  0  0  0  0  0  0  0  0
   13.9010  -21.5720  -26.9170 C   0  0  0  0  0  0  0  0  0  0  0  0
   15.5620  -21.3020  -25.2110 C   0  0  0  0  0  0  0  0  0  0  0  0
   14.0160  -22.9320  -26.8510 C   0  0  0  0  0  0  0  0  0  0  0  0
   15.7070  -22.7110  -25.1010 C   0  0  0  0  0  0  0  0  0  0  0  0
   14.9330  -23.5560  -25.9450 C   0  0  0  0  0  0  0  0  0  0  0  0
    7.9782  -22.6624  -29.3865 H   0  0  0  0  0  0  0  0  0  0  0  0
    9.4196  -23.3716  -29.6802 H   0  0  0  0  0  0  0  0  0  0  0  0
   12.0385  -22.1406  -28.6622 H   0  0  0  0  0  0  0  0  0  0  0  0
    8.7801  -21.8747  -27.3270 H   0  0  0  0  0  0  0  0  0  0  0  0
    9.7218  -21.3355  -28.5473 H   0  0  0  0  0  0  0  0  0  0  0  0
   10.9976  -22.1388  -26.6760 H   0  0  0  0  0  0  0  0  0  0  0  0
   10.3792  -23.6269  -26.9401 H   0  0  0  0  0  0  0  0  0  0  0  0
   16.1405  -26.4198  -24.8497 H   0  0  0  0  0  0  0  0  0  0  0  0
   17.1371  -22.7565  -23.5910 H   0  0  0  0  0  0  0  0  0  0  0  0
   14.5975  -19.7629  -26.1748 H   0  0  0  0  0  0  0  0  0  0  0  0
   14.6197  -25.5802  -26.4111 H   0  0  0  0  0  0  0  0  0  0  0  0
   13.2504  -21.1597  -27.5547 H   0  0  0  0  0  0  0  0  0  0  0  0
   16.1100  -20.7017  -24.6285 H   0  0  0  0  0  0  0  0  0  0  0  0
    8.4779  -23.9108  -28.4600 H   0  0  0  0  0  0  0  0  0  0  0  0
  1  2  2  0  0  0  0
  1  3  2  0  0  0  0
  1  5  1  0  0  0  0
  1 15  1  0  0  0  0
  4  7  1  0  0  0  0
  5  8  1  0  0  0  0
  6  9  2  0  0  0  0
  6 10  1  0  0  0  0
  7  8  1  0  0  0  0
  9 12  1  0  0  0  0
 10 16  2  0  0  0  0
 11 13  1  0  0  0  0
 11 14  2  0  0  0  0
 12 17  2  0  0  0  0
 13 15  2  0  0  0  0
 14 16  1  0  0  0  0
 15 17  1  0  0  0  0
 16 17  1  0  0  0  0
  4 18  1  0  0  0  0
  4 19  1  0  0  0  0
  5 20  1  0  0  0  0
  7 21  1  0  0  0  0
  7 22  1  0  0  0  0
  8 23  1  0  0  0  0
  8 24  1  0  0  0  0
  9 25  1  0  0  0  0
 10 26  1  0  0  0  0
 11 27  1  0  0  0  0
 12 28  1  0  0  0  0
 13 29  1  0  0  0  0
 14 30  1  0  0  0  0
  4 31  1  0  0  0  0
M  CHG  1   4   1
M  END
$$$$
5M0B_MPD_A_402
prProtoss 08192305083D 1   1.00000     0.00000     0
Protoss beta proteinsplus
 22 21  0  0  0  0            999 V2000
    8.6450  -12.7580   -4.2230 O   0  0  0  0  0  0  0  0  0  0  0  0
    9.8410  -13.8870   -2.2730 O   0  0  0  0  0  0  0  0  0  0  0  0
    9.6500  -12.5690   -6.3730 C   0  0  0  0  0  0  0  0  0  0  0  0
   10.5540  -15.7880   -3.5690 C   0  0  0  0  0  0  0  0  0  0  0  0
   12.2350  -14.3510   -2.3860 C   0  0  0  0  0  0  0  0  0  0  0  0
   10.9610  -13.4550   -4.3740 C   0  0  0  0  0  0  0  0  0  0  0  0
    9.5940  -13.3630   -5.0690 C   0  0  1  0  0  0  0  0  0  0  0  0
   10.9020  -14.3690   -3.1420 C   0  0  0  0  0  0  0  0  0  0  0  0
    7.7493  -12.7655   -4.6676 H   0  0  0  0  0  0  0  0  0  0  0  0
    9.1373  -13.4379   -2.8236 H   0  0  0  0  0  0  0  0  0  0  0  0
   10.3202  -12.9847   -6.9879 H   0  0  0  0  0  0  0  0  0  0  0  0
    8.7492  -12.5772   -6.8072 H   0  0  0  0  0  0  0  0  0  0  0  0
    9.9173  -11.6254   -6.1775 H   0  0  0  0  0  0  0  0  0  0  0  0
   11.2718  -16.1410   -4.1691 H   0  0  0  0  0  0  0  0  0  0  0  0
   10.4795  -16.3708   -2.7598 H   0  0  0  0  0  0  0  0  0  0  0  0
    9.6821  -15.7844   -4.0586 H   0  0  0  0  0  0  0  0  0  0  0  0
   12.9630  -14.6829   -2.9859 H   0  0  0  0  0  0  0  0  0  0  0  0
   12.4416  -13.4163   -2.0968 H   0  0  0  0  0  0  0  0  0  0  0  0
   12.1702  -14.9420   -1.5820 H   0  0  0  0  0  0  0  0  0  0  0  0
   11.2423  -12.5394   -4.0868 H   0  0  0  0  0  0  0  0  0  0  0  0
   11.6304  -13.8221   -5.0198 H   0  0  0  0  0  0  0  0  0  0  0  0
    9.2838  -14.2904   -5.2780 H   0  0  0  0  0  0  0  0  0  0  0  0
  1  7  1  0  0  0  0
  2  8  1  0  0  0  0
  3  7  1  0  0  0  0
  4  8  1  0  0  0  0
  5  8  1  0  0  0  0
  6  7  1  0  0  0  0
  6  8  1  0  0  0  0
  1  9  1  0  0  0  0
  2 10  1  0  0  0  0
  3 11  1  0  0  0  0
  3 12  1  0  0  0  0
  3 13  1  0  0  0  0
  4 14  1  0  0  0  0
  4 15  1  0  0  0  0
  4 16  1  0  0  0  0
  5 17  1  0  0  0  0
  5 18  1  0  0  0  0
  5 19  1  0  0  0  0
  6 20  1  0  0  0  0
  6 21  1  0  0  0  0
  7 22  1  0  0  0  0
M  END
$$$$
5M0B_MOH_A_403
prProtoss 08192305083D 1   1.00000     0.00000     0
Protoss beta proteinsplus
  6  5  0  0  0  0            999 V2000
   40.0790  -18.8900  -32.7560 O   0  0  0  0  0  0  0  0  0  0  0  0
   38.7940  -19.0270  -32.2260 C   0  0  0  0  0  0  0  0  0  0  0  0
   40.4770  -18.0264  -32.4463 H   0  0  0  0  0  0  0  0  0  0  0  0
   38.1316  -19.0976  -32.9718 H   0  0  0  0  0  0  0  0  0  0  0  0
   38.7518  -19.8526  -31.6634 H   0  0  0  0  0  0  0  0  0  0  0  0
   38.5786  -18.2288  -31.6634 H   0  0  0  0  0  0  0  0  0  0  0  0
  1  2  1  0  0  0  0
  1  3  1  0  0  0  0
  2  4  1  0  0  0  0
  2  5  1  0  0  0  0
  2  6  1  0  0  0  0
M  END
$$$$
5M0B_MOH_B_101
prProtoss 08192305083D 1   1.00000     0.00000     0
Protoss beta proteinsplus
  6  5  0  0  0  0            999 V2000
  -16.9640  -28.4630  -20.3470 O   0  0  0  0  0  0  0  0  0  0  0  0
  -16.4870  -29.5800  -19.6570 C   0  0  0  0  0  0  0  0  0  0  0  0
  -17.9202  -28.3030  -20.1018 H   0  0  0  0  0  0  0  0  0  0  0  0
  -16.5561  -29.4183  -18.6726 H   0  0  0  0  0  0  0  0  0  0  0  0
  -17.0326  -30.3813  -19.9022 H   0  0  0  0  0  0  0  0  0  0  0  0
  -15.5308  -29.7400  -19.9022 H   0  0  0  0  0  0  0  0  0  0  0  0
  1  2  1  0  0  0  0
  1  3  1  0  0  0  0
  2  4  1  0  0  0  0
  2  5  1  0  0  0  0
  2  6  1  0  0  0  0
M  END
$$$$
6YNB_IQU_A_401
prProtoss 08182323023D 1   1.00000     0.00000     0
Protoss beta proteinsplus
 31 32  0  0  0  0            999 V2000
  -12.9300  -25.8050   26.9650 S   0  0  0  0  0  0  0  0  0  0  0  0
  -12.4340  -24.8010   27.8580 O   0  0  0  0  0  0  0  0  0  0  0  0
  -13.5340  -26.9840   27.4860 O   0  0  0  0  0  0  0  0  0  0  0  0
   -8.9640  -23.9490   26.9600 N   0  3  0  0  0  0  0  0  0  0  0  0
  -11.6790  -26.2790   26.0580 N   0  0  0  0  0  0  0  0  0  0  0  0
  -16.6070  -26.8810   23.0940 N   0  0  0  0  0  0  0  0  0  0  0  0
   -9.5800  -25.2890   26.8630 C   0  0  0  0  0  0  0  0  0  0  0  0
  -10.6080  -25.3390   25.7530 C   0  0  0  0  0  0  0  0  0  0  0  0
  -15.7810  -27.5990   23.8790 C   0  0  0  0  0  0  0  0  0  0  0  0
  -16.5870  -25.5600   23.2320 C   0  0  0  0  0  0  0  0  0  0  0  0
  -14.8530  -22.8430   25.1080 C   0  0  0  0  0  0  0  0  0  0  0  0
  -14.9530  -27.0600   24.8170 C   0  0  0  0  0  0  0  0  0  0  0  0
  -14.0250  -23.5850   25.9310 C   0  0  0  0  0  0  0  0  0  0  0  0
  -15.7000  -23.4580   24.2390 C   0  0  0  0  0  0  0  0  0  0  0  0
  -14.0390  -24.9520   25.8780 C   0  0  0  0  0  0  0  0  0  0  0  0
  -15.7500  -24.8710   24.1450 C   0  0  0  0  0  0  0  0  0  0  0  0
  -14.9050  -25.6530   24.9760 C   0  0  0  0  0  0  0  0  0  0  0  0
   -8.6972  -23.7726   27.9075 H   0  0  0  0  0  0  0  0  0  0  0  0
   -8.1551  -23.9107   26.3733 H   0  0  0  0  0  0  0  0  0  0  0  0
  -11.2581  -27.0548   26.5281 H   0  0  0  0  0  0  0  0  0  0  0  0
  -10.0262  -25.5066   27.7311 H   0  0  0  0  0  0  0  0  0  0  0  0
   -8.8658  -25.9638   26.6770 H   0  0  0  0  0  0  0  0  0  0  0  0
  -11.0006  -24.4272   25.6325 H   0  0  0  0  0  0  0  0  0  0  0  0
  -10.1581  -25.6228   24.9062 H   0  0  0  0  0  0  0  0  0  0  0  0
  -15.7751  -28.5926   23.7659 H   0  0  0  0  0  0  0  0  0  0  0  0
  -17.1999  -25.0186   22.6566 H   0  0  0  0  0  0  0  0  0  0  0  0
  -14.8287  -21.8443   25.1523 H   0  0  0  0  0  0  0  0  0  0  0  0
  -14.3843  -27.6520   25.3881 H   0  0  0  0  0  0  0  0  0  0  0  0
  -13.4120  -23.1190   26.5691 H   0  0  0  0  0  0  0  0  0  0  0  0
  -16.2964  -22.9045   23.6577 H   0  0  0  0  0  0  0  0  0  0  0  0
   -9.6229  -23.2571   26.6649 H   0  0  0  0  0  0  0  0  0  0  0  0
  1  2  2  0  0  0  0
  1  3  2  0  0  0  0
  1  5  1  0  0  0  0
  1 15  1  0  0  0  0
  4  7  1  0  0  0  0
  5  8  1  0  0  0  0
  6  9  2  0  0  0  0
  6 10  1  0  0  0  0
  7  8  1  0  0  0  0
  9 12  1  0  0  0  0
 10 16  2  0  0  0  0
 11 13  1  0  0  0  0
 11 14  2  0  0  0  0
 12 17  2  0  0  0  0
 13 15  2  0  0  0  0
 14 16  1  0  0  0  0
 15 17  1  0  0  0  0
 16 17  1  0  0  0  0
  4 18  1  0  0  0  0
  4 19  1  0  0  0  0
  5 20  1  0  0  0  0
  7 21  1  0  0  0  0
  7 22  1  0  0  0  0
  8 23  1  0  0  0  0
  8 24  1  0  0  0  0
  9 25  1  0  0  0  0
 10 26  1  0  0  0  0
 11 27  1  0  0  0  0
 12 28  1  0  0  0  0
 13 29  1  0  0  0  0
 14 30  1  0  0  0  0
  4 31  1  0  0  0  0
M  CHG  1   4   1
M  END
$$$$
6YNB_DMS_A_402
prProtoss 08182323023D 1   1.00000     0.00000     0
Protoss beta proteinsplus
 10  9  0  0  0  0            999 V2000
  -10.2100  -14.5660    3.0500 S   0  0  0  0  0  0  0  0  0  0  0  0
   -9.1790  -13.6600    2.4550 O   0  0  0  0  0  0  0  0  0  0  0  0
  -10.4700  -14.1070    4.7820 C   0  0  0  0  0  0  0  0  0  0  0  0
  -11.8500  -14.1670    2.3820 C   0  0  0  0  0  0  0  0  0  0  0  0
  -11.1585  -14.7089    5.1866 H   0  0  0  0  0  0  0  0  0  0  0  0
   -9.6101  -14.1994    5.2840 H   0  0  0  0  0  0  0  0  0  0  0  0
  -10.7850  -13.1592    4.8320 H   0  0  0  0  0  0  0  0  0  0  0  0
  -12.5317  -14.7774    2.7853 H   0  0  0  0  0  0  0  0  0  0  0  0
  -12.0786  -13.2191    2.6037 H   0  0  0  0  0  0  0  0  0  0  0  0
  -11.8431  -14.2848    1.3890 H   0  0  0  0  0  0  0  0  0  0  0  0
  1  2  2  0  0  0  0
  1  3  1  0  0  0  0
  1  4  1  0  0  0  0
  3  5  1  0  0  0  0
  3  6  1  0  0  0  0
  3  7  1  0  0  0  0
  4  8  1  0  0  0  0
  4  9  1  0  0  0  0
  4 10  1  0  0  0  0
M  END
$$$$
5N1G_MRD_A_401
prProtoss 08172316053D 1   1.00000     0.00000     0
Protoss beta proteinsplus
 22 21  0  0  0  0            999 V2000
   12.4780    3.0080   19.8340 O   0  0  0  0  0  0  0  0  0  0  0  0
    9.8510    2.7180   19.7070 O   0  0  0  0  0  0  0  0  0  0  0  0
   14.0000    1.1810   19.5440 C   0  0  0  0  0  0  0  0  0  0  0  0
    9.1080    1.0380   18.1830 C   0  0  0  0  0  0  0  0  0  0  0  0
    9.7130    0.5870   20.6010 C   0  0  0  0  0  0  0  0  0  0  0  0
   11.5250    1.0830   18.9200 C   0  0  0  0  0  0  0  0  0  0  0  0
   12.5770    1.6110   19.8980 C   0  0  2  0  0  0  0  0  0  0  0  0
   10.0740    1.3400   19.3270 C   0  0  0  0  0  0  0  0  0  0  0  0
   11.5459    3.2648   19.5784 H   0  0  0  0  0  0  0  0  0  0  0  0
    9.1485    2.7583   20.4175 H   0  0  0  0  0  0  0  0  0  0  0  0
   14.0683    0.1844   19.5903 H   0  0  0  0  0  0  0  0  0  0  0  0
   14.2202    1.4876   18.6180 H   0  0  0  0  0  0  0  0  0  0  0  0
   14.6427    1.5896   20.1921 H   0  0  0  0  0  0  0  0  0  0  0  0
    9.2279    0.0904   17.8868 H   0  0  0  0  0  0  0  0  0  0  0  0
    8.1679    1.1729   18.4961 H   0  0  0  0  0  0  0  0  0  0  0  0
    9.2957    1.6530   17.4171 H   0  0  0  0  0  0  0  0  0  0  0  0
    9.8319   -0.3948   20.4530 H   0  0  0  0  0  0  0  0  0  0  0  0
   10.3096    0.8865   21.3456 H   0  0  0  0  0  0  0  0  0  0  0  0
    8.7606    0.7750   20.8408 H   0  0  0  0  0  0  0  0  0  0  0  0
   11.6518    0.0949   18.8324 H   0  0  0  0  0  0  0  0  0  0  0  0
   11.6799    1.5189   18.0334 H   0  0  0  0  0  0  0  0  0  0  0  0
   12.3562    1.3032   20.8235 H   0  0  0  0  0  0  0  0  0  0  0  0
  1  7  1  0  0  0  0
  2  8  1  0  0  0  0
  3  7  1  0  0  0  0
  4  8  1  0  0  0  0
  5  8  1  0  0  0  0
  6  7  1  0  0  0  0
  6  8  1  0  0  0  0
  1  9  1  0  0  0  0
  2 10  1  0  0  0  0
  3 11  1  0  0  0  0
  3 12  1  0  0  0  0
  3 13  1  0  0  0  0
  4 14  1  0  0  0  0
  4 15  1  0  0  0  0
  4 16  1  0  0  0  0
  5 17  1  0  0  0  0
  5 18  1  0  0  0  0
  5 19  1  0  0  0  0
  6 20  1  0  0  0  0
  6 21  1  0  0  0  0
  7 22  1  0  0  0  0
M  END
$$$$
5N1G_MPD_A_402
prProtoss 08172316053D 1   1.00000     0.00000     0
Protoss beta proteinsplus
 22 21  0  0  0  0            999 V2000
    8.8980   26.6540   13.0080 O   0  0  0  0  0  0  0  0  0  0  0  0
   10.5160   25.5410   14.9000 O   0  0  0  0  0  0  0  0  0  0  0  0
    6.9310   25.4530   12.3980 C   0  0  0  0  0  0  0  0  0  0  0  0
    8.7910   25.7420   16.6410 C   0  0  0  0  0  0  0  0  0  0  0  0
    9.7960   23.5720   15.9060 C   0  0  0  0  0  0  0  0  0  0  0  0
    8.2800   24.6770   14.3570 C   0  0  0  0  0  0  0  0  0  0  0  0
    7.8200   25.9040   13.5590 C   0  0  1  0  0  0  0  0  0  0  0  0
    9.3180   24.9240   15.4600 C   0  0  0  0  0  0  0  0  0  0  0  0
    9.4157   26.0781   12.3753 H   0  0  0  0  0  0  0  0  0  0  0  0
   10.8448   24.9930   14.1309 H   0  0  0  0  0  0  0  0  0  0  0  0
    6.1620   24.9219   12.7538 H   0  0  0  0  0  0  0  0  0  0  0  0
    6.5852   26.2555   11.9117 H   0  0  0  0  0  0  0  0  0  0  0  0
    7.4648   24.8869   11.7698 H   0  0  0  0  0  0  0  0  0  0  0  0
    7.9714   25.3041   17.0105 H   0  0  0  0  0  0  0  0  0  0  0  0
    9.4923   25.7907   17.3522 H   0  0  0  0  0  0  0  0  0  0  0  0
    8.5648   26.6658   16.3321 H   0  0  0  0  0  0  0  0  0  0  0  0
    9.0341   23.0656   16.3099 H   0  0  0  0  0  0  0  0  0  0  0  0
   10.1514   23.0678   15.1190 H   0  0  0  0  0  0  0  0  0  0  0  0
   10.5207   23.6823   16.5861 H   0  0  0  0  0  0  0  0  0  0  0  0
    8.6745   24.0247   13.7098 H   0  0  0  0  0  0  0  0  0  0  0  0
    7.4717   24.2736   14.7859 H   0  0  0  0  0  0  0  0  0  0  0  0
    7.2874   26.4991   14.1608 H   0  0  0  0  0  0  0  0  0  0  0  0
  1  7  1  0  0  0  0
  2  8  1  0  0  0  0
  3  7  1  0  0  0  0
  4  8  1  0  0  0  0
  5  8  1  0  0  0  0
  6  7  1  0  0  0  0
  6  8  1  0  0  0  0
  1  9  1  0  0  0  0
  2 10  1  0  0  0  0
  3 11  1  0  0  0  0
  3 12  1  0  0  0  0
  3 13  1  0  0  0  0
  4 14  1  0  0  0  0
  4 15  1  0  0  0  0
  4 16  1  0  0  0  0
  5 17  1  0  0  0  0
  5 18  1  0  0  0  0
  5 19  1  0  0  0  0
  6 20  1  0  0  0  0
  6 21  1  0  0  0  0
  7 22  1  0  0  0  0
M  END
$$$$
5N1G_8G5_A_403
prProtoss 08172316053D 1   1.00000     0.00000     0
Protoss beta proteinsplus
 33 35  0  0  0  0            999 V2000
   22.4910   19.5510   41.4140 S   0  0  0  0  0  0  0  0  0  0  0  0
   17.2590   16.0490   42.1480 O   0  0  0  0  0  0  0  0  0  0  0  0
   17.4930   17.2800   40.2930 O   0  0  0  0  0  0  0  0  0  0  0  0
   21.3430   19.4080   43.8340 N   0  0  0  0  0  0  0  0  0  0  0  0
   20.4440   18.1350   42.0860 N   0  0  0  0  0  0  0  0  0  0  0  0
   21.7630   18.5290   40.2330 C   0  0  0  0  0  0  0  0  0  0  0  0
   16.8670   18.6610   37.1610 C   0  0  0  0  0  0  0  0  0  0  0  0
   17.2250   19.4600   38.4070 C   0  0  0  0  0  0  0  0  0  0  0  0
   16.8340   17.1840   37.4600 C   0  0  0  0  0  0  0  0  0  0  0  0
   18.5500   19.0000   38.9940 C   0  0  0  0  0  0  0  0  0  0  0  0
   18.1720   16.7150   38.0250 C   0  0  0  0  0  0  0  0  0  0  0  0
   19.2070   15.7880   40.6970 C   0  0  0  0  0  0  0  0  0  0  0  0
   21.3070   18.9970   42.5630 C   0  0  0  0  0  0  0  0  0  0  0  0
   17.8840   16.2930   41.1360 C   0  0  0  0  0  0  0  0  0  0  0  0
   20.7040   17.8690   40.7490 C   0  0  0  0  0  0  0  0  0  0  0  0
   19.7420   17.0160   40.0420 C   0  0  2  0  0  0  0  0  0  0  0  0
   18.5510   17.5070   39.2700 C   0  0  0  0  0  0  0  0  0  0  0  0
   20.6568   19.0823   44.4844 H   0  0  0  0  0  0  0  0  0  0  0  0
   22.0561   20.0413   44.1347 H   0  0  0  0  0  0  0  0  0  0  0  0
   22.0826   18.4368   39.2899 H   0  0  0  0  0  0  0  0  0  0  0  0
   17.5502   18.8363   36.4522 H   0  0  0  0  0  0  0  0  0  0  0  0
   15.9667   18.9492   36.8348 H   0  0  0  0  0  0  0  0  0  0  0  0
   16.5055   19.3378   39.0907 H   0  0  0  0  0  0  0  0  0  0  0  0
   17.2940   20.4278   38.1651 H   0  0  0  0  0  0  0  0  0  0  0  0
   16.6407   16.6830   36.6164 H   0  0  0  0  0  0  0  0  0  0  0  0
   16.1135   17.0010   38.1289 H   0  0  0  0  0  0  0  0  0  0  0  0
   18.7122   19.4886   39.8513 H   0  0  0  0  0  0  0  0  0  0  0  0
   19.2824   19.2108   38.3465 H   0  0  0  0  0  0  0  0  0  0  0  0
   18.8810   16.8392   37.3308 H   0  0  0  0  0  0  0  0  0  0  0  0
   18.1043   15.7460   38.2627 H   0  0  0  0  0  0  0  0  0  0  0  0
   19.1200   15.0296   40.0510 H   0  0  0  0  0  0  0  0  0  0  0  0
   19.7721   15.5031   41.4713 H   0  0  0  0  0  0  0  0  0  0  0  0
   20.3095   16.6283   39.3156 H   0  0  0  0  0  0  0  0  0  0  0  0
  1  6  1  0  0  0  0
  1 13  1  0  0  0  0
  2 14  2  0  0  0  0
  3 14  1  0  0  0  0
  3 17  1  0  0  0  0
  4 13  1  0  0  0  0
  5 13  2  0  0  0  0
  5 15  1  0  0  0  0
  6 15  2  0  0  0  0
  7  8  1  0  0  0  0
  7  9  1  0  0  0  0
  8 10  1  0  0  0  0
  9 11  1  0  0  0  0
 10 17  1  0  0  0  0
 11 17  1  0  0  0  0
 12 14  1  0  0  0  0
 12 16  1  0  0  0  0
 15 16  1  0  0  0  0
 16 17  1  0  0  0  0
  4 18  1  0  0  0  0
  4 19  1  0  0  0  0
  6 20  1  0  0  0  0
  7 21  1  0  0  0  0
  7 22  1  0  0  0  0
  8 23  1  0  0  0  0
  8 24  1  0  0  0  0
  9 25  1  0  0  0  0
  9 26  1  0  0  0  0
 10 27  1  0  0  0  0
 10 28  1  0  0  0  0
 11 29  1  0  0  0  0
 11 30  1  0  0  0  0
 12 31  1  0  0  0  0
 12 32  1  0  0  0  0
 16 33  1  0  0  0  0
M  END
$$$$
5N1G_DMS_A_404
prProtoss 08172316053D 1   1.00000     0.00000     0
Protoss beta proteinsplus
 10  9  0  0  0  0            999 V2000
   23.9610   20.4320   32.7170 S   0  0  0  0  0  0  0  0  0  0  0  0
   22.8620   20.2280   31.7460 O   0  0  0  0  0  0  0  0  0  0  0  0
   23.5290   21.6100   34.0100 C   0  0  0  0  0  0  0  0  0  0  0  0
   24.7040   18.9720   33.4920 C   0  0  0  0  0  0  0  0  0  0  0  0
   24.3002   21.7132   34.6382 H   0  0  0  0  0  0  0  0  0  0  0  0
   23.3151   22.4951   33.5966 H   0  0  0  0  0  0  0  0  0  0  0  0
   22.7319   21.2756   34.5129 H   0  0  0  0  0  0  0  0  0  0  0  0
   25.4274   19.2596   34.1197 H   0  0  0  0  0  0  0  0  0  0  0  0
   24.0028   18.4704   33.9987 H   0  0  0  0  0  0  0  0  0  0  0  0
   25.0918   18.3804   32.7852 H   0  0  0  0  0  0  0  0  0  0  0  0
  1  2  2  0  0  0  0
  1  3  1  0  0  0  0
  1  4  1  0  0  0  0
  3  5  1  0  0  0  0
  3  6  1  0  0  0  0
  3  7  1  0  0  0  0
  4  8  1  0  0  0  0
  4  9  1  0  0  0  0
  4 10  1  0  0  0  0
M  END
$$$$
4C35_NU3_A_1351
prProtoss 05262315133D 1   1.00000     0.00000     0
Protoss beta proteinsplus
 30 32  0  0  0  0            999 V2000
   12.5560   82.7450   84.4890 O   0  0  0  0  0  0  0  0  0  0  0  0
    9.1230   92.8140   85.6990 O   0  0  0  0  0  0  0  0  0  0  0  0
   12.6800   84.9970   84.7450 N   0  0  0  0  0  0  0  0  0  0  0  0
    8.0450   86.4160   85.1780 N   0  0  0  0  0  0  0  0  0  0  0  0
   10.2870   86.4720   85.0170 N   0  0  0  0  0  0  0  0  0  0  0  0
    8.3660   82.7530   84.5580 C   0  0  0  0  0  0  0  0  0  0  0  0
    7.6930   83.9390   84.8050 C   0  0  0  0  0  0  0  0  0  0  0  0
   10.3060   90.7490   85.7050 C   0  0  0  0  0  0  0  0  0  0  0  0
    7.9300   90.7540   85.3450 C   0  0  0  0  0  0  0  0  0  0  0  0
    9.7520   82.7400   84.4500 C   0  0  0  0  0  0  0  0  0  0  0  0
   10.3180   89.3670   85.6000 C   0  0  0  0  0  0  0  0  0  0  0  0
    7.9460   89.3700   85.2520 C   0  0  0  0  0  0  0  0  0  0  0  0
   11.9910   83.8410   84.6250 C   0  0  0  0  0  0  0  0  0  0  0  0
    9.1120   91.4470   85.5720 C   0  0  0  0  0  0  0  0  0  0  0  0
    9.1770   87.1870   85.1970 C   0  0  0  0  0  0  0  0  0  0  0  0
    8.4430   85.1070   84.9440 C   0  0  0  0  0  0  0  0  0  0  0  0
    9.1430   88.6580   85.3620 C   0  0  0  0  0  0  0  0  0  0  0  0
    9.8720   85.1500   84.8520 C   0  0  0  0  0  0  0  0  0  0  0  0
   10.4930   83.9140   84.6190 C   0  0  0  0  0  0  0  0  0  0  0  0
    8.2725   93.3316   85.6061 H   0  0  0  0  0  0  0  0  0  0  0  0
   12.1902   85.8621   84.8531 H   0  0  0  0  0  0  0  0  0  0  0  0
   13.6798   84.9875   84.7257 H   0  0  0  0  0  0  0  0  0  0  0  0
    7.1068   86.7364   85.3084 H   0  0  0  0  0  0  0  0  0  0  0  0
    7.8516   81.9014   84.4568 H   0  0  0  0  0  0  0  0  0  0  0  0
    6.6961   83.9571   84.8816 H   0  0  0  0  0  0  0  0  0  0  0  0
   11.1576   91.2443   85.8767 H   0  0  0  0  0  0  0  0  0  0  0  0
    7.0683   91.2522   85.2487 H   0  0  0  0  0  0  0  0  0  0  0  0
   10.2243   81.8817   84.2493 H   0  0  0  0  0  0  0  0  0  0  0  0
   11.1817   88.8724   85.6964 H   0  0  0  0  0  0  0  0  0  0  0  0
    7.0895   88.8754   85.1043 H   0  0  0  0  0  0  0  0  0  0  0  0
  1 13  2  0  0  0  0
  2 14  1  0  0  0  0
  3 13  1  0  0  0  0
  4 15  1  0  0  0  0
  4 16  1  0  0  0  0
  5 15  2  0  0  0  0
  5 18  1  0  0  0  0
  6  7  1  0  0  0  0
  6 10  2  0  0  0  0
  7 16  2  0  0  0  0
  8 11  1  0  0  0  0
  8 14  2  0  0  0  0
  9 12  2  0  0  0  0
  9 14  1  0  0  0  0
 10 19  1  0  0  0  0
 11 17  2  0  0  0  0
 12 17  1  0  0  0  0
 13 19  1  0  0  0  0
 15 17  1  0  0  0  0
 16 18  1  0  0  0  0
 18 19  2  0  0  0  0
  2 20  1  0  0  0  0
  3 21  1  0  0  0  0
  3 22  1  0  0  0  0
  4 23  1  0  0  0  0
  6 24  1  0  0  0  0
  7 25  1  0  0  0  0
  8 26  1  0  0  0  0
  9 27  1  0  0  0  0
 10 28  1  0  0  0  0
 11 29  1  0  0  0  0
 12 30  1  0  0  0  0
M  END
$$$$
4C35_MPD_A_1352
prProtoss 05262315133D 1   1.00000     0.00000     0
Protoss beta proteinsplus
 22 21  0  0  0  0            999 V2000
   22.1060   95.8190  100.2570 O   0  0  0  0  0  0  0  0  0  0  0  0
   26.2380   96.0300  102.1830 O   0  0  0  0  0  0  0  0  0  0  0  0
   23.6890   97.4960  100.9080 C   0  0  0  0  0  0  0  0  0  0  0  0
   26.5650   95.2880   99.9240 C   0  0  0  0  0  0  0  0  0  0  0  0
   26.2150   93.6870  101.8120 C   0  0  0  0  0  0  0  0  0  0  0  0
   24.2630   95.0110  101.0690 C   0  0  0  0  0  0  0  0  0  0  0  0
   23.5050   96.1290  100.2980 C   0  0  1  0  0  0  0  0  0  0  0  0
   25.8210   95.0320  101.2310 C   0  0  0  0  0  0  0  0  0  0  0  0
   21.8257   95.6681   99.3090 H   0  0  0  0  0  0  0  0  0  0  0  0
   25.7625   95.8826  103.0503 H   0  0  0  0  0  0  0  0  0  0  0  0
   24.6634   97.7185  100.9396 H   0  0  0  0  0  0  0  0  0  0  0  0
   23.2096   98.1759  100.3531 H   0  0  0  0  0  0  0  0  0  0  0  0
   23.3160   97.5000  101.8358 H   0  0  0  0  0  0  0  0  0  0  0  0
   26.2915   94.6061   99.2457 H   0  0  0  0  0  0  0  0  0  0  0  0
   26.3410   96.2023   99.5865 H   0  0  0  0  0  0  0  0  0  0  0  0
   27.5502   95.2234  100.0831 H   0  0  0  0  0  0  0  0  0  0  0  0
   25.9438   92.9594  101.1819 H   0  0  0  0  0  0  0  0  0  0  0  0
   27.2055   93.6593  101.9467 H   0  0  0  0  0  0  0  0  0  0  0  0
   25.7554   93.5558  102.6904 H   0  0  0  0  0  0  0  0  0  0  0  0
   24.0399   94.1516  100.6089 H   0  0  0  0  0  0  0  0  0  0  0  0
   23.8844   95.0017  101.9945 H   0  0  0  0  0  0  0  0  0  0  0  0
   23.8498   96.1538   99.3596 H   0  0  0  0  0  0  0  0  0  0  0  0
  1  7  1  0  0  0  0
  2  8  1  0  0  0  0
  3  7  1  0  0  0  0
  4  8  1  0  0  0  0
  5  8  1  0  0  0  0
  6  7  1  0  0  0  0
  6  8  1  0  0  0  0
  1  9  1  0  0  0  0
  2 10  1  0  0  0  0
  3 11  1  0  0  0  0
  3 12  1  0  0  0  0
  3 13  1  0  0  0  0
  4 14  1  0  0  0  0
  4 15  1  0  0  0  0
  4 16  1  0  0  0  0
  5 17  1  0  0  0  0
  5 18  1  0  0  0  0
  5 19  1  0  0  0  0
  6 20  1  0  0  0  0
  6 21  1  0  0  0  0
  7 22  1  0  0  0  0
M  END
$$$$
4C36_ZO9_A_1351
prProtoss 05262316003D 1   1.00000     0.00000     0
Protoss beta proteinsplus
 32 35  0  0  0  0            999 V2000
  -32.1650  -10.2230   -5.4680 O   0  0  0  0  0  0  0  0  0  0  0  0
  -32.6360   -9.7450   -2.0730 N   0  0  0  0  0  0  0  0  0  0  0  0
  -33.0130  -10.0920   -4.3560 N   0  0  0  0  0  0  0  0  0  0  0  0
  -30.8290  -10.1200   -5.1000 N   0  0  0  0  0  0  0  0  0  0  0  0
  -29.8060  -10.0390   -1.6130 N   0  0  0  0  0  0  0  0  0  0  0  0
  -28.3750   -9.5090   -3.2790 N   0  0  0  0  0  0  0  0  0  0  0  0
  -27.8910   -9.0660   -4.6010 C   0  0  0  0  0  0  0  0  0  0  0  0
  -26.7090   -9.9010    0.4730 C   0  0  0  0  0  0  0  0  0  0  0  0
  -25.8170   -9.5780   -0.5470 C   0  0  0  0  0  0  0  0  0  0  0  0
  -28.0590  -10.0830    0.2070 C   0  0  0  0  0  0  0  0  0  0  0  0
  -26.2570   -9.4310   -1.8600 C   0  0  0  0  0  0  0  0  0  0  0  0
  -26.1440  -10.8300   -5.3290 C   0  0  0  0  0  0  0  0  0  0  0  0
  -26.4990  -10.0610   -6.5580 C   0  0  0  0  0  0  0  0  0  0  0  0
  -32.2190   -9.9310   -3.3300 C   0  0  0  0  0  0  0  0  0  0  0  0
  -29.6780   -9.7630   -2.8990 C   0  0  0  0  0  0  0  0  0  0  0  0
  -28.5130   -9.9460   -1.1050 C   0  0  0  0  0  0  0  0  0  0  0  0
  -30.8470   -9.9160   -3.7950 C   0  0  0  0  0  0  0  0  0  0  0  0
  -27.6120   -9.6230   -2.1180 C   0  0  0  0  0  0  0  0  0  0  0  0
  -27.5120  -10.2450   -5.4720 C   0  0  0  0  0  0  0  0  0  0  0  0
  -31.9691   -9.6287   -1.3370 H   0  0  0  0  0  0  0  0  0  0  0  0
  -33.6147   -9.7222   -1.8691 H   0  0  0  0  0  0  0  0  0  0  0  0
  -27.0885   -8.4827   -4.4753 H   0  0  0  0  0  0  0  0  0  0  0  0
  -28.6140   -8.5450   -5.0547 H   0  0  0  0  0  0  0  0  0  0  0  0
  -26.3723  -10.0031    1.4091 H   0  0  0  0  0  0  0  0  0  0  0  0
  -24.8484   -9.4501   -0.3337 H   0  0  0  0  0  0  0  0  0  0  0  0
  -28.6961  -10.3087    0.9440 H   0  0  0  0  0  0  0  0  0  0  0  0
  -25.6203   -9.1951   -2.5942 H   0  0  0  0  0  0  0  0  0  0  0  0
  -25.5024  -10.4442   -4.6661 H   0  0  0  0  0  0  0  0  0  0  0  0
  -26.0164  -11.8206   -5.3788 H   0  0  0  0  0  0  0  0  0  0  0  0
  -26.6097  -10.5365   -7.4307 H   0  0  0  0  0  0  0  0  0  0  0  0
  -26.0956   -9.1601   -6.7180 H   0  0  0  0  0  0  0  0  0  0  0  0
  -28.2457  -10.8960   -5.6668 H   0  0  0  0  0  0  0  0  0  0  0  0
  1  3  1  0  0  0  0
  1  4  1  0  0  0  0
  2 14  1  0  0  0  0
  3 14  2  0  0  0  0
  4 17  2  0  0  0  0
  5 15  2  0  0  0  0
  5 16  1  0  0  0  0
  6  7  1  0  0  0  0
  6 15  1  0  0  0  0
  6 18  1  0  0  0  0
  7 19  1  0  0  0  0
  8  9  2  0  0  0  0
  8 10  1  0  0  0  0
  9 11  1  0  0  0  0
 10 16  2  0  0  0  0
 11 18  2  0  0  0  0
 12 13  1  0  0  0  0
 12 19  1  0  0  0  0
 13 19  1  0  0  0  0
 14 17  1  0  0  0  0
 15 17  1  0  0  0  0
 16 18  1  0  0  0  0
  2 20  1  0  0  0  0
  2 21  1  0  0  0  0
  7 22  1  0  0  0  0
  7 23  1  0  0  0  0
  8 24  1  0  0  0  0
  9 25  1  0  0  0  0
 10 26  1  0  0  0  0
 11 27  1  0  0  0  0
 12 28  1  0  0  0  0
 12 29  1  0  0  0  0
 13 30  1  0  0  0  0
 13 31  1  0  0  0  0
 19 32  1  0  0  0  0
M  END
$$$$
4C36_MOH_I_1025
prProtoss 05262316003D 1   1.00000     0.00000     0
Protoss beta proteinsplus
  6  5  0  0  0  0            999 V2000
  -15.2930   -5.4420  -13.7050 O   0  0  0  0  0  0  0  0  0  0  0  0
  -16.3010   -5.0110  -14.5850 C   0  0  0  0  0  0  0  0  0  0  0  0
  -15.1037   -6.4110  -13.8640 H   0  0  0  0  0  0  0  0  0  0  0  0
  -15.9974   -5.1408  -15.5289 H   0  0  0  0  0  0  0  0  0  0  0  0
  -17.1323   -5.5435  -14.4260 H   0  0  0  0  0  0  0  0  0  0  0  0
  -16.4903   -4.0420  -14.4260 H   0  0  0  0  0  0  0  0  0  0  0  0
  1  2  1  0  0  0  0
  1  3  1  0  0  0  0
  2  4  1  0  0  0  0
  2  5  1  0  0  0  0
  2  6  1  0  0  0  0
M  END
$$$$
5N1E_MPD_A_401
prProtoss 08172316053D 1   1.00000     0.00000     0
Protoss beta proteinsplus
 22 21  0  0  0  0            999 V2000
   -8.0990   12.3000   -4.4670 O   0  0  0  0  0  0  0  0  0  0  0  0
   -9.2460   13.2050   -2.2850 O   0  0  0  0  0  0  0  0  0  0  0  0
   -8.8130   12.8350   -6.6570 C   0  0  0  0  0  0  0  0  0  0  0  0
   -9.6380   15.4450   -3.0460 C   0  0  0  0  0  0  0  0  0  0  0  0
  -11.5540   13.8840   -2.5070 C   0  0  0  0  0  0  0  0  0  0  0  0
  -10.2200   13.4650   -4.5450 C   0  0  0  0  0  0  0  0  0  0  0  0
   -8.8330   13.2540   -5.1810 C   0  0  1  0  0  0  0  0  0  0  0  0
  -10.1490   14.0010   -3.1070 C   0  0  0  0  0  0  0  0  0  0  0  0
   -8.4615   12.2275   -3.5378 H   0  0  0  0  0  0  0  0  0  0  0  0
   -9.7615   12.7755   -1.5435 H   0  0  0  0  0  0  0  0  0  0  0  0
   -9.3305   13.4975   -7.1986 H   0  0  0  0  0  0  0  0  0  0  0  0
   -7.8678   12.8044   -6.9820 H   0  0  0  0  0  0  0  0  0  0  0  0
   -9.2277   11.9301   -6.7523 H   0  0  0  0  0  0  0  0  0  0  0  0
  -10.2299   16.0317   -3.5987 H   0  0  0  0  0  0  0  0  0  0  0  0
   -9.6464   15.7618   -2.0975 H   0  0  0  0  0  0  0  0  0  0  0  0
   -8.7043   15.4835   -3.4020 H   0  0  0  0  0  0  0  0  0  0  0  0
  -12.1956   14.4224   -3.0533 H   0  0  0  0  0  0  0  0  0  0  0  0
  -11.8381   12.9252   -2.5080 H   0  0  0  0  0  0  0  0  0  0  0  0
  -11.5452   14.2281   -1.5681 H   0  0  0  0  0  0  0  0  0  0  0  0
  -10.7018   12.5888   -4.5345 H   0  0  0  0  0  0  0  0  0  0  0  0
  -10.7300   14.1192   -5.1036 H   0  0  0  0  0  0  0  0  0  0  0  0
   -8.3396   14.1210   -5.1118 H   0  0  0  0  0  0  0  0  0  0  0  0
  1  7  1  0  0  0  0
  2  8  1  0  0  0  0
  3  7  1  0  0  0  0
  4  8  1  0  0  0  0
  5  8  1  0  0  0  0
  6  7  1  0  0  0  0
  6  8  1  0  0  0  0
  1  9  1  0  0  0  0
  2 10  1  0  0  0  0
  3 11  1  0  0  0  0
  3 12  1  0  0  0  0
  3 13  1  0  0  0  0
  4 14  1  0  0  0  0
  4 15  1  0  0  0  0
  4 16  1  0  0  0  0
  5 17  1  0  0  0  0
  5 18  1  0  0  0  0
  5 19  1  0  0  0  0
  6 20  1  0  0  0  0
  6 21  1  0  0  0  0
  7 22  1  0  0  0  0
M  END
$$$$
5N1E_9NT_A_402
prProtoss 08172316053D 1   1.00000     0.00000     0
Protoss beta proteinsplus
 28 29  0  0  0  0            999 V2000
  -12.4310   23.7670  -26.1130 O   0  0  0  0  0  0  0  0  0  0  0  0
  -17.1330   25.9120  -22.4780 O   0  0  0  0  0  0  0  0  0  0  0  0
  -16.3270   23.8490  -23.1680 O   0  0  0  0  0  0  0  0  0  0  0  0
  -10.2270   24.1150  -27.6080 N   0  3  0  0  0  0  0  0  0  0  0  0
  -13.0000   25.9730  -26.1100 N   0  0  0  0  0  0  0  0  0  0  0  0
   -9.3040   24.0970  -26.4330 C   0  0  0  0  0  0  0  0  0  0  0  0
  -17.2190   24.4850  -22.2910 C   0  0  0  0  0  0  0  0  0  0  0  0
  -11.1920   25.2580  -27.5360 C   0  0  0  0  0  0  0  0  0  0  0  0
  -15.6230   27.2750  -23.8740 C   0  0  0  0  0  0  0  0  0  0  0  0
  -14.5620   27.2010  -24.7600 C   0  0  0  0  0  0  0  0  0  0  0  0
  -14.6690   24.7890  -24.7590 C   0  0  0  0  0  0  0  0  0  0  0  0
  -12.2710   24.9200  -26.5140 C   0  0  0  0  0  0  0  0  0  0  0  0
  -16.1650   26.0940  -23.4180 C   0  0  0  0  0  0  0  0  0  0  0  0
  -15.6840   24.8730  -23.8360 C   0  0  0  0  0  0  0  0  0  0  0  0
  -14.0870   25.9690  -25.2040 C   0  0  0  0  0  0  0  0  0  0  0  0
  -10.7411   23.2575  -27.6296 H   0  0  0  0  0  0  0  0  0  0  0  0
  -12.7457   26.8611  -26.4930 H   0  0  0  0  0  0  0  0  0  0  0  0
   -8.6759   23.3232  -26.5144 H   0  0  0  0  0  0  0  0  0  0  0  0
   -8.7814   24.9492  -26.4065 H   0  0  0  0  0  0  0  0  0  0  0  0
   -9.8370   24.0066  -25.5918 H   0  0  0  0  0  0  0  0  0  0  0  0
  -18.1514   24.1784  -22.4822 H   0  0  0  0  0  0  0  0  0  0  0  0
  -16.9799   24.2565  -21.3473 H   0  0  0  0  0  0  0  0  0  0  0  0
  -11.6106   25.4024  -28.4326 H   0  0  0  0  0  0  0  0  0  0  0  0
  -10.7104   26.0883  -27.2554 H   0  0  0  0  0  0  0  0  0  0  0  0
  -15.9844   28.1580  -23.5746 H   0  0  0  0  0  0  0  0  0  0  0  0
  -14.1310   28.0426  -25.0855 H   0  0  0  0  0  0  0  0  0  0  0  0
  -14.3580   23.9022  -25.1009 H   0  0  0  0  0  0  0  0  0  0  0  0
   -9.6855   24.2001  -28.4444 H   0  0  0  0  0  0  0  0  0  0  0  0
  1 12  2  0  0  0  0
  2  7  1  0  0  0  0
  2 13  1  0  0  0  0
  3  7  1  0  0  0  0
  3 14  1  0  0  0  0
  4  6  1  0  0  0  0
  4  8  1  0  0  0  0
  5 12  1  0  0  0  0
  5 15  1  0  0  0  0
  8 12  1  0  0  0  0
  9 10  1  0  0  0  0
  9 13  2  0  0  0  0
 10 15  2  0  0  0  0
 11 14  2  0  0  0  0
 11 15  1  0  0  0  0
 13 14  1  0  0  0  0
  4 16  1  0  0  0  0
  5 17  1  0  0  0  0
  6 18  1  0  0  0  0
  6 19  1  0  0  0  0
  6 20  1  0  0  0  0
  7 21  1  0  0  0  0
  7 22  1  0  0  0  0
  8 23  1  0  0  0  0
  8 24  1  0  0  0  0
  9 25  1  0  0  0  0
 10 26  1  0  0  0  0
 11 27  1  0  0  0  0
  4 28  1  0  0  0  0
M  CHG  1   4   1
M  END
$$$$
5N1E_DMS_A_403
prProtoss 08172316053D 1   1.00000     0.00000     0
Protoss beta proteinsplus
 10  9  0  0  0  0            999 V2000
   15.7250   31.3010  -18.8990 S   0  0  0  0  0  0  0  0  0  0  0  0
   15.0100   30.1580  -18.2480 O   0  0  0  0  0  0  0  0  0  0  0  0
   16.1990   32.5590  -17.6750 C   0  0  0  0  0  0  0  0  0  0  0  0
   17.3910   30.7900  -19.4210 C   0  0  0  0  0  0  0  0  0  0  0  0
   16.6737   33.3094  -18.1350 H   0  0  0  0  0  0  0  0  0  0  0  0
   15.3789   32.9104  -17.2234 H   0  0  0  0  0  0  0  0  0  0  0  0
   16.8052   32.1492  -16.9934 H   0  0  0  0  0  0  0  0  0  0  0  0
   17.8563   31.5623  -19.8536 H   0  0  0  0  0  0  0  0  0  0  0  0
   17.9134   30.4909  -18.6225 H   0  0  0  0  0  0  0  0  0  0  0  0
   17.3191   30.0360  -20.0739 H   0  0  0  0  0  0  0  0  0  0  0  0
  1  2  2  0  0  0  0
  1  3  1  0  0  0  0
  1  4  1  0  0  0  0
  3  5  1  0  0  0  0
  3  6  1  0  0  0  0
  3  7  1  0  0  0  0
  4  8  1  0  0  0  0
  4  9  1  0  0  0  0
  4 10  1  0  0  0  0
M  END
$$$$
5N1E_DMS_A_404
prProtoss 08172316053D 1   1.00000     0.00000     0
Protoss beta proteinsplus
 10  9  0  0  0  0            999 V2000
   -7.6090    0.7720  -34.7620 S   0  0  0  0  0  0  0  0  0  0  0  0
   -8.0990    2.1670  -34.4130 O   0  0  0  0  0  0  0  0  0  0  0  0
   -6.4790    0.8870  -36.1740 C   0  0  0  0  0  0  0  0  0  0  0  0
   -6.4800    0.2030  -33.4510 C   0  0  0  0  0  0  0  0  0  0  0  0
   -6.1498   -0.0266  -36.4128 H   0  0  0  0  0  0  0  0  0  0  0  0
   -6.9614    1.2823  -36.9557 H   0  0  0  0  0  0  0  0  0  0  0  0
   -5.7022    1.4687  -35.9328 H   0  0  0  0  0  0  0  0  0  0  0  0
   -6.1506   -0.7154  -33.6702 H   0  0  0  0  0  0  0  0  0  0  0  0
   -5.7029    0.8290  -33.3854 H   0  0  0  0  0  0  0  0  0  0  0  0
   -6.9666    0.1830  -32.5776 H   0  0  0  0  0  0  0  0  0  0  0  0
  1  2  2  0  0  0  0
  1  3  1  0  0  0  0
  1  4  1  0  0  0  0
  3  5  1  0  0  0  0
  3  6  1  0  0  0  0
  3  7  1  0  0  0  0
  4  8  1  0  0  0  0
  4  9  1  0  0  0  0
  4 10  1  0  0  0  0
M  END
$$$$
3ZO1_SIJ_A_1351
prProtoss 05262315483D 1   1.00000     0.00000     0
Protoss beta proteinsplus
 41 44  0  0  0  0            999 V2000
  -33.4770  -10.0450   -4.2810 N   0  0  0  0  0  0  0  0  0  0  0  0
  -33.4020  -10.1150   -1.8520 N   0  0  0  0  0  0  0  0  0  0  0  0
  -31.3390  -10.1800   -5.3810 N   0  0  0  0  0  0  0  0  0  0  0  0
  -31.1970  -10.3640   -1.5410 N   0  0  0  0  0  0  0  0  0  0  0  0
  -26.1230   -7.6110   -4.2100 N   0  3  0  0  0  0  0  0  0  0  0  0
  -29.3670  -10.4550   -4.2170 N   0  0  0  0  0  0  0  0  0  0  0  0
  -32.6710  -10.0780   -5.3450 C   0  0  0  0  0  0  0  0  0  0  0  0
  -32.3810  -10.2550   -0.9710 C   0  0  0  0  0  0  0  0  0  0  0  0
  -25.0080   -7.3980   -3.2730 C   0  0  0  0  0  0  0  0  0  0  0  0
  -28.4850  -10.4360   -3.0410 C   0  0  0  0  0  0  0  0  0  0  0  0
  -28.6120  -10.2670   -5.4650 C   0  0  0  0  0  0  0  0  0  0  0  0
  -23.9120   -8.4190   -3.4770 C   0  0  0  0  0  0  0  0  0  0  0  0
  -24.4450   -9.8430   -3.3920 C   0  0  0  0  0  0  0  0  0  0  0  0
  -27.6170   -9.1900   -2.9510 C   0  0  0  0  0  0  0  0  0  0  0  0
  -27.7000   -9.0460   -5.4020 C   0  0  0  0  0  0  0  0  0  0  0  0
  -25.6220  -10.0610   -4.3490 C   0  0  0  0  0  0  0  0  0  0  0  0
  -32.8440  -10.1360   -3.0970 C   0  0  0  0  0  0  0  0  0  0  0  0
  -30.7730  -10.2910   -4.1550 C   0  0  0  0  0  0  0  0  0  0  0  0
  -31.4760  -10.2820   -2.8980 C   0  0  0  0  0  0  0  0  0  0  0  0
  -26.7390   -9.0050   -4.2000 C   0  0  0  0  0  0  0  0  0  0  0  0
  -25.7861   -7.4308   -5.1341 H   0  0  0  0  0  0  0  0  0  0  0  0
  -33.1249  -10.0184   -6.2341 H   0  0  0  0  0  0  0  0  0  0  0  0
  -32.5137  -10.2739    0.0200 H   0  0  0  0  0  0  0  0  0  0  0  0
  -25.3514   -7.4722   -2.3367 H   0  0  0  0  0  0  0  0  0  0  0  0
  -24.6313   -6.4831   -3.4184 H   0  0  0  0  0  0  0  0  0  0  0  0
  -27.8864  -11.2360   -3.0818 H   0  0  0  0  0  0  0  0  0  0  0  0
  -29.0526  -10.4859   -2.2192 H   0  0  0  0  0  0  0  0  0  0  0  0
  -29.2584  -10.1487   -6.2188 H   0  0  0  0  0  0  0  0  0  0  0  0
  -28.0529  -11.0796   -5.6297 H   0  0  0  0  0  0  0  0  0  0  0  0
  -23.2149   -8.2913   -2.7715 H   0  0  0  0  0  0  0  0  0  0  0  0
  -23.5030   -8.2795   -4.3788 H   0  0  0  0  0  0  0  0  0  0  0  0
  -24.7500  -10.0204   -2.4563 H   0  0  0  0  0  0  0  0  0  0  0  0
  -23.7110  -10.4793   -3.6296 H   0  0  0  0  0  0  0  0  0  0  0  0
  -27.0247   -9.2669   -2.1490 H   0  0  0  0  0  0  0  0  0  0  0  0
  -28.2097   -8.3906   -2.8522 H   0  0  0  0  0  0  0  0  0  0  0  0
  -28.2775   -8.2305   -5.3640 H   0  0  0  0  0  0  0  0  0  0  0  0
  -27.1509   -9.0269   -6.2375 H   0  0  0  0  0  0  0  0  0  0  0  0
  -26.0133  -10.9635   -4.1694 H   0  0  0  0  0  0  0  0  0  0  0  0
  -25.2777  -10.0277   -5.2873 H   0  0  0  0  0  0  0  0  0  0  0  0
  -34.3726  -10.0159   -1.6326 H   0  0  0  0  0  0  0  0  0  0  0  0
  -26.8434   -6.9553   -3.9841 H   0  0  0  0  0  0  0  0  0  0  0  0
  1  7  2  0  0  0  0
  1 17  1  0  0  0  0
  2  8  1  0  0  0  0
  2 17  1  0  0  0  0
  3  7  1  0  0  0  0
  3 18  2  0  0  0  0
  4  8  2  0  0  0  0
  4 19  1  0  0  0  0
  5  9  1  0  0  0  0
  5 20  1  0  0  0  0
  6 10  1  0  0  0  0
  6 11  1  0  0  0  0
  6 18  1  0  0  0  0
  9 12  1  0  0  0  0
 10 14  1  0  0  0  0
 11 15  1  0  0  0  0
 12 13  1  0  0  0  0
 13 16  1  0  0  0  0
 14 20  1  0  0  0  0
 15 20  1  0  0  0  0
 16 20  1  0  0  0  0
 17 19  2  0  0  0  0
 18 19  1  0  0  0  0
  2 40  1  0  0  0  0
  5 21  1  0  0  0  0
  7 22  1  0  0  0  0
  8 23  1  0  0  0  0
  9 24  1  0  0  0  0
  9 25  1  0  0  0  0
 10 26  1  0  0  0  0
 10 27  1  0  0  0  0
 11 28  1  0  0  0  0
 11 29  1  0  0  0  0
 12 30  1  0  0  0  0
 12 31  1  0  0  0  0
 13 32  1  0  0  0  0
 13 33  1  0  0  0  0
 14 34  1  0  0  0  0
 14 35  1  0  0  0  0
 15 36  1  0  0  0  0
 15 37  1  0  0  0  0
 16 38  1  0  0  0  0
 16 39  1  0  0  0  0
  5 41  1  0  0  0  0
M  CHG  1   5   1
M  END
$$$$
3ZO1_GOL_A_1352
prProtoss 05262315483D 1   1.00000     0.00000     0
Protoss beta proteinsplus
 14 13  0  0  0  0            999 V2000
   -9.8010   -6.0400   19.1090 O   0  0  0  0  0  0  0  0  0  0  0  0
   -8.1570   -2.0550   18.2150 O   0  0  0  0  0  0  0  0  0  0  0  0
  -11.3160   -3.7890   18.7020 O   0  0  0  0  0  0  0  0  0  0  0  0
   -9.2410   -4.9370   18.3920 C   0  0  0  0  0  0  0  0  0  0  0  0
   -9.4920   -2.4520   17.9420 C   0  0  0  0  0  0  0  0  0  0  0  0
   -9.9030   -3.6360   18.7850 C   0  0  0  0  0  0  0  0  0  0  0  0
   -9.3452   -6.8851   18.8296 H   0  0  0  0  0  0  0  0  0  0  0  0
   -7.9184   -1.2713   17.6415 H   0  0  0  0  0  0  0  0  0  0  0  0
  -11.6095   -4.5166   19.3220 H   0  0  0  0  0  0  0  0  0  0  0  0
   -9.3707   -5.0857   17.4117 H   0  0  0  0  0  0  0  0  0  0  0  0
   -8.2633   -4.8794   18.5940 H   0  0  0  0  0  0  0  0  0  0  0  0
   -9.5658   -2.7000   16.9761 H   0  0  0  0  0  0  0  0  0  0  0  0
  -10.1047   -1.6862   18.1372 H   0  0  0  0  0  0  0  0  0  0  0  0
   -9.6655   -3.4396   19.7363 H   0  0  0  0  0  0  0  0  0  0  0  0
  1  4  1  0  0  0  0
  2  5  1  0  0  0  0
  3  6  1  0  0  0  0
  4  6  1  0  0  0  0
  5  6  1  0  0  0  0
  1  7  1  0  0  0  0
  2  8  1  0  0  0  0
  3  9  1  0  0  0  0
  4 10  1  0  0  0  0
  4 11  1  0  0  0  0
  5 12  1  0  0  0  0
  5 13  1  0  0  0  0
  6 14  1  0  0  0  0
M  END
$$$$
3ZO1_GOL_A_1353
prProtoss 05262315483D 1   1.00000     0.00000     0
Protoss beta proteinsplus
 14 13  0  0  0  0            999 V2000
  -38.8440    8.2120    9.6710 O   0  0  0  0  0  0  0  0  0  0  0  0
  -43.1990    9.1300    9.6560 O   0  0  0  0  0  0  0  0  0  0  0  0
  -40.8650   10.0350    9.3690 O   0  0  0  0  0  0  0  0  0  0  0  0
  -40.1460    7.7260    9.3510 C   0  0  0  0  0  0  0  0  0  0  0  0
  -42.4590    8.3620    8.7130 C   0  0  0  0  0  0  0  0  0  0  0  0
  -41.0070    8.7810    8.6920 C   0  0  0  0  0  0  0  0  0  0  0  0
  -38.3129    7.4830   10.1029 H   0  0  0  0  0  0  0  0  0  0  0  0
  -43.1792    8.6743   10.5459 H   0  0  0  0  0  0  0  0  0  0  0  0
  -41.7549   10.3275    9.7190 H   0  0  0  0  0  0  0  0  0  0  0  0
  -40.5934    7.4262   10.1936 H   0  0  0  0  0  0  0  0  0  0  0  0
  -40.0551    6.9496    8.7274 H   0  0  0  0  0  0  0  0  0  0  0  0
  -42.8510    8.4959    7.8029 H   0  0  0  0  0  0  0  0  0  0  0  0
  -42.5166    7.3952    8.9618 H   0  0  0  0  0  0  0  0  0  0  0  0
  -40.7150    8.8907    7.7419 H   0  0  0  0  0  0  0  0  0  0  0  0
  1  4  1  0  0  0  0
  2  5  1  0  0  0  0
  3  6  1  0  0  0  0
  4  6  1  0  0  0  0
  5  6  1  0  0  0  0
  1  7  1  0  0  0  0
  2  8  1  0  0  0  0
  3  9  1  0  0  0  0
  4 10  1  0  0  0  0
  4 11  1  0  0  0  0
  5 12  1  0  0  0  0
  5 13  1  0  0  0  0
  6 14  1  0  0  0  0
M  END
$$$$
3ZO1_GOL_A_1354
prProtoss 05262315483D 1   1.00000     0.00000     0
Protoss beta proteinsplus
 14 13  0  0  0  0            999 V2000
  -21.9790   25.2340   -3.1070 O   0  0  0  0  0  0  0  0  0  0  0  0
  -18.3650   25.7840   -5.7160 O   0  0  0  0  0  0  0  0  0  0  0  0
  -21.2060   26.9920   -5.8460 O   0  0  0  0  0  0  0  0  0  0  0  0
  -21.2850   26.4130   -3.5080 C   0  0  0  0  0  0  0  0  0  0  0  0
  -19.1040   26.5420   -4.7630 C   0  0  0  0  0  0  0  0  0  0  0  0
  -20.5770   26.2090   -4.8280 C   0  0  0  0  0  0  0  0  0  0  0  0
  -22.6593   24.9956   -3.8001 H   0  0  0  0  0  0  0  0  0  0  0  0
  -17.5655   26.3075   -6.0106 H   0  0  0  0  0  0  0  0  0  0  0  0
  -22.1781   27.0944   -5.6349 H   0  0  0  0  0  0  0  0  0  0  0  0
  -20.6098   26.6477   -2.8087 H   0  0  0  0  0  0  0  0  0  0  0  0
  -21.9413   27.1616   -3.6023 H   0  0  0  0  0  0  0  0  0  0  0  0
  -18.9805   27.5159   -4.9535 H   0  0  0  0  0  0  0  0  0  0  0  0
  -18.7626   26.3358   -3.8460 H   0  0  0  0  0  0  0  0  0  0  0  0
  -20.6652   25.2454   -5.0804 H   0  0  0  0  0  0  0  0  0  0  0  0
  1  4  1  0  0  0  0
  2  5  1  0  0  0  0
  3  6  1  0  0  0  0
  4  6  1  0  0  0  0
  5  6  1  0  0  0  0
  1  7  1  0  0  0  0
  2  8  1  0  0  0  0
  3  9  1  0  0  0  0
  4 10  1  0  0  0  0
  4 11  1  0  0  0  0
  5 12  1  0  0  0  0
  5 13  1  0  0  0  0
  6 14  1  0  0  0  0
M  END
$$$$
3ZO1_GOL_A_1355
prProtoss 05262315483D 1   1.00000     0.00000     0
Protoss beta proteinsplus
 14 13  0  0  0  0            999 V2000
  -29.5680   -1.7560  -16.9120 O   0  0  0  0  0  0  0  0  0  0  0  0
  -27.7540   -6.0550  -16.3220 O   0  0  0  0  0  0  0  0  0  0  0  0
  -30.3600   -4.1280  -17.4090 O   0  0  0  0  0  0  0  0  0  0  0  0
  -28.5810   -2.7220  -16.5790 C   0  0  0  0  0  0  0  0  0  0  0  0
  -28.7250   -5.0900  -15.9400 C   0  0  0  0  0  0  0  0  0  0  0  0
  -28.9720   -4.1020  -17.0560 C   0  0  0  0  0  0  0  0  0  0  0  0
  -30.4361   -2.0047  -16.4825 H   0  0  0  0  0  0  0  0  0  0  0  0
  -27.6076   -6.6966  -15.5691 H   0  0  0  0  0  0  0  0  0  0  0  0
  -30.6070   -5.0448  -17.7227 H   0  0  0  0  0  0  0  0  0  0  0  0
  -28.4679   -2.7417  -15.5856 H   0  0  0  0  0  0  0  0  0  0  0  0
  -27.7155   -2.4632  -17.0079 H   0  0  0  0  0  0  0  0  0  0  0  0
  -28.3976   -4.5977  -15.1335 H   0  0  0  0  0  0  0  0  0  0  0  0
  -29.5817   -5.5568  -15.7205 H   0  0  0  0  0  0  0  0  0  0  0  0
  -28.4194   -4.3504  -17.8516 H   0  0  0  0  0  0  0  0  0  0  0  0
  1  4  1  0  0  0  0
  2  5  1  0  0  0  0
  3  6  1  0  0  0  0
  4  6  1  0  0  0  0
  5  6  1  0  0  0  0
  1  7  1  0  0  0  0
  2  8  1  0  0  0  0
  3  9  1  0  0  0  0
  4 10  1  0  0  0  0
  4 11  1  0  0  0  0
  5 12  1  0  0  0  0
  5 13  1  0  0  0  0
  6 14  1  0  0  0  0
M  END
$$$$
3ZO1_MOH_A_1356
prProtoss 05262315483D 1   1.00000     0.00000     0
Protoss beta proteinsplus
  6  5  0  0  0  0            999 V2000
  -44.9960  -19.5560   -9.5060 O   0  0  0  0  0  0  0  0  0  0  0  0
  -44.9020  -18.5850  -10.5300 C   0  0  0  0  0  0  0  0  0  0  0  0
  -44.5478  -19.2139   -8.6801 H   0  0  0  0  0  0  0  0  0  0  0  0
  -43.9391  -18.3993  -10.7259 H   0  0  0  0  0  0  0  0  0  0  0  0
  -45.3502  -18.9271  -11.3559 H   0  0  0  0  0  0  0  0  0  0  0  0
  -45.3502  -17.7421  -10.2323 H   0  0  0  0  0  0  0  0  0  0  0  0
  1  2  1  0  0  0  0
  1  3  1  0  0  0  0
  2  4  1  0  0  0  0
  2  5  1  0  0  0  0
  2  6  1  0  0  0  0
M  END
$$$$
3ZO1_MOH_A_1357
prProtoss 05262315483D 1   1.00000     0.00000     0
Protoss beta proteinsplus
  6  5  0  0  0  0            999 V2000
  -15.4790  -18.5250   18.3760 O   0  0  0  0  0  0  0  0  0  0  0  0
  -14.6720  -17.3900   18.2040 C   0  0  0  0  0  0  0  0  0  0  0  0
  -15.7377  -18.8888   17.4812 H   0  0  0  0  0  0  0  0  0  0  0  0
  -14.4133  -17.0262   19.0988 H   0  0  0  0  0  0  0  0  0  0  0  0
  -13.8483  -17.6406   17.6953 H   0  0  0  0  0  0  0  0  0  0  0  0
  -15.1792  -16.6943   17.6953 H   0  0  0  0  0  0  0  0  0  0  0  0
  1  2  1  0  0  0  0
  1  3  1  0  0  0  0
  2  4  1  0  0  0  0
  2  5  1  0  0  0  0
  2  6  1  0  0  0  0
M  END
$$$$
3ZO2_15I_A_1351
prProtoss 05262315593D 1   1.00000     0.00000     0
Protoss beta proteinsplus
 41 44  0  0  0  0            999 V2000
  -25.2100   -7.1220   -2.7200 N   0  3  0  0  0  0  0  0  0  0  0  0
  -33.3930   -9.8590   -4.2450 N   0  0  0  0  0  0  0  0  0  0  0  0
  -33.4480   -9.8690   -1.8130 N   0  0  0  0  0  0  0  0  0  0  0  0
  -31.2060  -10.1350   -5.2110 N   0  0  0  0  0  0  0  0  0  0  0  0
  -31.2570  -10.0290   -1.3780 N   0  0  0  0  0  0  0  0  0  0  0  0
  -29.2990  -10.3130   -3.9500 N   0  0  0  0  0  0  0  0  0  0  0  0
  -32.5330   -9.9900   -5.2580 C   0  0  0  0  0  0  0  0  0  0  0  0
  -32.4760   -9.9690   -0.8780 C   0  0  0  0  0  0  0  0  0  0  0  0
  -24.0180   -7.9840   -2.7520 C   0  0  0  0  0  0  0  0  0  0  0  0
  -28.4660  -10.3680   -2.7450 C   0  0  0  0  0  0  0  0  0  0  0  0
  -28.4810  -10.2190   -5.1660 C   0  0  0  0  0  0  0  0  0  0  0  0
  -26.2030   -7.3710   -3.8200 C   0  0  0  0  0  0  0  0  0  0  0  0
  -24.4610   -9.4890   -2.7830 C   0  0  0  0  0  0  0  0  0  0  0  0
  -27.6480   -9.0870   -2.6500 C   0  0  0  0  0  0  0  0  0  0  0  0
  -27.5390   -9.0240   -5.1580 C   0  0  0  0  0  0  0  0  0  0  0  0
  -25.4950   -9.8020   -3.8690 C   0  0  0  0  0  0  0  0  0  0  0  0
  -32.8200   -9.8900   -3.0260 C   0  0  0  0  0  0  0  0  0  0  0  0
  -30.7050  -10.1290   -3.9540 C   0  0  0  0  0  0  0  0  0  0  0  0
  -31.4650  -10.0040   -2.7500 C   0  0  0  0  0  0  0  0  0  0  0  0
  -26.7180   -8.8590   -3.8620 C   0  0  0  0  0  0  0  0  0  0  0  0
  -24.9071   -6.1712   -2.7848 H   0  0  0  0  0  0  0  0  0  0  0  0
  -32.9358   -9.9780   -6.1732 H   0  0  0  0  0  0  0  0  0  0  0  0
  -32.6645   -9.9951    0.1037 H   0  0  0  0  0  0  0  0  0  0  0  0
  -23.4636   -7.8165   -1.9368 H   0  0  0  0  0  0  0  0  0  0  0  0
  -23.4797   -7.7781   -3.5692 H   0  0  0  0  0  0  0  0  0  0  0  0
  -27.8516  -11.1552   -2.7976 H   0  0  0  0  0  0  0  0  0  0  0  0
  -29.0495  -10.4540   -1.9375 H   0  0  0  0  0  0  0  0  0  0  0  0
  -29.0906  -10.1390   -5.9547 H   0  0  0  0  0  0  0  0  0  0  0  0
  -27.9364  -11.0535   -5.2490 H   0  0  0  0  0  0  0  0  0  0  0  0
  -25.7680   -7.1599   -4.6953 H   0  0  0  0  0  0  0  0  0  0  0  0
  -26.9877   -6.7663   -3.6834 H   0  0  0  0  0  0  0  0  0  0  0  0
  -24.8563   -9.7205   -1.8941 H   0  0  0  0  0  0  0  0  0  0  0  0
  -23.6516  -10.0535   -2.9451 H   0  0  0  0  0  0  0  0  0  0  0  0
  -27.0864   -9.1306   -1.8238 H   0  0  0  0  0  0  0  0  0  0  0  0
  -28.2780   -8.3132   -2.5844 H   0  0  0  0  0  0  0  0  0  0  0  0
  -28.0847   -8.1963   -5.2885 H   0  0  0  0  0  0  0  0  0  0  0  0
  -26.9002   -9.1258   -5.9206 H   0  0  0  0  0  0  0  0  0  0  0  0
  -25.8191  -10.7384   -3.7342 H   0  0  0  0  0  0  0  0  0  0  0  0
  -25.0470   -9.7294   -4.7601 H   0  0  0  0  0  0  0  0  0  0  0  0
  -25.6733   -7.2654   -1.8455 H   0  0  0  0  0  0  0  0  0  0  0  0
  -34.4316   -9.7944   -1.6489 H   0  0  0  0  0  0  0  0  0  0  0  0
  1  9  1  0  0  0  0
  1 12  1  0  0  0  0
  2  7  2  0  0  0  0
  2 17  1  0  0  0  0
  3  8  1  0  0  0  0
  3 17  1  0  0  0  0
  4  7  1  0  0  0  0
  4 18  2  0  0  0  0
  5  8  2  0  0  0  0
  5 19  1  0  0  0  0
  6 10  1  0  0  0  0
  6 11  1  0  0  0  0
  6 18  1  0  0  0  0
  9 13  1  0  0  0  0
 10 14  1  0  0  0  0
 11 15  1  0  0  0  0
 12 20  1  0  0  0  0
 13 16  1  0  0  0  0
 14 20  1  0  0  0  0
 15 20  1  0  0  0  0
 16 20  1  0  0  0  0
 17 19  2  0  0  0  0
 18 19  1  0  0  0  0
  1 21  1  0  0  0  0
  3 41  1  0  0  0  0
  7 22  1  0  0  0  0
  8 23  1  0  0  0  0
  9 24  1  0  0  0  0
  9 25  1  0  0  0  0
 10 26  1  0  0  0  0
 10 27  1  0  0  0  0
 11 28  1  0  0  0  0
 11 29  1  0  0  0  0
 12 30  1  0  0  0  0
 12 31  1  0  0  0  0
 13 32  1  0  0  0  0
 13 33  1  0  0  0  0
 14 34  1  0  0  0  0
 14 35  1  0  0  0  0
 15 36  1  0  0  0  0
 15 37  1  0  0  0  0
 16 38  1  0  0  0  0
 16 39  1  0  0  0  0
  1 40  1  0  0  0  0
M  CHG  1   1   1
M  END
$$$$
3ZO2_GOL_A_1352
prProtoss 05262315593D 1   1.00000     0.00000     0
Protoss beta proteinsplus
 14 13  0  0  0  0            999 V2000
  -38.1270    8.9530    9.3690 O   0  0  0  0  0  0  0  0  0  0  0  0
  -42.7890    8.9020    8.4580 O   0  0  0  0  0  0  0  0  0  0  0  0
  -40.3710   10.1140    8.6070 O   0  0  0  0  0  0  0  0  0  0  0  0
  -39.2900    8.1400    9.4560 C   0  0  0  0  0  0  0  0  0  0  0  0
  -41.7360    8.2170    9.1140 C   0  0  0  0  0  0  0  0  0  0  0  0
  -40.4000    8.6840    8.5870 C   0  0  0  0  0  0  0  0  0  0  0  0
  -37.4095    8.5719    9.9520 H   0  0  0  0  0  0  0  0  0  0  0  0
  -43.6671    8.5841    8.8155 H   0  0  0  0  0  0  0  0  0  0  0  0
  -39.6218   10.4241    9.1923 H   0  0  0  0  0  0  0  0  0  0  0  0
  -39.6011    8.1156   10.4061 H   0  0  0  0  0  0  0  0  0  0  0  0
  -39.0641    7.2134    9.1553 H   0  0  0  0  0  0  0  0  0  0  0  0
  -41.8297    7.2347    8.9518 H   0  0  0  0  0  0  0  0  0  0  0  0
  -41.7853    8.3989   10.0961 H   0  0  0  0  0  0  0  0  0  0  0  0
  -40.2791    8.3603    7.6486 H   0  0  0  0  0  0  0  0  0  0  0  0
  1  4  1  0  0  0  0
  2  5  1  0  0  0  0
  3  6  1  0  0  0  0
  4  6  1  0  0  0  0
  5  6  1  0  0  0  0
  1  7  1  0  0  0  0
  2  8  1  0  0  0  0
  3  9  1  0  0  0  0
  4 10  1  0  0  0  0
  4 11  1  0  0  0  0
  5 12  1  0  0  0  0
  5 13  1  0  0  0  0
  6 14  1  0  0  0  0
M  END
$$$$
3ZO2_GOL_A_1353
prProtoss 05262315593D 1   1.00000     0.00000     0
Protoss beta proteinsplus
 14 13  0  0  0  0            999 V2000
  -47.7550    7.6800    7.6360 O   0  0  0  0  0  0  0  0  0  0  0  0
  -46.0790    9.8960   11.1080 O   0  0  0  0  0  0  0  0  0  0  0  0
  -45.1460    7.9860    9.3120 O   0  0  0  0  0  0  0  0  0  0  0  0
  -47.4920    8.3230    8.8790 C   0  0  0  0  0  0  0  0  0  0  0  0
  -46.0220   10.1970    9.7190 C   0  0  0  0  0  0  0  0  0  0  0  0
  -46.1140    8.9440    8.8770 C   0  0  0  0  0  0  0  0  0  0  0  0
  -46.9636    7.7830    7.0334 H   0  0  0  0  0  0  0  0  0  0  0  0
  -46.0159   10.7432   11.6355 H   0  0  0  0  0  0  0  0  0  0  0  0
  -45.0448    8.0418   10.3053 H   0  0  0  0  0  0  0  0  0  0  0  0
  -47.5474    7.6490    9.6156 H   0  0  0  0  0  0  0  0  0  0  0  0
  -48.1744    9.0383    9.0296 H   0  0  0  0  0  0  0  0  0  0  0  0
  -45.1571   10.6585    9.5216 H   0  0  0  0  0  0  0  0  0  0  0  0
  -46.7834   10.8019    9.4859 H   0  0  0  0  0  0  0  0  0  0  0  0
  -45.8935    9.1935    7.9341 H   0  0  0  0  0  0  0  0  0  0  0  0
  1  4  1  0  0  0  0
  2  5  1  0  0  0  0
  3  6  1  0  0  0  0
  4  6  1  0  0  0  0
  5  6  1  0  0  0  0
  1  7  1  0  0  0  0
  2  8  1  0  0  0  0
  3  9  1  0  0  0  0
  4 10  1  0  0  0  0
  4 11  1  0  0  0  0
  5 12  1  0  0  0  0
  5 13  1  0  0  0  0
  6 14  1  0  0  0  0
M  END
$$$$
3ZO2_MPD_A_1354
prProtoss 05262315593D 1   1.00000     0.00000     0
Protoss beta proteinsplus
 22 21  0  0  0  0            999 V2000
  -26.4480   -5.0780  -16.5740 O   0  0  0  0  0  0  0  0  0  0  0  0
  -28.3950   -2.9410  -16.5700 O   0  0  0  0  0  0  0  0  0  0  0  0
  -27.3170   -7.1140  -15.6410 C   0  0  0  0  0  0  0  0  0  0  0  0
  -30.6710   -3.6410  -16.7480 C   0  0  0  0  0  0  0  0  0  0  0  0
  -29.0440   -4.0020  -18.6170 C   0  0  0  0  0  0  0  0  0  0  0  0
  -28.9230   -5.3630  -16.4280 C   0  0  0  0  0  0  0  0  0  0  0  0
  -27.5300   -6.0150  -16.6520 C   0  0  1  0  0  0  0  0  0  0  0  0
  -29.2320   -3.9850  -17.1020 C   0  0  0  0  0  0  0  0  0  0  0  0
  -26.8065   -4.1733  -16.3439 H   0  0  0  0  0  0  0  0  0  0  0  0
  -28.5096   -2.8950  -15.5777 H   0  0  0  0  0  0  0  0  0  0  0  0
  -28.0718   -7.7677  -15.6953 H   0  0  0  0  0  0  0  0  0  0  0  0
  -26.4553   -7.5829  -15.8349 H   0  0  0  0  0  0  0  0  0  0  0  0
  -27.2827   -6.7200  -14.7225 H   0  0  0  0  0  0  0  0  0  0  0  0
  -31.2804   -4.3492  -17.1045 H   0  0  0  0  0  0  0  0  0  0  0  0
  -30.7664   -3.5887  -15.7539 H   0  0  0  0  0  0  0  0  0  0  0  0
  -30.9121   -2.7590  -17.1528 H   0  0  0  0  0  0  0  0  0  0  0  0
  -29.6150   -4.7197  -19.0157 H   0  0  0  0  0  0  0  0  0  0  0  0
  -29.3099   -3.1155  -18.9958 H   0  0  0  0  0  0  0  0  0  0  0  0
  -28.0841   -4.1819  -18.8318 H   0  0  0  0  0  0  0  0  0  0  0  0
  -29.0332   -5.2383  -15.4419 H   0  0  0  0  0  0  0  0  0  0  0  0
  -29.6073   -6.0120  -16.7605 H   0  0  0  0  0  0  0  0  0  0  0  0
  -27.5214   -6.4251  -17.5640 H   0  0  0  0  0  0  0  0  0  0  0  0
  1  7  1  0  0  0  0
  2  8  1  0  0  0  0
  3  7  1  0  0  0  0
  4  8  1  0  0  0  0
  5  8  1  0  0  0  0
  6  7  1  0  0  0  0
  6  8  1  0  0  0  0
  1  9  1  0  0  0  0
  2 10  1  0  0  0  0
  3 11  1  0  0  0  0
  3 12  1  0  0  0  0
  3 13  1  0  0  0  0
  4 14  1  0  0  0  0
  4 15  1  0  0  0  0
  4 16  1  0  0  0  0
  5 17  1  0  0  0  0
  5 18  1  0  0  0  0
  5 19  1  0  0  0  0
  6 20  1  0  0  0  0
  6 21  1  0  0  0  0
  7 22  1  0  0  0  0
M  END
$$$$
3ZO3_QNI_A_1351
prProtoss 05262315413D 1   1.00000     0.00000     0
Protoss beta proteinsplus
 41 44  0  0  0  0            999 V2000
  -25.7450   -7.0540   -2.4730 N   0  3  0  0  0  0  0  0  0  0  0  0
  -33.3190   -9.9830   -4.3350 N   0  0  0  0  0  0  0  0  0  0  0  0
  -33.0700   -9.9420   -1.9180 N   0  0  0  0  0  0  0  0  0  0  0  0
  -31.2790  -10.3380   -5.5720 N   0  0  0  0  0  0  0  0  0  0  0  0
  -30.8560  -10.2460   -1.7590 N   0  0  0  0  0  0  0  0  0  0  0  0
  -29.2430  -10.5390   -4.5210 N   0  0  0  0  0  0  0  0  0  0  0  0
  -32.5990  -10.1620   -5.4480 C   0  0  0  0  0  0  0  0  0  0  0  0
  -31.9910  -10.0900   -1.1100 C   0  0  0  0  0  0  0  0  0  0  0  0
  -25.0910   -8.3670   -2.6330 C   0  0  0  0  0  0  0  0  0  0  0  0
  -26.8570   -6.8590   -3.4500 C   0  0  0  0  0  0  0  0  0  0  0  0
  -28.6230  -10.7550   -5.8320 C   0  0  0  0  0  0  0  0  0  0  0  0
  -27.5710   -9.7020   -6.1510 C   0  0  0  0  0  0  0  0  0  0  0  0
  -28.2290  -10.4870   -3.3840 C   0  0  0  0  0  0  0  0  0  0  0  0
  -26.0810   -9.5090   -2.5430 C   0  0  0  0  0  0  0  0  0  0  0  0
  -27.8430   -8.0060   -3.4990 C   0  0  0  0  0  0  0  0  0  0  0  0
  -26.5470   -9.6110   -5.0130 C   0  0  0  0  0  0  0  0  0  0  0  0
  -32.5980  -10.0080   -3.2000 C   0  0  0  0  0  0  0  0  0  0  0  0
  -30.6240  -10.3420   -4.3880 C   0  0  0  0  0  0  0  0  0  0  0  0
  -31.2270  -10.1910   -3.0900 C   0  0  0  0  0  0  0  0  0  0  0  0
  -27.1800   -9.3940   -3.6170 C   0  0  0  0  0  0  0  0  0  0  0  0
  -25.0638   -6.3352   -2.6118 H   0  0  0  0  0  0  0  0  0  0  0  0
  -33.1178  -10.1646   -6.3029 H   0  0  0  0  0  0  0  0  0  0  0  0
  -32.0518  -10.0814   -0.1119 H   0  0  0  0  0  0  0  0  0  0  0  0
  -24.4059   -8.4762   -1.9128 H   0  0  0  0  0  0  0  0  0  0  0  0
  -24.6431   -8.3978   -3.5266 H   0  0  0  0  0  0  0  0  0  0  0  0
  -26.4592   -6.7474   -4.3607 H   0  0  0  0  0  0  0  0  0  0  0  0
  -27.3537   -6.0281   -3.1991 H   0  0  0  0  0  0  0  0  0  0  0  0
  -29.3344  -10.7225   -6.5340 H   0  0  0  0  0  0  0  0  0  0  0  0
  -28.1892  -11.6560   -5.8386 H   0  0  0  0  0  0  0  0  0  0  0  0
  -28.0169   -8.8142   -6.2653 H   0  0  0  0  0  0  0  0  0  0  0  0
  -27.1015   -9.9508   -6.9982 H   0  0  0  0  0  0  0  0  0  0  0  0
  -27.7676  -11.3718   -3.3193 H   0  0  0  0  0  0  0  0  0  0  0  0
  -28.7101  -10.2985   -2.5278 H   0  0  0  0  0  0  0  0  0  0  0  0
  -26.5084   -9.4973   -1.6390 H   0  0  0  0  0  0  0  0  0  0  0  0
  -25.5927  -10.3724   -2.6697 H   0  0  0  0  0  0  0  0  0  0  0  0
  -28.4407   -7.8741   -4.2898 H   0  0  0  0  0  0  0  0  0  0  0  0
  -28.3892   -7.9879   -2.6616 H   0  0  0  0  0  0  0  0  0  0  0  0
  -25.9324   -8.8453   -5.2027 H   0  0  0  0  0  0  0  0  0  0  0  0
  -26.0226  -10.4622   -4.9923 H   0  0  0  0  0  0  0  0  0  0  0  0
  -26.1146   -6.9885   -1.5461 H   0  0  0  0  0  0  0  0  0  0  0  0
  -34.0197   -9.8110   -1.6337 H   0  0  0  0  0  0  0  0  0  0  0  0
  1  9  1  0  0  0  0
  1 10  1  0  0  0  0
  2  7  2  0  0  0  0
  2 17  1  0  0  0  0
  3  8  1  0  0  0  0
  3 17  1  0  0  0  0
  4  7  1  0  0  0  0
  4 18  2  0  0  0  0
  5  8  2  0  0  0  0
  5 19  1  0  0  0  0
  6 11  1  0  0  0  0
  6 13  1  0  0  0  0
  6 18  1  0  0  0  0
  9 14  1  0  0  0  0
 10 15  1  0  0  0  0
 11 12  1  0  0  0  0
 12 16  1  0  0  0  0
 13 20  1  0  0  0  0
 14 20  1  0  0  0  0
 15 20  1  0  0  0  0
 16 20  1  0  0  0  0
 17 19  2  0  0  0  0
 18 19  1  0  0  0  0
  1 21  1  0  0  0  0
  3 41  1  0  0  0  0
  7 22  1  0  0  0  0
  8 23  1  0  0  0  0
  9 24  1  0  0  0  0
  9 25  1  0  0  0  0
 10 26  1  0  0  0  0
 10 27  1  0  0  0  0
 11 28  1  0  0  0  0
 11 29  1  0  0  0  0
 12 30  1  0  0  0  0
 12 31  1  0  0  0  0
 13 32  1  0  0  0  0
 13 33  1  0  0  0  0
 14 34  1  0  0  0  0
 14 35  1  0  0  0  0
 15 36  1  0  0  0  0
 15 37  1  0  0  0  0
 16 38  1  0  0  0  0
 16 39  1  0  0  0  0
  1 40  1  0  0  0  0
M  CHG  1   1   1
M  END
$$$$
3ZO3_MOH_A_1352
prProtoss 05262315413D 1   1.00000     0.00000     0
Protoss beta proteinsplus
  6  5  0  0  0  0            999 V2000
  -43.0620    1.0470    8.0230 O   0  0  0  0  0  0  0  0  0  0  0  0
  -42.1270    1.0970    9.0490 C   0  0  0  0  0  0  0  0  0  0  0  0
  -43.3092    1.9772    7.7517 H   0  0  0  0  0  0  0  0  0  0  0  0
  -41.8798    0.1668    9.3203 H   0  0  0  0  0  0  0  0  0  0  0  0
  -41.3106    1.5801    8.7327 H   0  0  0  0  0  0  0  0  0  0  0  0
  -42.5175    1.5801    9.8326 H   0  0  0  0  0  0  0  0  0  0  0  0
  1  2  1  0  0  0  0
  1  3  1  0  0  0  0
  2  4  1  0  0  0  0
  2  5  1  0  0  0  0
  2  6  1  0  0  0  0
M  END
$$$$
3ZO3_MOH_A_1353
prProtoss 05262315413D 1   1.00000     0.00000     0
Protoss beta proteinsplus
  6  5  0  0  0  0            999 V2000
  -22.4480   -8.4960   18.2660 O   0  0  0  0  0  0  0  0  0  0  0  0
  -22.5550   -7.1200   18.6060 C   0  0  0  0  0  0  0  0  0  0  0  0
  -22.9080   -8.6605   17.3935 H   0  0  0  0  0  0  0  0  0  0  0  0
  -22.5626   -7.0222   19.6012 H   0  0  0  0  0  0  0  0  0  0  0  0
  -21.7748   -6.6216   18.2280 H   0  0  0  0  0  0  0  0  0  0  0  0
  -23.4029   -6.7482   18.2280 H   0  0  0  0  0  0  0  0  0  0  0  0
  1  2  1  0  0  0  0
  1  3  1  0  0  0  0
  2  4  1  0  0  0  0
  2  5  1  0  0  0  0
  2  6  1  0  0  0  0
M  END
$$$$
3ZO3_MOH_A_1354
prProtoss 05262315413D 1   1.00000     0.00000     0
Protoss beta proteinsplus
  6  5  0  0  0  0            999 V2000
  -39.2070    0.6460   23.2450 O   0  0  0  0  0  0  0  0  0  0  0  0
  -38.2380    1.5220   23.7850 C   0  0  0  0  0  0  0  0  0  0  0  0
  -38.8880    0.2989   22.3631 H   0  0  0  0  0  0  0  0  0  0  0  0
  -37.7423    1.9701   23.0410 H   0  0  0  0  0  0  0  0  0  0  0  0
  -38.6906    2.2135   24.3480 H   0  0  0  0  0  0  0  0  0  0  0  0
  -37.5955    1.0021   24.3480 H   0  0  0  0  0  0  0  0  0  0  0  0
  1  2  1  0  0  0  0
  1  3  1  0  0  0  0
  2  4  1  0  0  0  0
  2  5  1  0  0  0  0
  2  6  1  0  0  0  0
M  END
$$$$
3ZO3_MOH_A_1355
prProtoss 05262315413D 1   1.00000     0.00000     0
Protoss beta proteinsplus
  6  5  0  0  0  0            999 V2000
  -38.9590    8.8140   19.3470 O   0  0  0  0  0  0  0  0  0  0  0  0
  -37.8080    9.5350   18.9880 C   0  0  0  0  0  0  0  0  0  0  0  0
  -39.6592    8.9317   18.6428 H   0  0  0  0  0  0  0  0  0  0  0  0
  -37.7391    9.5782   17.9913 H   0  0  0  0  0  0  0  0  0  0  0  0
  -37.8662   10.4620   19.3586 H   0  0  0  0  0  0  0  0  0  0  0  0
  -36.9994    9.0781   19.3586 H   0  0  0  0  0  0  0  0  0  0  0  0
  1  2  1  0  0  0  0
  1  3  1  0  0  0  0
  2  4  1  0  0  0  0
  2  5  1  0  0  0  0
  2  6  1  0  0  0  0
M  END
$$$$
3ZO3_MOH_A_1356
prProtoss 05262315413D 1   1.00000     0.00000     0
Protoss beta proteinsplus
  6  5  0  0  0  0            999 V2000
  -36.9380    6.0600   19.3840 O   0  0  0  0  0  0  0  0  0  0  0  0
  -35.6080    6.4410   19.1740 C   0  0  0  0  0  0  0  0  0  0  0  0
  -37.5145    6.8756   19.4340 H   0  0  0  0  0  0  0  0  0  0  0  0
  -35.4272    6.4928   18.1918 H   0  0  0  0  0  0  0  0  0  0  0  0
  -35.4480    7.3362   19.5900 H   0  0  0  0  0  0  0  0  0  0  0  0
  -34.9983    5.7663   19.5900 H   0  0  0  0  0  0  0  0  0  0  0  0
  1  2  1  0  0  0  0
  1  3  1  0  0  0  0
  2  4  1  0  0  0  0
  2  5  1  0  0  0  0
  2  6  1  0  0  0  0
M  END
$$$$
3ZO3_MOH_A_1357
prProtoss 05262315413D 1   1.00000     0.00000     0
Protoss beta proteinsplus
  6  5  0  0  0  0            999 V2000
  -42.7650    9.7820   21.4610 O   0  0  0  0  0  0  0  0  0  0  0  0
  -41.4550    9.7080   21.9940 C   0  0  0  0  0  0  0  0  0  0  0  0
  -43.4276    9.8194   22.2090 H   0  0  0  0  0  0  0  0  0  0  0  0
  -40.7924    9.6706   21.2460 H   0  0  0  0  0  0  0  0  0  0  0  0
  -41.2778   10.5158   22.5562 H   0  0  0  0  0  0  0  0  0  0  0  0
  -41.3698    8.8854   22.5562 H   0  0  0  0  0  0  0  0  0  0  0  0
  1  2  1  0  0  0  0
  1  3  1  0  0  0  0
  2  4  1  0  0  0  0
  2  5  1  0  0  0  0
  2  6  1  0  0  0  0
M  END
$$$$
3ZO3_GOL_A_1358
prProtoss 05262315413D 1   1.00000     0.00000     0
Protoss beta proteinsplus
 14 13  0  0  0  0            999 V2000
  -27.2420   -6.0460  -16.2250 O   0  0  0  0  0  0  0  0  0  0  0  0
  -31.2190   -4.3480  -17.3270 O   0  0  0  0  0  0  0  0  0  0  0  0
  -28.0310   -3.1580  -16.7330 O   0  0  0  0  0  0  0  0  0  0  0  0
  -28.3600   -5.3250  -15.7170 C   0  0  0  0  0  0  0  0  0  0  0  0
  -30.2840   -3.9030  -16.3530 C   0  0  0  0  0  0  0  0  0  0  0  0
  -28.8770   -4.3160  -16.7200 C   0  0  0  0  0  0  0  0  0  0  0  0
  -27.0327   -5.7282  -17.1498 H   0  0  0  0  0  0  0  0  0  0  0  0
  -31.8862   -4.9553  -16.8956 H   0  0  0  0  0  0  0  0  0  0  0  0
  -27.3035   -3.2842  -17.4074 H   0  0  0  0  0  0  0  0  0  0  0  0
  -28.0843   -4.8433  -14.8852 H   0  0  0  0  0  0  0  0  0  0  0  0
  -29.0917   -5.9715  -15.5009 H   0  0  0  0  0  0  0  0  0  0  0  0
  -30.5207   -4.3017  -15.4670 H   0  0  0  0  0  0  0  0  0  0  0  0
  -30.3261   -2.9058  -16.2917 H   0  0  0  0  0  0  0  0  0  0  0  0
  -28.8824   -4.7299  -17.6303 H   0  0  0  0  0  0  0  0  0  0  0  0
  1  4  1  0  0  0  0
  2  5  1  0  0  0  0
  3  6  1  0  0  0  0
  4  6  1  0  0  0  0
  5  6  1  0  0  0  0
  1  7  1  0  0  0  0
  2  8  1  0  0  0  0
  3  9  1  0  0  0  0
  4 10  1  0  0  0  0
  4 11  1  0  0  0  0
  5 12  1  0  0  0  0
  5 13  1  0  0  0  0
  6 14  1  0  0  0  0
M  END
$$$$
3ZO3_GOL_A_1359
prProtoss 05262315413D 1   1.00000     0.00000     0
Protoss beta proteinsplus
 14 13  0  0  0  0            999 V2000
  -28.5340  -31.2550    7.9970 O   0  0  0  0  0  0  0  0  0  0  0  0
  -30.8100  -29.2430    4.7430 O   0  0  0  0  0  0  0  0  0  0  0  0
  -31.5900  -30.5410    7.8610 O   0  0  0  0  0  0  0  0  0  0  0  0
  -29.5580  -31.5960    7.0560 C   0  0  0  0  0  0  0  0  0  0  0  0
  -31.1420  -30.4440    5.4660 C   0  0  0  0  0  0  0  0  0  0  0  0
  -30.5570  -30.4780    6.8610 C   0  0  0  0  0  0  0  0  0  0  0  0
  -28.9498  -31.0543    8.8840 H   0  0  0  0  0  0  0  0  0  0  0  0
  -29.9216  -28.9030    5.0515 H   0  0  0  0  0  0  0  0  0  0  0  0
  -31.4184  -31.3160    8.4692 H   0  0  0  0  0  0  0  0  0  0  0  0
  -30.0425  -32.4054    7.3879 H   0  0  0  0  0  0  0  0  0  0  0  0
  -29.1299  -31.8013    6.1759 H   0  0  0  0  0  0  0  0  0  0  0  0
  -30.7929  -31.2297    4.9553 H   0  0  0  0  0  0  0  0  0  0  0  0
  -32.1374  -30.5080    5.5367 H   0  0  0  0  0  0  0  0  0  0  0  0
  -30.0668  -29.6170    6.9967 H   0  0  0  0  0  0  0  0  0  0  0  0
  1  4  1  0  0  0  0
  2  5  1  0  0  0  0
  3  6  1  0  0  0  0
  4  6  1  0  0  0  0
  5  6  1  0  0  0  0
  1  7  1  0  0  0  0
  2  8  1  0  0  0  0
  3  9  1  0  0  0  0
  4 10  1  0  0  0  0
  4 11  1  0  0  0  0
  5 12  1  0  0  0  0
  5 13  1  0  0  0  0
  6 14  1  0  0  0  0
M  END
$$$$
3ZO3_GOL_A_1360
prProtoss 05262315413D 1   1.00000     0.00000     0
Protoss beta proteinsplus
 14 13  0  0  0  0            999 V2000
  -39.3920    8.4860    9.2530 O   0  0  0  0  0  0  0  0  0  0  0  0
  -43.9500    9.1520    9.3910 O   0  0  0  0  0  0  0  0  0  0  0  0
  -41.4990    9.8660    9.8500 O   0  0  0  0  0  0  0  0  0  0  0  0
  -40.5680    8.0390    8.5940 C   0  0  0  0  0  0  0  0  0  0  0  0
  -42.9840    8.3770    8.6940 C   0  0  0  0  0  0  0  0  0  0  0  0
  -41.6520    9.0890    8.6580 C   0  0  0  0  0  0  0  0  0  0  0  0
  -38.6892    7.7767    9.1984 H   0  0  0  0  0  0  0  0  0  0  0  0
  -44.8228    8.6641    9.4035 H   0  0  0  0  0  0  0  0  0  0  0  0
  -40.7091    9.5338   10.3654 H   0  0  0  0  0  0  0  0  0  0  0  0
  -40.8943    7.2038    9.0366 H   0  0  0  0  0  0  0  0  0  0  0  0
  -40.3540    7.8469    7.6362 H   0  0  0  0  0  0  0  0  0  0  0  0
  -43.2997    8.2240    7.7576 H   0  0  0  0  0  0  0  0  0  0  0  0
  -42.8734    7.4973    9.1564 H   0  0  0  0  0  0  0  0  0  0  0  0
  -41.6023    9.6818    7.8542 H   0  0  0  0  0  0  0  0  0  0  0  0
  1  4  1  0  0  0  0
  2  5  1  0  0  0  0
  3  6  1  0  0  0  0
  4  6  1  0  0  0  0
  5  6  1  0  0  0  0
  1  7  1  0  0  0  0
  2  8  1  0  0  0  0
  3  9  1  0  0  0  0
  4 10  1  0  0  0  0
  4 11  1  0  0  0  0
  5 12  1  0  0  0  0
  5 13  1  0  0  0  0
  6 14  1  0  0  0  0
M  END
$$$$
3ZO3_GOL_A_1361
prProtoss 05262315413D 1   1.00000     0.00000     0
Protoss beta proteinsplus
 14 13  0  0  0  0            999 V2000
  -39.4860   -1.3880   13.4870 O   0  0  0  0  0  0  0  0  0  0  0  0
  -43.0640    1.0040   12.0520 O   0  0  0  0  0  0  0  0  0  0  0  0
  -42.7190   -2.0390   12.4860 O   0  0  0  0  0  0  0  0  0  0  0  0
  -40.8680   -1.4160   13.8280 C   0  0  0  0  0  0  0  0  0  0  0  0
  -42.5990    0.2250   13.1460 C   0  0  0  0  0  0  0  0  0  0  0  0
  -41.7980   -0.9810   12.7170 C   0  0  0  0  0  0  0  0  0  0  0  0
  -38.9442   -1.2011   14.3065 H   0  0  0  0  0  0  0  0  0  0  0  0
  -43.6511    0.4426   11.4687 H   0  0  0  0  0  0  0  0  0  0  0  0
  -43.2365   -2.2190   13.3225 H   0  0  0  0  0  0  0  0  0  0  0  0
  -41.0092   -0.8080   14.6093 H   0  0  0  0  0  0  0  0  0  0  0  0
  -41.1069   -2.3520   14.0866 H   0  0  0  0  0  0  0  0  0  0  0  0
  -43.3895   -0.0888   13.6719 H   0  0  0  0  0  0  0  0  0  0  0  0
  -42.0214    0.8013   13.7242 H   0  0  0  0  0  0  0  0  0  0  0  0
  -41.2802   -0.7797   11.8855 H   0  0  0  0  0  0  0  0  0  0  0  0
  1  4  1  0  0  0  0
  2  5  1  0  0  0  0
  3  6  1  0  0  0  0
  4  6  1  0  0  0  0
  5  6  1  0  0  0  0
  1  7  1  0  0  0  0
  2  8  1  0  0  0  0
  3  9  1  0  0  0  0
  4 10  1  0  0  0  0
  4 11  1  0  0  0  0
  5 12  1  0  0  0  0
  5 13  1  0  0  0  0
  6 14  1  0  0  0  0
M  END
$$$$
3ZO3_MOH_A_1362
prProtoss 05262315413D 1   1.00000     0.00000     0
Protoss beta proteinsplus
  6  5  0  0  0  0            999 V2000
   -6.4720    0.8040    6.9380 O   0  0  0  0  0  0  0  0  0  0  0  0
   -5.5140   -0.0430    6.3650 C   0  0  0  0  0  0  0  0  0  0  0  0
   -6.4111    0.7501    7.9347 H   0  0  0  0  0  0  0  0  0  0  0  0
   -5.5749    0.0109    5.3683 H   0  0  0  0  0  0  0  0  0  0  0  0
   -4.6009    0.2395    6.6589 H   0  0  0  0  0  0  0  0  0  0  0  0
   -5.6825   -0.9839    6.6589 H   0  0  0  0  0  0  0  0  0  0  0  0
  1  2  1  0  0  0  0
  1  3  1  0  0  0  0
  2  4  1  0  0  0  0
  2  5  1  0  0  0  0
  2  6  1  0  0  0  0
M  END
$$$$
7PIE_7QF_A_401
prProtoss 08172315453D 1   1.00000     0.00000     0
Protoss beta proteinsplus
 39 41  0  0  0  0            999 V2000
   10.1080  -23.1280  -30.6700 O   0  0  0  0  0  0  0  0  0  0  0  0
   17.3650  -26.6960  -23.6990 N   0  0  0  0  0  0  0  0  0  0  0  0
   17.5470  -23.0840  -23.7380 N   0  0  0  0  0  0  0  0  0  0  0  0
    9.7210  -22.1580  -27.9270 N   0  3  0  0  0  0  0  0  0  0  0  0
    8.8250  -22.8330  -30.0910 C   0  0  0  0  0  0  0  0  0  0  0  0
   16.9200  -25.8240  -24.2610 C   0  0  0  0  0  0  0  0  0  0  0  0
    8.8340  -23.1030  -28.6100 C   0  0  0  0  0  0  0  0  0  0  0  0
   12.3880  -26.0850  -28.9370 C   0  0  0  0  0  0  0  0  0  0  0  0
   10.6300  -21.5560  -28.9060 C   0  0  0  0  0  0  0  0  0  0  0  0
   11.6140  -25.0770  -29.4870 C   0  0  0  0  0  0  0  0  0  0  0  0
   13.4030  -25.7720  -28.0470 C   0  0  0  0  0  0  0  0  0  0  0  0
   15.9370  -22.4360  -25.4440 C   0  0  0  0  0  0  0  0  0  0  0  0
   14.9830  -22.7680  -26.3900 C   0  0  0  0  0  0  0  0  0  0  0  0
   15.3700  -25.0940  -25.9880 C   0  0  0  0  0  0  0  0  0  0  0  0
   12.8300  -23.4490  -28.2220 C   0  0  0  0  0  0  0  0  0  0  0  0
   11.1690  -22.6030  -29.8610 C   0  0  1  0  0  0  0  0  0  0  0  0
   16.6130  -23.4190  -24.7130 C   0  0  0  0  0  0  0  0  0  0  0  0
   16.3010  -24.7660  -25.0080 C   0  0  0  0  0  0  0  0  0  0  0  0
   11.8500  -23.7490  -29.1560 C   0  0  0  0  0  0  0  0  0  0  0  0
   13.6310  -24.4500  -27.6680 C   0  0  0  0  0  0  0  0  0  0  0  0
   14.6750  -24.1000  -26.6750 C   0  0  0  0  0  0  0  0  0  0  0  0
   18.0178  -23.8040  -23.2282 H   0  0  0  0  0  0  0  0  0  0  0  0
   17.7476  -22.1231  -23.5469 H   0  0  0  0  0  0  0  0  0  0  0  0
   10.2518  -22.6411  -27.2307 H   0  0  0  0  0  0  0  0  0  0  0  0
    8.1297  -23.4060  -30.5248 H   0  0  0  0  0  0  0  0  0  0  0  0
    8.6081  -21.8695  -30.2476 H   0  0  0  0  0  0  0  0  0  0  0  0
    7.9061  -23.0033  -28.2507 H   0  0  0  0  0  0  0  0  0  0  0  0
    9.1564  -24.0354  -28.4465 H   0  0  0  0  0  0  0  0  0  0  0  0
   12.2145  -27.0388  -29.1821 H   0  0  0  0  0  0  0  0  0  0  0  0
   11.3946  -21.1289  -28.4232 H   0  0  0  0  0  0  0  0  0  0  0  0
   10.1353  -20.8610  -29.4277 H   0  0  0  0  0  0  0  0  0  0  0  0
   10.8804  -25.3068  -30.1266 H   0  0  0  0  0  0  0  0  0  0  0  0
   13.9769  -26.5008  -27.6734 H   0  0  0  0  0  0  0  0  0  0  0  0
   16.1478  -21.4724  -25.2793 H   0  0  0  0  0  0  0  0  0  0  0  0
   14.5044  -22.0391  -26.8795 H   0  0  0  0  0  0  0  0  0  0  0  0
   15.1970  -26.0553  -26.2025 H   0  0  0  0  0  0  0  0  0  0  0  0
   12.9656  -22.4992  -27.9401 H   0  0  0  0  0  0  0  0  0  0  0  0
   11.8357  -22.1645  -30.4637 H   0  0  0  0  0  0  0  0  0  0  0  0
    9.1753  -21.4414  -27.4925 H   0  0  0  0  0  0  0  0  0  0  0  0
  1  5  1  0  0  0  0
  1 16  1  0  0  0  0
  2  6  3  0  0  0  0
  3 17  1  0  0  0  0
  4  7  1  0  0  0  0
  4  9  1  0  0  0  0
  5  7  1  0  0  0  0
  6 18  1  0  0  0  0
  8 10  2  0  0  0  0
  8 11  1  0  0  0  0
  9 16  1  0  0  0  0
 10 19  1  0  0  0  0
 11 20  2  0  0  0  0
 12 13  1  0  0  0  0
 12 17  2  0  0  0  0
 13 21  2  0  0  0  0
 14 18  2  0  0  0  0
 14 21  1  0  0  0  0
 15 19  2  0  0  0  0
 15 20  1  0  0  0  0
 16 19  1  0  0  0  0
 17 18  1  0  0  0  0
 20 21  1  0  0  0  0
  3 22  1  0  0  0  0
  3 23  1  0  0  0  0
  4 24  1  0  0  0  0
  5 25  1  0  0  0  0
  5 26  1  0  0  0  0
  7 27  1  0  0  0  0
  7 28  1  0  0  0  0
  8 29  1  0  0  0  0
  9 30  1  0  0  0  0
  9 31  1  0  0  0  0
 10 32  1  0  0  0  0
 11 33  1  0  0  0  0
 12 34  1  0  0  0  0
 13 35  1  0  0  0  0
 14 36  1  0  0  0  0
 15 37  1  0  0  0  0
 16 38  1  0  0  0  0
  4 39  1  0  0  0  0
M  CHG  1   4   1
M  END
$$$$
7PIE_MPD_A_402
prProtoss 08172315453D 1   1.00000     0.00000     0
Protoss beta proteinsplus
 22 21  0  0  0  0            999 V2000
    8.5780  -13.4730   -4.5290 O   0  0  0  0  0  0  0  0  0  0  0  0
    9.8980  -14.2330   -2.4580 O   0  0  0  0  0  0  0  0  0  0  0  0
    9.5630  -13.2210   -6.6880 C   0  0  0  0  0  0  0  0  0  0  0  0
   10.4460  -16.2910   -3.5390 C   0  0  0  0  0  0  0  0  0  0  0  0
   12.2710  -14.8330   -2.6450 C   0  0  0  0  0  0  0  0  0  0  0  0
   10.9320  -14.0060   -4.5880 C   0  0  0  0  0  0  0  0  0  0  0  0
    9.5980  -13.9790   -5.3510 C   0  0  1  0  0  0  0  0  0  0  0  0
   10.8930  -14.8480   -3.3050 C   0  0  0  0  0  0  0  0  0  0  0  0
    8.8512  -13.5543   -3.5705 H   0  0  0  0  0  0  0  0  0  0  0  0
   10.3277  -13.9233   -1.6098 H   0  0  0  0  0  0  0  0  0  0  0  0
   10.2840  -13.5688   -7.2873 H   0  0  0  0  0  0  0  0  0  0  0  0
    8.6733  -13.3555   -7.1242 H   0  0  0  0  0  0  0  0  0  0  0  0
    9.7090  -12.2457   -6.5222 H   0  0  0  0  0  0  0  0  0  0  0  0
   11.1110  -16.7552   -4.1241 H   0  0  0  0  0  0  0  0  0  0  0  0
   10.3841  -16.7672   -2.6618 H   0  0  0  0  0  0  0  0  0  0  0  0
    9.5506  -16.2946   -3.9842 H   0  0  0  0  0  0  0  0  0  0  0  0
   12.9369  -15.2644   -3.2537 H   0  0  0  0  0  0  0  0  0  0  0  0
   12.5452  -13.8879   -2.4672 H   0  0  0  0  0  0  0  0  0  0  0  0
   12.2328  -15.3369   -1.7821 H   0  0  0  0  0  0  0  0  0  0  0  0
   11.1740  -13.0674   -4.3422 H   0  0  0  0  0  0  0  0  0  0  0  0
   11.6335  -14.3838   -5.1922 H   0  0  0  0  0  0  0  0  0  0  0  0
    9.3615  -14.9296   -5.5521 H   0  0  0  0  0  0  0  0  0  0  0  0
  1  7  1  0  0  0  0
  2  8  1  0  0  0  0
  3  7  1  0  0  0  0
  4  8  1  0  0  0  0
  5  8  1  0  0  0  0
  6  7  1  0  0  0  0
  6  8  1  0  0  0  0
  1  9  1  0  0  0  0
  2 10  1  0  0  0  0
  3 11  1  0  0  0  0
  3 12  1  0  0  0  0
  3 13  1  0  0  0  0
  4 14  1  0  0  0  0
  4 15  1  0  0  0  0
  4 16  1  0  0  0  0
  5 17  1  0  0  0  0
  5 18  1  0  0  0  0
  5 19  1  0  0  0  0
  6 20  1  0  0  0  0
  6 21  1  0  0  0  0
  7 22  1  0  0  0  0
M  END
$$$$
7PID_7QI_A_401
prProtoss 08172315453D 1   1.00000     0.00000     0
Protoss beta proteinsplus
 39 41  0  0  0  0            999 V2000
    9.3010  -22.2170  -30.2320 O   0  0  0  0  0  0  0  0  0  0  0  0
   17.3810  -26.8670  -23.7020 N   0  0  0  0  0  0  0  0  0  0  0  0
   17.2080  -23.2670  -23.8790 N   0  0  0  0  0  0  0  0  0  0  0  0
    9.3740  -24.2200  -28.2410 N   0  3  0  0  0  0  0  0  0  0  0  0
    8.1680  -23.0460  -29.9890 C   0  0  0  0  0  0  0  0  0  0  0  0
   10.5100  -22.9130  -29.9220 C   0  0  0  0  0  0  0  0  0  0  0  0
   16.8610  -26.0630  -24.3080 C   0  0  0  0  0  0  0  0  0  0  0  0
    8.1220  -23.5280  -28.5690 C   0  0  0  0  0  0  0  0  0  0  0  0
   13.0540  -26.8550  -29.5340 C   0  0  0  0  0  0  0  0  0  0  0  0
   11.8570  -26.2100  -29.7890 C   0  0  0  0  0  0  0  0  0  0  0  0
   13.9390  -26.3330  -28.6070 C   0  0  0  0  0  0  0  0  0  0  0  0
   15.6020  -22.8270  -25.6560 C   0  0  0  0  0  0  0  0  0  0  0  0
   14.7210  -23.2830  -26.6230 C   0  0  0  0  0  0  0  0  0  0  0  0
   15.3090  -25.5450  -26.1110 C   0  0  0  0  0  0  0  0  0  0  0  0
   12.4360  -24.5050  -28.2040 C   0  0  0  0  0  0  0  0  0  0  0  0
   16.3560  -23.7160  -24.8750 C   0  0  0  0  0  0  0  0  0  0  0  0
   10.2300  -24.3210  -29.4400 C   0  0  1  0  0  0  0  0  0  0  0  0
   16.1830  -25.0970  -25.1230 C   0  0  0  0  0  0  0  0  0  0  0  0
   11.5380  -25.0310  -29.1340 C   0  0  0  0  0  0  0  0  0  0  0  0
   13.6380  -25.1580  -27.9180 C   0  0  0  0  0  0  0  0  0  0  0  0
   14.5580  -24.6480  -26.8670 C   0  0  0  0  0  0  0  0  0  0  0  0
   17.7336  -23.9230  -23.3374 H   0  0  0  0  0  0  0  0  0  0  0  0
   17.2973  -22.2869  -23.7017 H   0  0  0  0  0  0  0  0  0  0  0  0
    9.1656  -25.1387  -27.9056 H   0  0  0  0  0  0  0  0  0  0  0  0
    8.2103  -23.8380  -30.5981 H   0  0  0  0  0  0  0  0  0  0  0  0
    7.3375  -22.5226  -30.1799 H   0  0  0  0  0  0  0  0  0  0  0  0
   10.9974  -22.4147  -29.2050 H   0  0  0  0  0  0  0  0  0  0  0  0
   11.0793  -22.9575  -30.7429 H   0  0  0  0  0  0  0  0  0  0  0  0
    8.0037  -22.7466  -27.9563 H   0  0  0  0  0  0  0  0  0  0  0  0
    7.3542  -24.1588  -28.4567 H   0  0  0  0  0  0  0  0  0  0  0  0
   13.2799  -27.6992  -30.0200 H   0  0  0  0  0  0  0  0  0  0  0  0
   11.2164  -26.5978  -30.4517 H   0  0  0  0  0  0  0  0  0  0  0  0
   14.8035  -26.8031  -28.4292 H   0  0  0  0  0  0  0  0  0  0  0  0
   15.7028  -21.8427  -25.5114 H   0  0  0  0  0  0  0  0  0  0  0  0
   14.1922  -22.6225  -27.1560 H   0  0  0  0  0  0  0  0  0  0  0  0
   15.2193  -26.5265  -26.2802 H   0  0  0  0  0  0  0  0  0  0  0  0
   12.2163  -23.6491  -27.7359 H   0  0  0  0  0  0  0  0  0  0  0  0
    9.7410  -24.8230  -30.1534 H   0  0  0  0  0  0  0  0  0  0  0  0
    9.8583  -23.7081  -27.5315 H   0  0  0  0  0  0  0  0  0  0  0  0
  1  5  1  0  0  0  0
  1  6  1  0  0  0  0
  2  7  3  0  0  0  0
  3 16  1  0  0  0  0
  4  8  1  0  0  0  0
  4 17  1  0  0  0  0
  5  8  1  0  0  0  0
  6 17  1  0  0  0  0
  7 18  1  0  0  0  0
  9 10  2  0  0  0  0
  9 11  1  0  0  0  0
 10 19  1  0  0  0  0
 11 20  2  0  0  0  0
 12 13  1  0  0  0  0
 12 16  2  0  0  0  0
 13 21  2  0  0  0  0
 14 18  2  0  0  0  0
 14 21  1  0  0  0  0
 15 19  2  0  0  0  0
 15 20  1  0  0  0  0
 16 18  1  0  0  0  0
 17 19  1  0  0  0  0
 20 21  1  0  0  0  0
  3 22  1  0  0  0  0
  3 23  1  0  0  0  0
  4 24  1  0  0  0  0
  5 25  1  0  0  0  0
  5 26  1  0  0  0  0
  6 27  1  0  0  0  0
  6 28  1  0  0  0  0
  8 29  1  0  0  0  0
  8 30  1  0  0  0  0
  9 31  1  0  0  0  0
 10 32  1  0  0  0  0
 11 33  1  0  0  0  0
 12 34  1  0  0  0  0
 13 35  1  0  0  0  0
 14 36  1  0  0  0  0
 15 37  1  0  0  0  0
 17 38  1  0  0  0  0
  4 39  1  0  0  0  0
M  CHG  1   4   1
M  END
$$$$
7PID_MPD_A_402
prProtoss 08172315453D 1   1.00000     0.00000     0
Protoss beta proteinsplus
 22 21  0  0  0  0            999 V2000
    8.6070  -13.4540   -4.5310 O   0  0  0  0  0  0  0  0  0  0  0  0
    9.8710  -14.2570   -2.5070 O   0  0  0  0  0  0  0  0  0  0  0  0
    9.4590  -13.4480   -6.7230 C   0  0  0  0  0  0  0  0  0  0  0  0
   10.4850  -16.3190   -3.5780 C   0  0  0  0  0  0  0  0  0  0  0  0
   12.2480  -14.8100   -2.6780 C   0  0  0  0  0  0  0  0  0  0  0  0
   10.9070  -14.1020   -4.6790 C   0  0  0  0  0  0  0  0  0  0  0  0
    9.5310  -14.1130   -5.3480 C   0  0  1  0  0  0  0  0  0  0  0  0
   10.8790  -14.8660   -3.3520 C   0  0  0  0  0  0  0  0  0  0  0  0
    8.9238  -13.4780   -3.5828 H   0  0  0  0  0  0  0  0  0  0  0  0
   10.2973  -13.9262   -1.6651 H   0  0  0  0  0  0  0  0  0  0  0  0
   10.1075  -13.8911   -7.3419 H   0  0  0  0  0  0  0  0  0  0  0  0
    8.5330  -13.5393   -7.0893 H   0  0  0  0  0  0  0  0  0  0  0  0
    9.6894  -12.4787   -6.6370 H   0  0  0  0  0  0  0  0  0  0  0  0
   11.1667  -16.7626   -4.1599 H   0  0  0  0  0  0  0  0  0  0  0  0
   10.4387  -16.7925   -2.6984 H   0  0  0  0  0  0  0  0  0  0  0  0
    9.5908  -16.3564   -4.0242 H   0  0  0  0  0  0  0  0  0  0  0  0
   12.9304  -15.2337   -3.2737 H   0  0  0  0  0  0  0  0  0  0  0  0
   12.4981  -13.8565   -2.5101 H   0  0  0  0  0  0  0  0  0  0  0  0
   12.2120  -15.3031   -1.8088 H   0  0  0  0  0  0  0  0  0  0  0  0
   11.1786  -13.1553   -4.5055 H   0  0  0  0  0  0  0  0  0  0  0  0
   11.5711  -14.5326   -5.2902 H   0  0  0  0  0  0  0  0  0  0  0  0
    9.2388  -15.0644   -5.4456 H   0  0  0  0  0  0  0  0  0  0  0  0
  1  7  1  0  0  0  0
  2  8  1  0  0  0  0
  3  7  1  0  0  0  0
  4  8  1  0  0  0  0
  5  8  1  0  0  0  0
  6  7  1  0  0  0  0
  6  8  1  0  0  0  0
  1  9  1  0  0  0  0
  2 10  1  0  0  0  0
  3 11  1  0  0  0  0
  3 12  1  0  0  0  0
  3 13  1  0  0  0  0
  4 14  1  0  0  0  0
  4 15  1  0  0  0  0
  4 16  1  0  0  0  0
  5 17  1  0  0  0  0
  5 18  1  0  0  0  0
  5 19  1  0  0  0  0
  6 20  1  0  0  0  0
  6 21  1  0  0  0  0
  7 22  1  0  0  0  0
M  END
$$$$
3OVV_1SB_A_2001
prProtoss 08192303263D 1   1.00000     0.00000     0
Protoss beta proteinsplus
 37 38  0  0  0  0            999 V2000
   -8.6640   -8.0400   20.9920 O   0  0  0  0  0  0  0  0  0  0  0  0
   -8.7510  -15.7480   16.5370 O   0  0  0  0  0  0  0  0  0  0  0  0
   -5.5320   -2.8840   21.9780 O   0  0  0  0  0  0  0  0  0  0  0  0
   -8.8060   -9.6510   18.7500 N   0  0  0  0  0  0  0  0  0  0  0  0
   -8.8170   -8.2500   18.8130 N   0  0  0  0  0  0  0  0  0  0  0  0
   -6.6450   -2.1740   22.6030 C   0  0  0  0  0  0  0  0  0  0  0  0
   -8.9450  -10.1210   17.5620 C   0  0  0  0  0  0  0  0  0  0  0  0
   -4.8260   -5.4930   19.6660 C   0  0  0  0  0  0  0  0  0  0  0  0
   -8.8770  -13.9570   18.1410 C   0  0  0  0  0  0  0  0  0  0  0  0
   -8.7890  -13.4640   15.8540 C   0  0  0  0  0  0  0  0  0  0  0  0
   -4.6430   -4.4860   20.5510 C   0  0  0  0  0  0  0  0  0  0  0  0
   -6.1030   -5.9260   19.4790 C   0  0  0  0  0  0  0  0  0  0  0  0
   -8.9600  -12.5750   18.4750 C   0  0  0  0  0  0  0  0  0  0  0  0
   -8.8450  -12.0960   16.1640 C   0  0  0  0  0  0  0  0  0  0  0  0
   -8.5030   -5.9550   19.8250 C   0  0  0  0  0  0  0  0  0  0  0  0
   -7.0480   -4.3260   20.9920 C   0  0  0  0  0  0  0  0  0  0  0  0
   -8.6610   -7.4850   19.9010 C   0  0  0  0  0  0  0  0  0  0  0  0
   -8.8070  -14.4250   16.8590 C   0  0  0  0  0  0  0  0  0  0  0  0
   -5.7350   -3.9220   21.1520 C   0  0  0  0  0  0  0  0  0  0  0  0
   -8.9240  -11.6270   17.4700 C   0  0  0  0  0  0  0  0  0  0  0  0
   -7.1950   -5.3830   20.1120 C   0  0  0  0  0  0  0  0  0  0  0  0
   -8.7600  -16.4393   17.2595 H   0  0  0  0  0  0  0  0  0  0  0  0
   -8.9571   -7.7680   17.9481 H   0  0  0  0  0  0  0  0  0  0  0  0
   -6.2895   -1.4377   23.1788 H   0  0  0  0  0  0  0  0  0  0  0  0
   -7.2342   -1.7874   21.8935 H   0  0  0  0  0  0  0  0  0  0  0  0
   -7.1733   -2.8108   23.1646 H   0  0  0  0  0  0  0  0  0  0  0  0
   -9.0583   -9.5340   16.7604 H   0  0  0  0  0  0  0  0  0  0  0  0
   -4.0581   -5.9006   19.1718 H   0  0  0  0  0  0  0  0  0  0  0  0
   -8.8695  -14.6228   18.8871 H   0  0  0  0  0  0  0  0  0  0  0  0
   -8.7354  -13.7513   14.8977 H   0  0  0  0  0  0  0  0  0  0  0  0
   -3.7222   -4.1585   20.7629 H   0  0  0  0  0  0  0  0  0  0  0  0
   -6.2552   -6.6834   18.8440 H   0  0  0  0  0  0  0  0  0  0  0  0
   -9.0438  -12.2924   19.4306 H   0  0  0  0  0  0  0  0  0  0  0  0
   -8.8274  -11.4328   15.4157 H   0  0  0  0  0  0  0  0  0  0  0  0
   -9.1497   -5.5575   20.4760 H   0  0  0  0  0  0  0  0  0  0  0  0
   -8.7509   -5.6771   18.8969 H   0  0  0  0  0  0  0  0  0  0  0  0
   -7.8162   -3.8959   21.4663 H   0  0  0  0  0  0  0  0  0  0  0  0
  1 17  2  0  0  0  0
  2 18  1  0  0  0  0
  3  6  1  0  0  0  0
  3 19  1  0  0  0  0
  4  5  1  0  0  0  0
  4  7  2  0  0  0  0
  5 17  1  0  0  0  0
  7 20  1  0  0  0  0
  8 11  2  0  0  0  0
  8 12  1  0  0  0  0
  9 13  1  0  0  0  0
  9 18  2  0  0  0  0
 10 14  2  0  0  0  0
 10 18  1  0  0  0  0
 11 19  1  0  0  0  0
 12 21  2  0  0  0  0
 13 20  2  0  0  0  0
 14 20  1  0  0  0  0
 15 17  1  0  0  0  0
 15 21  1  0  0  0  0
 16 19  2  0  0  0  0
 16 21  1  0  0  0  0
  2 22  1  0  0  0  0
  5 23  1  0  0  0  0
  6 24  1  0  0  0  0
  6 25  1  0  0  0  0
  6 26  1  0  0  0  0
  7 27  1  0  0  0  0
  8 28  1  0  0  0  0
  9 29  1  0  0  0  0
 10 30  1  0  0  0  0
 11 31  1  0  0  0  0
 12 32  1  0  0  0  0
 13 33  1  0  0  0  0
 14 34  1  0  0  0  0
 15 35  1  0  0  0  0
 15 36  1  0  0  0  0
 16 37  1  0  0  0  0
M  END
$$$$
3OVV_BUD_B_3001
prProtoss 08192303263D 1   1.00000     0.00000     0
Protoss beta proteinsplus
 16 15  0  0  0  0            999 V2000
   -8.4540   -0.4900   15.9600 O   0  0  0  0  0  0  0  0  0  0  0  0
   -9.5500   -2.6770   17.4860 O   0  0  0  0  0  0  0  0  0  0  0  0
  -10.6170    0.1940   15.2680 C   0  0  0  0  0  0  0  0  0  0  0  0
  -11.7540   -2.1000   16.7090 C   0  0  0  0  0  0  0  0  0  0  0  0
   -9.8460   -0.5620   16.3610 C   0  0  1  0  0  0  0  0  0  0  0  0
  -10.2570   -2.0380   16.3850 C   0  0  1  0  0  0  0  0  0  0  0  0
   -8.3422   -0.9216   15.0649 H   0  0  0  0  0  0  0  0  0  0  0  0
   -8.7070   -3.0926   17.1444 H   0  0  0  0  0  0  0  0  0  0  0  0
  -11.5938    0.1844   15.4818 H   0  0  0  0  0  0  0  0  0  0  0  0
  -10.2943    1.1396   15.2258 H   0  0  0  0  0  0  0  0  0  0  0  0
  -10.4647   -0.2499   14.3850 H   0  0  0  0  0  0  0  0  0  0  0  0
  -12.2729   -1.6684   15.9711 H   0  0  0  0  0  0  0  0  0  0  0  0
  -12.0360   -3.0551   16.8004 H   0  0  0  0  0  0  0  0  0  0  0  0
  -11.9297   -1.6170   17.5668 H   0  0  0  0  0  0  0  0  0  0  0  0
   -9.9836   -0.1371   17.2557 H   0  0  0  0  0  0  0  0  0  0  0  0
  -10.0546   -2.4860   15.5142 H   0  0  0  0  0  0  0  0  0  0  0  0
  1  5  1  0  0  0  0
  2  6  1  0  0  0  0
  3  5  1  0  0  0  0
  4  6  1  0  0  0  0
  5  6  1  0  0  0  0
  1  7  1  0  0  0  0
  2  8  1  0  0  0  0
  3  9  1  0  0  0  0
  3 10  1  0  0  0  0
  3 11  1  0  0  0  0
  4 12  1  0  0  0  0
  4 13  1  0  0  0  0
  4 14  1  0  0  0  0
  5 15  1  0  0  0  0
  6 16  1  0  0  0  0
M  END
$$$$
2GNI_M77_A_601
prProtoss 05262315283D 1   1.00000     0.00000     0
Protoss beta proteinsplus
 38 40  0  0  0  0            999 V2000
    8.5630   10.0750    4.0780 S   0  0  0  0  0  0  0  0  0  0  0  0
    8.6630   11.0830    5.1390 O   0  0  0  0  0  0  0  0  0  0  0  0
    9.5790   10.2220    3.0610 O   0  0  0  0  0  0  0  0  0  0  0  0
   11.1150    7.1450    3.4660 N   0  3  0  0  0  0  0  0  0  0  0  0
    3.1880    9.9250    4.8300 N   0  0  0  0  0  0  0  0  0  0  0  0
    8.7470    8.5900    4.6610 N   0  0  0  0  0  0  0  0  0  0  0  0
    9.8160    7.4110    2.7170 C   0  0  0  0  0  0  0  0  0  0  0  0
   11.3480    7.9200    4.7470 C   0  0  0  0  0  0  0  0  0  0  0  0
    4.2550    9.9320    5.6800 C   0  0  0  0  0  0  0  0  0  0  0  0
    3.3890   10.0080    3.5140 C   0  0  0  0  0  0  0  0  0  0  0  0
    8.6400    7.4430    3.7020 C   0  0  0  0  0  0  0  0  0  0  0  0
    9.1740    8.4300    6.0430 C   0  0  0  0  0  0  0  0  0  0  0  0
   10.4640    7.5710    5.9470 C   0  0  0  0  0  0  0  0  0  0  0  0
    6.0790   10.1340    0.9240 C   0  0  0  0  0  0  0  0  0  0  0  0
    5.5290    9.9710    5.1760 C   0  0  0  0  0  0  0  0  0  0  0  0
    7.2290   10.1470    1.7680 C   0  0  0  0  0  0  0  0  0  0  0  0
    4.8170   10.1030    1.5120 C   0  0  0  0  0  0  0  0  0  0  0  0
    7.0820   10.0850    3.1460 C   0  0  0  0  0  0  0  0  0  0  0  0
    4.6530   10.0680    2.9120 C   0  0  0  0  0  0  0  0  0  0  0  0
    5.7840   10.0280    3.7640 C   0  0  0  0  0  0  0  0  0  0  0  0
   11.8692    7.3574    2.8447 H   0  0  0  0  0  0  0  0  0  0  0  0
    9.6661    6.6852    2.0457 H   0  0  0  0  0  0  0  0  0  0  0  0
    9.8788    8.2916    2.2474 H   0  0  0  0  0  0  0  0  0  0  0  0
   11.2082    8.8887    4.5421 H   0  0  0  0  0  0  0  0  0  0  0  0
   12.2984    7.7709    5.0201 H   0  0  0  0  0  0  0  0  0  0  0  0
    4.1079    9.9087    6.6689 H   0  0  0  0  0  0  0  0  0  0  0  0
    2.5859   10.0287    2.9186 H   0  0  0  0  0  0  0  0  0  0  0  0
    7.7880    7.5312    3.1859 H   0  0  0  0  0  0  0  0  0  0  0  0
    8.6288    6.5879    4.2203 H   0  0  0  0  0  0  0  0  0  0  0  0
    8.4731    7.9585    6.5783 H   0  0  0  0  0  0  0  0  0  0  0  0
    9.3696    9.3182    6.4587 H   0  0  0  0  0  0  0  0  0  0  0  0
   10.9970    7.7075    6.7820 H   0  0  0  0  0  0  0  0  0  0  0  0
   10.1984    6.6096    5.8745 H   0  0  0  0  0  0  0  0  0  0  0  0
    6.1772   10.1469   -0.0711 H   0  0  0  0  0  0  0  0  0  0  0  0
    6.3027    9.9594    5.8094 H   0  0  0  0  0  0  0  0  0  0  0  0
    8.1428   10.2009    1.3655 H   0  0  0  0  0  0  0  0  0  0  0  0
    4.0064   10.1056    0.9264 H   0  0  0  0  0  0  0  0  0  0  0  0
   11.1360    6.1719    3.6953 H   0  0  0  0  0  0  0  0  0  0  0  0
  1  2  2  0  0  0  0
  1  3  2  0  0  0  0
  1  6  1  0  0  0  0
  1 18  1  0  0  0  0
  4  7  1  0  0  0  0
  4  8  1  0  0  0  0
  5  9  2  0  0  0  0
  5 10  1  0  0  0  0
  6 11  1  0  0  0  0
  6 12  1  0  0  0  0
  7 11  1  0  0  0  0
  8 13  1  0  0  0  0
  9 15  1  0  0  0  0
 10 19  2  0  0  0  0
 12 13  1  0  0  0  0
 14 16  1  0  0  0  0
 14 17  2  0  0  0  0
 15 20  2  0  0  0  0
 16 18  2  0  0  0  0
 17 19  1  0  0  0  0
 18 20  1  0  0  0  0
 19 20  1  0  0  0  0
  4 21  1  0  0  0  0
  7 22  1  0  0  0  0
  7 23  1  0  0  0  0
  8 24  1  0  0  0  0
  8 25  1  0  0  0  0
  9 26  1  0  0  0  0
 10 27  1  0  0  0  0
 11 28  1  0  0  0  0
 11 29  1  0  0  0  0
 12 30  1  0  0  0  0
 12 31  1  0  0  0  0
 13 32  1  0  0  0  0
 13 33  1  0  0  0  0
 14 34  1  0  0  0  0
 15 35  1  0  0  0  0
 16 36  1  0  0  0  0
 17 37  1  0  0  0  0
  4 38  1  0  0  0  0
M  CHG  1   4   1
M  END
$$$$
5LCP_M77_A_401
prProtoss 08192303223D 1   1.00000     0.00000     0
Protoss beta proteinsplus
 38 40  0  0  0  0            999 V2000
  -13.6630  -24.9300   27.2960 S   0  0  0  0  0  0  0  0  0  0  0  0
  -13.0870  -25.9940   26.5390 O   0  0  0  0  0  0  0  0  0  0  0  0
  -14.1930  -25.1970   28.5940 O   0  0  0  0  0  0  0  0  0  0  0  0
   -9.5240  -22.9170   26.9670 N   0  3  0  0  0  0  0  0  0  0  0  0
  -17.3500  -26.3090   23.5990 N   0  0  0  0  0  0  0  0  0  0  0  0
  -12.4930  -23.8060   27.4810 N   0  0  0  0  0  0  0  0  0  0  0  0
  -10.4350  -23.6950   26.0750 C   0  0  0  0  0  0  0  0  0  0  0  0
   -9.7960  -23.0790   28.4260 C   0  0  0  0  0  0  0  0  0  0  0  0
  -16.5820  -26.9580   24.4860 C   0  0  0  0  0  0  0  0  0  0  0  0
  -17.3640  -24.9810   23.6530 C   0  0  0  0  0  0  0  0  0  0  0  0
  -11.8800  -23.2950   26.2430 C   0  0  0  0  0  0  0  0  0  0  0  0
  -12.3860  -23.0330   28.7310 C   0  0  0  0  0  0  0  0  0  0  0  0
  -11.0380  -22.3380   28.8850 C   0  0  0  0  0  0  0  0  0  0  0  0
  -15.8340  -22.1150   25.4800 C   0  0  0  0  0  0  0  0  0  0  0  0
  -15.7770  -26.3400   25.3980 C   0  0  0  0  0  0  0  0  0  0  0  0
  -14.9640  -22.7880   26.3240 C   0  0  0  0  0  0  0  0  0  0  0  0
  -16.6300  -22.8000   24.6120 C   0  0  0  0  0  0  0  0  0  0  0  0
  -14.9040  -24.1560   26.3040 C   0  0  0  0  0  0  0  0  0  0  0  0
  -16.6010  -24.2170   24.5640 C   0  0  0  0  0  0  0  0  0  0  0  0
  -15.7480  -24.9260   25.4500 C   0  0  0  0  0  0  0  0  0  0  0  0
   -9.6161  -21.9479   26.7382 H   0  0  0  0  0  0  0  0  0  0  0  0
  -10.3433  -24.6671   26.2908 H   0  0  0  0  0  0  0  0  0  0  0  0
  -10.1662  -23.5376   25.1248 H   0  0  0  0  0  0  0  0  0  0  0  0
   -9.0102  -22.7305   28.9370 H   0  0  0  0  0  0  0  0  0  0  0  0
   -9.9155  -24.0524   28.6214 H   0  0  0  0  0  0  0  0  0  0  0  0
  -16.6004  -27.9578   24.4787 H   0  0  0  0  0  0  0  0  0  0  0  0
  -17.9515  -24.4920   23.0083 H   0  0  0  0  0  0  0  0  0  0  0  0
  -11.9325  -22.2964   26.2530 H   0  0  0  0  0  0  0  0  0  0  0  0
  -12.3984  -23.6483   25.4643 H   0  0  0  0  0  0  0  0  0  0  0  0
  -12.5141  -23.6555   29.5031 H   0  0  0  0  0  0  0  0  0  0  0  0
  -13.1057  -22.3388   28.7395 H   0  0  0  0  0  0  0  0  0  0  0  0
  -11.0831  -21.4841   28.3665 H   0  0  0  0  0  0  0  0  0  0  0  0
  -10.9191  -22.1322   29.8564 H   0  0  0  0  0  0  0  0  0  0  0  0
  -15.8777  -21.1164   25.5086 H   0  0  0  0  0  0  0  0  0  0  0  0
  -15.2136  -26.8804   26.0229 H   0  0  0  0  0  0  0  0  0  0  0  0
  -14.3782  -22.2727   26.9496 H   0  0  0  0  0  0  0  0  0  0  0  0
  -17.2421  -22.2975   24.0014 H   0  0  0  0  0  0  0  0  0  0  0  0
   -8.5856  -23.2136   26.7898 H   0  0  0  0  0  0  0  0  0  0  0  0
  1  2  2  0  0  0  0
  1  3  2  0  0  0  0
  1  6  1  0  0  0  0
  1 18  1  0  0  0  0
  4  7  1  0  0  0  0
  4  8  1  0  0  0  0
  5  9  2  0  0  0  0
  5 10  1  0  0  0  0
  6 11  1  0  0  0  0
  6 12  1  0  0  0  0
  7 11  1  0  0  0  0
  8 13  1  0  0  0  0
  9 15  1  0  0  0  0
 10 19  2  0  0  0  0
 12 13  1  0  0  0  0
 14 16  1  0  0  0  0
 14 17  2  0  0  0  0
 15 20  2  0  0  0  0
 16 18  2  0  0  0  0
 17 19  1  0  0  0  0
 18 20  1  0  0  0  0
 19 20  1  0  0  0  0
  4 21  1  0  0  0  0
  7 22  1  0  0  0  0
  7 23  1  0  0  0  0
  8 24  1  0  0  0  0
  8 25  1  0  0  0  0
  9 26  1  0  0  0  0
 10 27  1  0  0  0  0
 11 28  1  0  0  0  0
 11 29  1  0  0  0  0
 12 30  1  0  0  0  0
 12 31  1  0  0  0  0
 13 32  1  0  0  0  0
 13 33  1  0  0  0  0
 14 34  1  0  0  0  0
 15 35  1  0  0  0  0
 16 36  1  0  0  0  0
 17 37  1  0  0  0  0
  4 38  1  0  0  0  0
M  CHG  1   4   1
M  END
$$$$
5LCP_MOH_A_402
prProtoss 08192303223D 1   1.00000     0.00000     0
Protoss beta proteinsplus
  6  5  0  0  0  0            999 V2000
  -11.1500  -37.9280   19.5460 O   0  0  0  0  0  0  0  0  0  0  0  0
  -10.0760  -38.5270   18.8860 C   0  0  0  0  0  0  0  0  0  0  0  0
  -11.0171  -38.0021   20.5344 H   0  0  0  0  0  0  0  0  0  0  0  0
  -10.2089  -38.4529   17.8976 H   0  0  0  0  0  0  0  0  0  0  0  0
   -9.2271  -38.0656   19.1437 H   0  0  0  0  0  0  0  0  0  0  0  0
  -10.0225  -39.4917   19.1437 H   0  0  0  0  0  0  0  0  0  0  0  0
  1  2  1  0  0  0  0
  1  3  1  0  0  0  0
  2  4  1  0  0  0  0
  2  5  1  0  0  0  0
  2  6  1  0  0  0  0
M  END
$$$$
5LCP_MOH_A_403
prProtoss 08192303223D 1   1.00000     0.00000     0
Protoss beta proteinsplus
  6  5  0  0  0  0            999 V2000
  -16.7030   -0.0460    8.5440 O   0  0  0  0  0  0  0  0  0  0  0  0
  -15.4750    0.5920    8.7320 C   0  0  0  0  0  0  0  0  0  0  0  0
  -16.8763   -0.6673    9.3082 H   0  0  0  0  0  0  0  0  0  0  0  0
  -15.0693    0.8028    7.8426 H   0  0  0  0  0  0  0  0  0  0  0  0
  -15.6146    1.4396    9.2440 H   0  0  0  0  0  0  0  0  0  0  0  0
  -14.8618   -0.0095    9.2440 H   0  0  0  0  0  0  0  0  0  0  0  0
  1  2  1  0  0  0  0
  1  3  1  0  0  0  0
  2  4  1  0  0  0  0
  2  5  1  0  0  0  0
  2  6  1  0  0  0  0
M  END
$$$$
5LCP_MOH_A_404
prProtoss 08192303223D 1   1.00000     0.00000     0
Protoss beta proteinsplus
  6  5  0  0  0  0            999 V2000
  -15.6870  -17.1660    0.1310 O   0  0  0  0  0  0  0  0  0  0  0  0
  -16.9600  -17.7150    0.3390 C   0  0  0  0  0  0  0  0  0  0  0  0
  -15.7719  -16.3134   -0.3846 H   0  0  0  0  0  0  0  0  0  0  0  0
  -17.3911  -17.9009   -0.5439 H   0  0  0  0  0  0  0  0  0  0  0  0
  -16.8751  -18.5676    0.8546 H   0  0  0  0  0  0  0  0  0  0  0  0
  -17.5218  -17.0681    0.8546 H   0  0  0  0  0  0  0  0  0  0  0  0
  1  2  1  0  0  0  0
  1  3  1  0  0  0  0
  2  4  1  0  0  0  0
  2  5  1  0  0  0  0
  2  6  1  0  0  0  0
M  END
$$$$
5LCP_DMS_A_405
prProtoss 08192303223D 1   1.00000     0.00000     0
Protoss beta proteinsplus
 10  9  0  0  0  0            999 V2000
  -10.9570  -15.2420    3.4350 S   0  0  0  0  0  0  0  0  0  0  0  0
   -9.9670  -14.2520    2.9140 O   0  0  0  0  0  0  0  0  0  0  0  0
  -11.0670  -15.1580    5.2420 C   0  0  0  0  0  0  0  0  0  0  0  0
  -12.6370  -14.7430    2.9550 C   0  0  0  0  0  0  0  0  0  0  0  0
  -11.7343  -15.8282    5.5668 H   0  0  0  0  0  0  0  0  0  0  0  0
  -10.1719  -15.3588    5.6401 H   0  0  0  0  0  0  0  0  0  0  0  0
  -11.3555  -14.2406    5.5161 H   0  0  0  0  0  0  0  0  0  0  0  0
  -13.2955  -15.4087    3.3060 H   0  0  0  0  0  0  0  0  0  0  0  0
  -12.8388  -13.8411    3.3370 H   0  0  0  0  0  0  0  0  0  0  0  0
  -12.7012  -14.7046    1.9578 H   0  0  0  0  0  0  0  0  0  0  0  0
  1  2  2  0  0  0  0
  1  3  1  0  0  0  0
  1  4  1  0  0  0  0
  3  5  1  0  0  0  0
  3  6  1  0  0  0  0
  3  7  1  0  0  0  0
  4  8  1  0  0  0  0
  4  9  1  0  0  0  0
  4 10  1  0  0  0  0
M  END
$$$$
5LCP_MOH_B_101
prProtoss 08192303223D 1   1.00000     0.00000     0
Protoss beta proteinsplus
  6  5  0  0  0  0            999 V2000
   11.9920  -36.2310   33.5290 O   0  0  0  0  0  0  0  0  0  0  0  0
   13.2040  -35.7550   34.1090 C   0  0  0  0  0  0  0  0  0  0  0  0
   11.8285  -37.1724   33.8240 H   0  0  0  0  0  0  0  0  0  0  0  0
   13.8445  -35.5035   33.3834 H   0  0  0  0  0  0  0  0  0  0  0  0
   13.0104  -34.9538   34.6752 H   0  0  0  0  0  0  0  0  0  0  0  0
   13.6074  -36.4738   34.6752 H   0  0  0  0  0  0  0  0  0  0  0  0
  1  2  1  0  0  0  0
  1  3  1  0  0  0  0
  2  4  1  0  0  0  0
  2  5  1  0  0  0  0
  2  6  1  0  0  0  0
M  END
$$$$
5LCP_MOH_B_102
prProtoss 08192303223D 1   1.00000     0.00000     0
Protoss beta proteinsplus
  6  5  0  0  0  0            999 V2000
   -2.2340  -30.9980   32.8560 O   0  0  0  0  0  0  0  0  0  0  0  0
   -3.3550  -30.7620   32.1630 C   0  0  0  0  0  0  0  0  0  0  0  0
   -1.8844  -31.9060   32.6252 H   0  0  0  0  0  0  0  0  0  0  0  0
   -3.1566  -30.8038   31.1838 H   0  0  0  0  0  0  0  0  0  0  0  0
   -4.0411  -31.4520   32.3938 H   0  0  0  0  0  0  0  0  0  0  0  0
   -3.7046  -29.8540   32.3938 H   0  0  0  0  0  0  0  0  0  0  0  0
  1  2  1  0  0  0  0
  1  3  1  0  0  0  0
  2  4  1  0  0  0  0
  2  5  1  0  0  0  0
  2  6  1  0  0  0  0
M  END
$$$$
5NW8_MPD_A_401
prProtoss 08192303253D 1   1.00000     0.00000     0
Protoss beta proteinsplus
 22 21  0  0  0  0            999 V2000
   26.4000   21.1370   24.6630 O   0  0  0  0  0  0  0  0  0  0  0  0
   24.1650   22.2040   24.9720 O   0  0  0  0  0  0  0  0  0  0  0  0
   27.6130   21.3710   22.6150 C   0  0  0  0  0  0  0  0  0  0  0  0
   24.5880   24.1910   23.7490 C   0  0  0  0  0  0  0  0  0  0  0  0
   22.7240   22.6390   23.0760 C   0  0  0  0  0  0  0  0  0  0  0  0
   25.1510   21.9540   22.7980 C   0  0  0  0  0  0  0  0  0  0  0  0
   26.5030   21.9280   23.5040 C   0  0  1  0  0  0  0  0  0  0  0  0
   24.1470   22.7420   23.6320 C   0  0  0  0  0  0  0  0  0  0  0  0
   26.1838   20.1952   24.4057 H   0  0  0  0  0  0  0  0  0  0  0  0
   25.0666   21.8162   25.1634 H   0  0  0  0  0  0  0  0  0  0  0  0
   27.6907   21.9297   21.7893 H   0  0  0  0  0  0  0  0  0  0  0  0
   28.4800   21.3899   23.1130 H   0  0  0  0  0  0  0  0  0  0  0  0
   27.3951   20.4287   22.3607 H   0  0  0  0  0  0  0  0  0  0  0  0
   24.5926   24.6123   22.8421 H   0  0  0  0  0  0  0  0  0  0  0  0
   23.9536   24.6856   24.3431 H   0  0  0  0  0  0  0  0  0  0  0  0
   25.5081   24.2290   24.1389 H   0  0  0  0  0  0  0  0  0  0  0  0
   22.7013   23.0095   22.1474 H   0  0  0  0  0  0  0  0  0  0  0  0
   22.4413   21.6799   23.0593 H   0  0  0  0  0  0  0  0  0  0  0  0
   22.1001   23.1603   23.6582 H   0  0  0  0  0  0  0  0  0  0  0  0
   24.8209   21.0176   22.6787 H   0  0  0  0  0  0  0  0  0  0  0  0
   25.2523   22.3883   21.9030 H   0  0  0  0  0  0  0  0  0  0  0  0
   26.7436   22.8609   23.7720 H   0  0  0  0  0  0  0  0  0  0  0  0
  1  7  1  0  0  0  0
  2  8  1  0  0  0  0
  3  7  1  0  0  0  0
  4  8  1  0  0  0  0
  5  8  1  0  0  0  0
  6  7  1  0  0  0  0
  6  8  1  0  0  0  0
  1  9  1  0  0  0  0
  2 10  1  0  0  0  0
  3 11  1  0  0  0  0
  3 12  1  0  0  0  0
  3 13  1  0  0  0  0
  4 14  1  0  0  0  0
  4 15  1  0  0  0  0
  4 16  1  0  0  0  0
  5 17  1  0  0  0  0
  5 18  1  0  0  0  0
  5 19  1  0  0  0  0
  6 20  1  0  0  0  0
  6 21  1  0  0  0  0
  7 22  1  0  0  0  0
M  END
$$$$
5NW8_M77_A_402
prProtoss 08192303253D 1   1.00000     0.00000     0
Protoss beta proteinsplus
 38 40  0  0  0  0            999 V2000
    7.7870   10.8310    7.9960 S   0  0  0  0  0  0  0  0  0  0  0  0
    7.0380   10.5110    6.8240 O   0  0  0  0  0  0  0  0  0  0  0  0
    8.1400    9.7960    8.9180 O   0  0  0  0  0  0  0  0  0  0  0  0
    4.5330   12.7330   10.4470 N   0  3  0  0  0  0  0  0  0  0  0  0
   12.9820    9.7370    7.0370 N   0  0  0  0  0  0  0  0  0  0  0  0
    6.9130   11.9190    8.8420 N   0  0  0  0  0  0  0  0  0  0  0  0
    4.9610   13.4600    9.2410 C   0  0  0  0  0  0  0  0  0  0  0  0
    5.4830   12.7640   11.5670 C   0  0  0  0  0  0  0  0  0  0  0  0
   11.8540    9.0260    7.1940 C   0  0  0  0  0  0  0  0  0  0  0  0
   12.8750   11.0580    6.9850 C   0  0  0  0  0  0  0  0  0  0  0  0
    5.7730   12.6330    8.2310 C   0  0  0  0  0  0  0  0  0  0  0  0
    7.5060   12.4630   10.0800 C   0  0  0  0  0  0  0  0  0  0  0  0
    6.7850   12.0340   11.3380 C   0  0  0  0  0  0  0  0  0  0  0  0
   10.3510   13.7950    7.2370 C   0  0  0  0  0  0  0  0  0  0  0  0
   10.6140    9.5770    7.3120 C   0  0  0  0  0  0  0  0  0  0  0  0
    9.2000   13.0550    7.4570 C   0  0  0  0  0  0  0  0  0  0  0  0
   11.5570   13.1740    7.0640 C   0  0  0  0  0  0  0  0  0  0  0  0
    9.2530   11.6860    7.5040 C   0  0  0  0  0  0  0  0  0  0  0  0
   11.6530   11.7590    7.0900 C   0  0  0  0  0  0  0  0  0  0  0  0
   10.4770   10.9860    7.2830 C   0  0  0  0  0  0  0  0  0  0  0  0
    4.3832   11.7770   10.1949 H   0  0  0  0  0  0  0  0  0  0  0  0
    5.5238   14.2344    9.5301 H   0  0  0  0  0  0  0  0  0  0  0  0
    4.1423   13.7979    8.7768 H   0  0  0  0  0  0  0  0  0  0  0  0
    5.0356   12.3534   12.3615 H   0  0  0  0  0  0  0  0  0  0  0  0
    5.6970   13.7210   11.7626 H   0  0  0  0  0  0  0  0  0  0  0  0
   11.9289    8.0293    7.2263 H   0  0  0  0  0  0  0  0  0  0  0  0
   13.7121   11.5914    6.8638 H   0  0  0  0  0  0  0  0  0  0  0  0
    5.1650   11.9593    7.8108 H   0  0  0  0  0  0  0  0  0  0  0  0
    6.1253   13.2492    7.5266 H   0  0  0  0  0  0  0  0  0  0  0  0
    7.4842   13.4614   10.0284 H   0  0  0  0  0  0  0  0  0  0  0  0
    8.4549   12.1529   10.1385 H   0  0  0  0  0  0  0  0  0  0  0  0
    6.5915   11.0550   11.2733 H   0  0  0  0  0  0  0  0  0  0  0  0
    7.3847   12.2043   12.1199 H   0  0  0  0  0  0  0  0  0  0  0  0
   10.2991   14.7931    7.2044 H   0  0  0  0  0  0  0  0  0  0  0  0
    9.8093    8.9929    7.4179 H   0  0  0  0  0  0  0  0  0  0  0  0
    8.3251   13.5228    7.5823 H   0  0  0  0  0  0  0  0  0  0  0  0
   12.3798   13.7231    6.9176 H   0  0  0  0  0  0  0  0  0  0  0  0
    3.6722   13.1338   10.7605 H   0  0  0  0  0  0  0  0  0  0  0  0
  1  2  2  0  0  0  0
  1  3  2  0  0  0  0
  1  6  1  0  0  0  0
  1 18  1  0  0  0  0
  4  7  1  0  0  0  0
  4  8  1  0  0  0  0
  5  9  2  0  0  0  0
  5 10  1  0  0  0  0
  6 11  1  0  0  0  0
  6 12  1  0  0  0  0
  7 11  1  0  0  0  0
  8 13  1  0  0  0  0
  9 15  1  0  0  0  0
 10 19  2  0  0  0  0
 12 13  1  0  0  0  0
 14 16  1  0  0  0  0
 14 17  2  0  0  0  0
 15 20  2  0  0  0  0
 16 18  2  0  0  0  0
 17 19  1  0  0  0  0
 18 20  1  0  0  0  0
 19 20  1  0  0  0  0
  4 21  1  0  0  0  0
  7 22  1  0  0  0  0
  7 23  1  0  0  0  0
  8 24  1  0  0  0  0
  8 25  1  0  0  0  0
  9 26  1  0  0  0  0
 10 27  1  0  0  0  0
 11 28  1  0  0  0  0
 11 29  1  0  0  0  0
 12 30  1  0  0  0  0
 12 31  1  0  0  0  0
 13 32  1  0  0  0  0
 13 33  1  0  0  0  0
 14 34  1  0  0  0  0
 15 35  1  0  0  0  0
 16 36  1  0  0  0  0
 17 37  1  0  0  0  0
  4 38  1  0  0  0  0
M  CHG  1   4   1
M  END
$$$$
5NW8_RIP_D_101
prProtoss 08192303253D 1   1.00000     0.00000     0
Protoss beta proteinsplus
  9  8  0  0  0  0            999 V2000
   -0.4330    9.7320   11.9100 O   0  0  0  0  0  0  0  0  0  0  0  0
   -0.8440    8.4560   12.4010 C   0  0  0  0  0  0  0  0  0  0  0  0
   -1.3730   10.7780   12.1830 C   0  0  0  0  0  0  0  0  0  0  0  0
   -1.0273   11.6412   11.8151 H   0  0  0  0  0  0  0  0  0  0  0  0
   -2.2490   10.5594   11.7531 H   0  0  0  0  0  0  0  0  0  0  0  0
   -1.4988   10.8635   13.1714 H   0  0  0  0  0  0  0  0  0  0  0  0
   -0.0046    7.9172   12.4726 H   0  0  0  0  0  0  0  0  0  0  0  0
   -1.4265    8.0720   11.6846 H   0  0  0  0  0  0  0  0  0  0  0  0
   -1.5210    8.2340   13.5790 R#  0  0  0  0  0  0  0  0  0  0  0  0
  3  6  1  0  0  0  0
  2  9  1  0  0  0  0
  1  2  1  0  0  0  0
  1  3  1  0  0  0  0
  3  5  1  0  0  0  0
  3  4  1  0  0  0  0
  2  7  1  0  0  0  0
  2  8  1  0  0  0  0
M  RGP  1   9   1
M  END
$$$$
5O0E_M77_A_401
prProtoss 08192303233D 1   1.00000     0.00000     0
Protoss beta proteinsplus
 38 40  0  0  0  0            999 V2000
  -13.5920  -25.1530   27.1790 S   0  0  0  0  0  0  0  0  0  0  0  0
  -14.1060  -25.4330   28.4800 O   0  0  0  0  0  0  0  0  0  0  0  0
  -13.0500  -26.2110   26.3860 O   0  0  0  0  0  0  0  0  0  0  0  0
   -9.4250  -23.2630   26.8110 N   0  3  0  0  0  0  0  0  0  0  0  0
  -17.3330  -26.4760   23.5120 N   0  0  0  0  0  0  0  0  0  0  0  0
  -12.4140  -24.0490   27.3610 N   0  0  0  0  0  0  0  0  0  0  0  0
  -10.3640  -23.9780   25.9580 C   0  0  0  0  0  0  0  0  0  0  0  0
   -9.7230  -23.3300   28.2390 C   0  0  0  0  0  0  0  0  0  0  0  0
  -16.5570  -27.1350   24.3860 C   0  0  0  0  0  0  0  0  0  0  0  0
  -17.3270  -25.1520   23.5650 C   0  0  0  0  0  0  0  0  0  0  0  0
  -11.7950  -23.5190   26.1310 C   0  0  0  0  0  0  0  0  0  0  0  0
  -12.2490  -23.2830   28.6140 C   0  0  0  0  0  0  0  0  0  0  0  0
  -10.9190  -22.5490   28.7270 C   0  0  0  0  0  0  0  0  0  0  0  0
  -15.7880  -22.3110   25.4200 C   0  0  0  0  0  0  0  0  0  0  0  0
  -15.7360  -26.5290   25.2890 C   0  0  0  0  0  0  0  0  0  0  0  0
  -14.9080  -22.9960   26.2470 C   0  0  0  0  0  0  0  0  0  0  0  0
  -16.5850  -22.9830   24.5420 C   0  0  0  0  0  0  0  0  0  0  0  0
  -14.8460  -24.3640   26.2110 C   0  0  0  0  0  0  0  0  0  0  0  0
  -16.5520  -24.4010   24.4720 C   0  0  0  0  0  0  0  0  0  0  0  0
  -15.6960  -25.1190   25.3470 C   0  0  0  0  0  0  0  0  0  0  0  0
   -9.4263  -22.3011   26.5376 H   0  0  0  0  0  0  0  0  0  0  0  0
  -10.3141  -24.9524   26.1773 H   0  0  0  0  0  0  0  0  0  0  0  0
  -10.0981  -23.8369   25.0044 H   0  0  0  0  0  0  0  0  0  0  0  0
   -8.9207  -22.9916   28.7308 H   0  0  0  0  0  0  0  0  0  0  0  0
   -9.8752  -24.2908   28.4706 H   0  0  0  0  0  0  0  0  0  0  0  0
  -16.5828  -28.1346   24.3739 H   0  0  0  0  0  0  0  0  0  0  0  0
  -17.9086  -24.6545   22.9214 H   0  0  0  0  0  0  0  0  0  0  0  0
  -11.8087  -22.5199   26.1700 H   0  0  0  0  0  0  0  0  0  0  0  0
  -12.3286  -23.8292   25.3442 H   0  0  0  0  0  0  0  0  0  0  0  0
  -12.3224  -23.9189   29.3822 H   0  0  0  0  0  0  0  0  0  0  0  0
  -12.9851  -22.6083   28.6683 H   0  0  0  0  0  0  0  0  0  0  0  0
  -10.9813  -21.7074   28.1904 H   0  0  0  0  0  0  0  0  0  0  0  0
  -10.7702  -22.3206   29.6891 H   0  0  0  0  0  0  0  0  0  0  0  0
  -15.8376  -21.3134   25.4691 H   0  0  0  0  0  0  0  0  0  0  0  0
  -15.1683  -27.0767   25.9036 H   0  0  0  0  0  0  0  0  0  0  0  0
  -14.3160  -22.4878   26.8725 H   0  0  0  0  0  0  0  0  0  0  0  0
  -17.1995  -22.4721   23.9408 H   0  0  0  0  0  0  0  0  0  0  0  0
   -8.5146  -23.6499   26.6645 H   0  0  0  0  0  0  0  0  0  0  0  0
  1  2  2  0  0  0  0
  1  3  2  0  0  0  0
  1  6  1  0  0  0  0
  1 18  1  0  0  0  0
  4  7  1  0  0  0  0
  4  8  1  0  0  0  0
  5  9  2  0  0  0  0
  5 10  1  0  0  0  0
  6 11  1  0  0  0  0
  6 12  1  0  0  0  0
  7 11  1  0  0  0  0
  8 13  1  0  0  0  0
  9 15  1  0  0  0  0
 10 19  2  0  0  0  0
 12 13  1  0  0  0  0
 14 16  1  0  0  0  0
 14 17  2  0  0  0  0
 15 20  2  0  0  0  0
 16 18  2  0  0  0  0
 17 19  1  0  0  0  0
 18 20  1  0  0  0  0
 19 20  1  0  0  0  0
  4 21  1  0  0  0  0
  7 22  1  0  0  0  0
  7 23  1  0  0  0  0
  8 24  1  0  0  0  0
  8 25  1  0  0  0  0
  9 26  1  0  0  0  0
 10 27  1  0  0  0  0
 11 28  1  0  0  0  0
 11 29  1  0  0  0  0
 12 30  1  0  0  0  0
 12 31  1  0  0  0  0
 13 32  1  0  0  0  0
 13 33  1  0  0  0  0
 14 34  1  0  0  0  0
 15 35  1  0  0  0  0
 16 36  1  0  0  0  0
 17 37  1  0  0  0  0
  4 38  1  0  0  0  0
M  CHG  1   4   1
M  END
$$$$
5O0E_MPD_A_402
prProtoss 08192303233D 1   1.00000     0.00000     0
Protoss beta proteinsplus
 22 21  0  0  0  0            999 V2000
   -8.7920  -13.3100    4.8250 O   0  0  0  0  0  0  0  0  0  0  0  0
   -9.9250  -14.3330    2.7220 O   0  0  0  0  0  0  0  0  0  0  0  0
   -9.6650  -13.4910    6.8550 C   0  0  0  0  0  0  0  0  0  0  0  0
  -10.5580  -16.4010    3.5510 C   0  0  0  0  0  0  0  0  0  0  0  0
  -12.2840  -14.8050    2.6540 C   0  0  0  0  0  0  0  0  0  0  0  0
  -11.0630  -14.2250    4.8020 C   0  0  0  0  0  0  0  0  0  0  0  0
   -9.6900  -14.1200    5.5060 C   0  0  1  0  0  0  0  0  0  0  0  0
  -10.9890  -14.9500    3.4500 C   0  0  0  0  0  0  0  0  0  0  0  0
   -7.8982  -13.3545    5.2713 H   0  0  0  0  0  0  0  0  0  0  0  0
   -9.2321  -14.0006    3.3619 H   0  0  0  0  0  0  0  0  0  0  0  0
  -10.2834  -13.9862    7.4652 H   0  0  0  0  0  0  0  0  0  0  0  0
   -8.7355  -13.5263    7.2221 H   0  0  0  0  0  0  0  0  0  0  0  0
   -9.9593  -12.5379    6.7839 H   0  0  0  0  0  0  0  0  0  0  0  0
  -11.2503  -16.9203    4.0521 H   0  0  0  0  0  0  0  0  0  0  0  0
  -10.4549  -16.7828    2.6325 H   0  0  0  0  0  0  0  0  0  0  0  0
   -9.6847  -16.4564    4.0350 H   0  0  0  0  0  0  0  0  0  0  0  0
  -13.0342  -15.2344    3.1568 H   0  0  0  0  0  0  0  0  0  0  0  0
  -12.4855  -13.8348    2.5191 H   0  0  0  0  0  0  0  0  0  0  0  0
  -12.1804  -15.2508    1.7649 H   0  0  0  0  0  0  0  0  0  0  0  0
  -11.4147  -13.3014    4.6497 H   0  0  0  0  0  0  0  0  0  0  0  0
  -11.6898  -14.7262    5.3987 H   0  0  0  0  0  0  0  0  0  0  0  0
   -9.2989  -15.0376    5.5767 H   0  0  0  0  0  0  0  0  0  0  0  0
  1  7  1  0  0  0  0
  2  8  1  0  0  0  0
  3  7  1  0  0  0  0
  4  8  1  0  0  0  0
  5  8  1  0  0  0  0
  6  7  1  0  0  0  0
  6  8  1  0  0  0  0
  1  9  1  0  0  0  0
  2 10  1  0  0  0  0
  3 11  1  0  0  0  0
  3 12  1  0  0  0  0
  3 13  1  0  0  0  0
  4 14  1  0  0  0  0
  4 15  1  0  0  0  0
  4 16  1  0  0  0  0
  5 17  1  0  0  0  0
  5 18  1  0  0  0  0
  5 19  1  0  0  0  0
  6 20  1  0  0  0  0
  6 21  1  0  0  0  0
  7 22  1  0  0  0  0
M  END
$$$$
5OK3_M77_A_401
prProtoss 08192303243D 1   1.00000     0.00000     0
Protoss beta proteinsplus
 38 40  0  0  0  0            999 V2000
  -13.6150  -25.4080   27.1380 S   0  0  0  0  0  0  0  0  0  0  0  0
  -14.1340  -25.6760   28.4410 O   0  0  0  0  0  0  0  0  0  0  0  0
  -13.0600  -26.4710   26.3660 O   0  0  0  0  0  0  0  0  0  0  0  0
   -9.4080  -23.5060   26.8610 N   0  3  0  0  0  0  0  0  0  0  0  0
  -17.3470  -26.6490   23.3840 N   0  0  0  0  0  0  0  0  0  0  0  0
  -12.4310  -24.3070   27.3290 N   0  0  0  0  0  0  0  0  0  0  0  0
  -10.3920  -24.1550   25.9430 C   0  0  0  0  0  0  0  0  0  0  0  0
   -9.7410  -23.5480   28.2810 C   0  0  0  0  0  0  0  0  0  0  0  0
  -16.5760  -27.3370   24.2420 C   0  0  0  0  0  0  0  0  0  0  0  0
  -17.3400  -25.3300   23.4770 C   0  0  0  0  0  0  0  0  0  0  0  0
  -11.8170  -23.7410   26.1110 C   0  0  0  0  0  0  0  0  0  0  0  0
  -12.2790  -23.5800   28.6050 C   0  0  0  0  0  0  0  0  0  0  0  0
  -10.9840  -22.7910   28.7110 C   0  0  0  0  0  0  0  0  0  0  0  0
  -15.7690  -22.5450   25.3840 C   0  0  0  0  0  0  0  0  0  0  0  0
  -15.7710  -26.7610   25.1800 C   0  0  0  0  0  0  0  0  0  0  0  0
  -14.9150  -23.2520   26.2200 C   0  0  0  0  0  0  0  0  0  0  0  0
  -16.5710  -23.1910   24.4950 C   0  0  0  0  0  0  0  0  0  0  0  0
  -14.8730  -24.6180   26.1650 C   0  0  0  0  0  0  0  0  0  0  0  0
  -16.5640  -24.6040   24.4100 C   0  0  0  0  0  0  0  0  0  0  0  0
  -15.7240  -25.3540   25.2800 C   0  0  0  0  0  0  0  0  0  0  0  0
   -9.3257  -22.5460   26.5934 H   0  0  0  0  0  0  0  0  0  0  0  0
  -10.3413  -25.1429   26.0894 H   0  0  0  0  0  0  0  0  0  0  0  0
  -10.1205  -23.9427   25.0043 H   0  0  0  0  0  0  0  0  0  0  0  0
   -8.9654  -23.1690   28.7857 H   0  0  0  0  0  0  0  0  0  0  0  0
   -9.8671  -24.5070   28.5346 H   0  0  0  0  0  0  0  0  0  0  0  0
  -16.5934  -28.3355   24.1896 H   0  0  0  0  0  0  0  0  0  0  0  0
  -17.9203  -24.8131   22.8476 H   0  0  0  0  0  0  0  0  0  0  0  0
  -11.8567  -22.7433   26.1659 H   0  0  0  0  0  0  0  0  0  0  0  0
  -12.3371  -24.0520   25.3156 H   0  0  0  0  0  0  0  0  0  0  0  0
  -12.3052  -24.2447   29.3517 H   0  0  0  0  0  0  0  0  0  0  0  0
  -13.0446  -22.9435   28.6983 H   0  0  0  0  0  0  0  0  0  0  0  0
  -11.0674  -21.9773   28.1357 H   0  0  0  0  0  0  0  0  0  0  0  0
  -10.8654  -22.5142   29.6646 H   0  0  0  0  0  0  0  0  0  0  0  0
  -15.7949  -21.5467   25.4361 H   0  0  0  0  0  0  0  0  0  0  0  0
  -15.2198  -27.3296   25.7906 H   0  0  0  0  0  0  0  0  0  0  0  0
  -14.3288  -22.7609   26.8643 H   0  0  0  0  0  0  0  0  0  0  0  0
  -17.1717  -22.6622   23.8954 H   0  0  0  0  0  0  0  0  0  0  0  0
   -8.5269  -23.9628   26.7388 H   0  0  0  0  0  0  0  0  0  0  0  0
  1  2  2  0  0  0  0
  1  3  2  0  0  0  0
  1  6  1  0  0  0  0
  1 18  1  0  0  0  0
  4  7  1  0  0  0  0
  4  8  1  0  0  0  0
  5  9  2  0  0  0  0
  5 10  1  0  0  0  0
  6 11  1  0  0  0  0
  6 12  1  0  0  0  0
  7 11  1  0  0  0  0
  8 13  1  0  0  0  0
  9 15  1  0  0  0  0
 10 19  2  0  0  0  0
 12 13  1  0  0  0  0
 14 16  1  0  0  0  0
 14 17  2  0  0  0  0
 15 20  2  0  0  0  0
 16 18  2  0  0  0  0
 17 19  1  0  0  0  0
 18 20  1  0  0  0  0
 19 20  1  0  0  0  0
  4 21  1  0  0  0  0
  7 22  1  0  0  0  0
  7 23  1  0  0  0  0
  8 24  1  0  0  0  0
  8 25  1  0  0  0  0
  9 26  1  0  0  0  0
 10 27  1  0  0  0  0
 11 28  1  0  0  0  0
 11 29  1  0  0  0  0
 12 30  1  0  0  0  0
 12 31  1  0  0  0  0
 13 32  1  0  0  0  0
 13 33  1  0  0  0  0
 14 34  1  0  0  0  0
 15 35  1  0  0  0  0
 16 36  1  0  0  0  0
 17 37  1  0  0  0  0
  4 38  1  0  0  0  0
M  CHG  1   4   1
M  END
$$$$
6EM2_M77_A_401
prProtoss 08192303323D 1   1.00000     0.00000     0
Protoss beta proteinsplus
 38 40  0  0  0  0            999 V2000
  -14.7660    2.3190  -30.4410 S   0  0  0  0  0  0  0  0  0  0  0  0
  -15.7980    3.1440  -31.0070 O   0  0  0  0  0  0  0  0  0  0  0  0
  -14.2390    1.2570  -31.2250 O   0  0  0  0  0  0  0  0  0  0  0  0
  -18.3720    1.6320  -28.5750 N   0  3  0  0  0  0  0  0  0  0  0  0
   -9.6340    2.2140  -28.4670 N   0  0  0  0  0  0  0  0  0  0  0  0
  -15.3860    1.6360  -29.0920 N   0  0  0  0  0  0  0  0  0  0  0  0
  -17.5150    2.8210  -28.3250 C   0  0  0  0  0  0  0  0  0  0  0  0
  -18.1410    1.0100  -29.8970 C   0  0  0  0  0  0  0  0  0  0  0  0
  -10.5810    1.3000  -28.7370 C   0  0  0  0  0  0  0  0  0  0  0  0
   -9.9320    3.4830  -28.6930 C   0  0  0  0  0  0  0  0  0  0  0  0
  -16.0190    2.4880  -28.0620 C   0  0  0  0  0  0  0  0  0  0  0  0
  -15.8280    0.2250  -29.1020 C   0  0  0  0  0  0  0  0  0  0  0  0
  -17.0560   -0.0480  -29.9730 C   0  0  0  0  0  0  0  0  0  0  0  0
  -12.7080    5.6850  -29.8400 C   0  0  0  0  0  0  0  0  0  0  0  0
  -11.8240    1.5980  -29.2210 C   0  0  0  0  0  0  0  0  0  0  0  0
  -13.6980    4.7480  -30.0920 C   0  0  0  0  0  0  0  0  0  0  0  0
  -11.4800    5.3020  -29.4060 C   0  0  0  0  0  0  0  0  0  0  0  0
  -13.4480    3.4130  -29.9330 C   0  0  0  0  0  0  0  0  0  0  0  0
  -11.1840    3.9360  -29.1920 C   0  0  0  0  0  0  0  0  0  0  0  0
  -12.1720    2.9510  -29.4620 C   0  0  0  0  0  0  0  0  0  0  0  0
  -19.3298    1.9143  -28.5203 H   0  0  0  0  0  0  0  0  0  0  0  0
  -17.8737    3.3030  -27.5256 H   0  0  0  0  0  0  0  0  0  0  0  0
  -17.5668    3.4182  -29.1254 H   0  0  0  0  0  0  0  0  0  0  0  0
  -17.8982    1.7393  -30.5366 H   0  0  0  0  0  0  0  0  0  0  0  0
  -18.9990    0.5853  -30.1859 H   0  0  0  0  0  0  0  0  0  0  0  0
  -10.3620    0.3382  -28.5730 H   0  0  0  0  0  0  0  0  0  0  0  0
   -9.2304    4.1689  -28.5001 H   0  0  0  0  0  0  0  0  0  0  0  0
  -15.5118    3.3486  -28.0147 H   0  0  0  0  0  0  0  0  0  0  0  0
  -15.9549    2.0146  -27.1835 H   0  0  0  0  0  0  0  0  0  0  0  0
  -16.0456   -0.0410  -28.1629 H   0  0  0  0  0  0  0  0  0  0  0  0
  -15.0732   -0.3365  -29.4411 H   0  0  0  0  0  0  0  0  0  0  0  0
  -16.7537   -0.1152  -30.9238 H   0  0  0  0  0  0  0  0  0  0  0  0
  -17.4522   -0.9204  -29.6867 H   0  0  0  0  0  0  0  0  0  0  0  0
  -12.9010    6.6562  -29.9798 H   0  0  0  0  0  0  0  0  0  0  0  0
  -12.4824    0.8678  -29.4036 H   0  0  0  0  0  0  0  0  0  0  0  0
  -14.6024    5.0508  -30.3925 H   0  0  0  0  0  0  0  0  0  0  0  0
  -10.7775    5.9931  -29.2359 H   0  0  0  0  0  0  0  0  0  0  0  0
  -18.1842    0.9512  -27.8670 H   0  0  0  0  0  0  0  0  0  0  0  0
  1  2  2  0  0  0  0
  1  3  2  0  0  0  0
  1  6  1  0  0  0  0
  1 18  1  0  0  0  0
  4  7  1  0  0  0  0
  4  8  1  0  0  0  0
  5  9  2  0  0  0  0
  5 10  1  0  0  0  0
  6 11  1  0  0  0  0
  6 12  1  0  0  0  0
  7 11  1  0  0  0  0
  8 13  1  0  0  0  0
  9 15  1  0  0  0  0
 10 19  2  0  0  0  0
 12 13  1  0  0  0  0
 14 16  1  0  0  0  0
 14 17  2  0  0  0  0
 15 20  2  0  0  0  0
 16 18  2  0  0  0  0
 17 19  1  0  0  0  0
 18 20  1  0  0  0  0
 19 20  1  0  0  0  0
  4 21  1  0  0  0  0
  7 22  1  0  0  0  0
  7 23  1  0  0  0  0
  8 24  1  0  0  0  0
  8 25  1  0  0  0  0
  9 26  1  0  0  0  0
 10 27  1  0  0  0  0
 11 28  1  0  0  0  0
 11 29  1  0  0  0  0
 12 30  1  0  0  0  0
 12 31  1  0  0  0  0
 13 32  1  0  0  0  0
 13 33  1  0  0  0  0
 14 34  1  0  0  0  0
 15 35  1  0  0  0  0
 16 36  1  0  0  0  0
 17 37  1  0  0  0  0
  4 38  1  0  0  0  0
M  CHG  1   4   1
M  END
$$$$
6EM2_MPD_A_402
prProtoss 08192303323D 1   1.00000     0.00000     0
Protoss beta proteinsplus
 22 21  0  0  0  0            999 V2000
   -9.4390   18.2590  -11.7920 O   0  0  0  0  0  0  0  0  0  0  0  0
   -6.8390   18.4440   -8.1580 O   0  0  0  0  0  0  0  0  0  0  0  0
   -8.9530   19.7520  -10.0990 C   0  0  0  0  0  0  0  0  0  0  0  0
   -6.4300   16.1930   -8.6970 C   0  0  0  0  0  0  0  0  0  0  0  0
   -5.3050   18.0740   -9.9670 C   0  0  0  0  0  0  0  0  0  0  0  0
   -7.7320   17.4590  -10.3230 C   0  0  0  0  0  0  0  0  0  0  0  0
   -8.3490   18.6840  -10.9930 C   0  0  1  0  0  0  0  0  0  0  0  0
   -6.5880   17.5830   -9.3070 C   0  0  0  0  0  0  0  0  0  0  0  0
   -9.1323   17.5453  -12.4217 H   0  0  0  0  0  0  0  0  0  0  0  0
   -5.9696   18.7870   -7.8023 H   0  0  0  0  0  0  0  0  0  0  0  0
   -8.2474   20.1158   -9.4909 H   0  0  0  0  0  0  0  0  0  0  0  0
   -9.3197   20.4912  -10.6638 H   0  0  0  0  0  0  0  0  0  0  0  0
   -9.6897   19.3525   -9.5534 H   0  0  0  0  0  0  0  0  0  0  0  0
   -6.2524   15.5286   -9.4230 H   0  0  0  0  0  0  0  0  0  0  0  0
   -5.6644   16.1964   -8.0537 H   0  0  0  0  0  0  0  0  0  0  0  0
   -7.2696   15.9433   -8.2147 H   0  0  0  0  0  0  0  0  0  0  0  0
   -5.1004   17.5042  -10.7629 H   0  0  0  0  0  0  0  0  0  0  0  0
   -5.4221   19.0235  -10.2581 H   0  0  0  0  0  0  0  0  0  0  0  0
   -4.5506   18.0165   -9.3131 H   0  0  0  0  0  0  0  0  0  0  0  0
   -7.3901   16.8775  -11.0612 H   0  0  0  0  0  0  0  0  0  0  0  0
   -8.4787   16.9920   -9.8494 H   0  0  0  0  0  0  0  0  0  0  0  0
   -7.6626   19.1084  -11.5836 H   0  0  0  0  0  0  0  0  0  0  0  0
  1  7  1  0  0  0  0
  2  8  1  0  0  0  0
  3  7  1  0  0  0  0
  4  8  1  0  0  0  0
  5  8  1  0  0  0  0
  6  7  1  0  0  0  0
  6  8  1  0  0  0  0
  1  9  1  0  0  0  0
  2 10  1  0  0  0  0
  3 11  1  0  0  0  0
  3 12  1  0  0  0  0
  3 13  1  0  0  0  0
  4 14  1  0  0  0  0
  4 15  1  0  0  0  0
  4 16  1  0  0  0  0
  5 17  1  0  0  0  0
  5 18  1  0  0  0  0
  5 19  1  0  0  0  0
  6 20  1  0  0  0  0
  6 21  1  0  0  0  0
  7 22  1  0  0  0  0
M  END
$$$$
6ERW_M77_A_401
prProtoss 08192303233D 1   1.00000     0.00000     0
Protoss beta proteinsplus
 38 40  0  0  0  0            999 V2000
   13.5630  -23.1990  -27.7510 S   0  0  0  0  0  0  0  0  0  0  0  0
   14.1150  -23.3420  -29.0610 O   0  0  0  0  0  0  0  0  0  0  0  0
   13.0200  -24.3370  -27.0790 O   0  0  0  0  0  0  0  0  0  0  0  0
    9.3370  -21.5120  -27.4710 N   0  3  0  0  0  0  0  0  0  0  0  0
   17.2320  -24.7200  -24.0520 N   0  0  0  0  0  0  0  0  0  0  0  0
   12.3620  -22.1030  -27.8670 N   0  0  0  0  0  0  0  0  0  0  0  0
   10.2710  -22.1740  -26.5680 C   0  0  0  0  0  0  0  0  0  0  0  0
    9.8700  -20.5450  -28.4350 C   0  0  0  0  0  0  0  0  0  0  0  0
   16.4600  -25.3390  -24.9610 C   0  0  0  0  0  0  0  0  0  0  0  0
   17.2180  -23.3960  -24.0380 C   0  0  0  0  0  0  0  0  0  0  0  0
   11.6640  -21.6470  -26.6470 C   0  0  0  0  0  0  0  0  0  0  0  0
   12.2290  -21.2590  -29.0700 C   0  0  0  0  0  0  0  0  0  0  0  0
   10.7820  -21.0850  -29.5090 C   0  0  0  0  0  0  0  0  0  0  0  0
   15.6910  -20.4690  -25.7730 C   0  0  0  0  0  0  0  0  0  0  0  0
   15.6530  -24.6910  -25.8490 C   0  0  0  0  0  0  0  0  0  0  0  0
   14.8530  -21.1110  -26.6680 C   0  0  0  0  0  0  0  0  0  0  0  0
   16.4650  -21.1840  -24.9050 C   0  0  0  0  0  0  0  0  0  0  0  0
   14.7900  -22.4790  -26.7000 C   0  0  0  0  0  0  0  0  0  0  0  0
   16.4460  -22.6010  -24.9160 C   0  0  0  0  0  0  0  0  0  0  0  0
   15.6150  -23.2770  -25.8450 C   0  0  0  0  0  0  0  0  0  0  0  0
    8.6698  -21.0283  -26.9045 H   0  0  0  0  0  0  0  0  0  0  0  0
   10.2896  -23.1482  -26.7930 H   0  0  0  0  0  0  0  0  0  0  0  0
    9.9417  -22.0545  -25.6314 H   0  0  0  0  0  0  0  0  0  0  0  0
   10.3824  -19.8570  -27.9211 H   0  0  0  0  0  0  0  0  0  0  0  0
    9.0921  -20.1108  -28.8892 H   0  0  0  0  0  0  0  0  0  0  0  0
   16.4784  -26.3385  -24.9881 H   0  0  0  0  0  0  0  0  0  0  0  0
   17.7898  -22.9288  -23.3636 H   0  0  0  0  0  0  0  0  0  0  0  0
   11.6311  -20.6475  -26.6487 H   0  0  0  0  0  0  0  0  0  0  0  0
   12.1740  -21.9623  -25.8467 H   0  0  0  0  0  0  0  0  0  0  0  0
   12.7409  -21.6836  -29.8168 H   0  0  0  0  0  0  0  0  0  0  0  0
   12.6139  -20.3574  -28.8723 H   0  0  0  0  0  0  0  0  0  0  0  0
   10.7632  -20.4526  -30.2834 H   0  0  0  0  0  0  0  0  0  0  0  0
   10.4327  -21.9763  -29.7980 H   0  0  0  0  0  0  0  0  0  0  0  0
   15.7300  -19.4698  -25.7620 H   0  0  0  0  0  0  0  0  0  0  0  0
   15.0942  -25.2098  -26.4960 H   0  0  0  0  0  0  0  0  0  0  0  0
   14.2900  -20.5729  -27.2952 H   0  0  0  0  0  0  0  0  0  0  0  0
   17.0519  -20.7025  -24.2541 H   0  0  0  0  0  0  0  0  0  0  0  0
    8.8738  -22.2272  -27.9943 H   0  0  0  0  0  0  0  0  0  0  0  0
  1  2  2  0  0  0  0
  1  3  2  0  0  0  0
  1  6  1  0  0  0  0
  1 18  1  0  0  0  0
  4  7  1  0  0  0  0
  4  8  1  0  0  0  0
  5  9  2  0  0  0  0
  5 10  1  0  0  0  0
  6 11  1  0  0  0  0
  6 12  1  0  0  0  0
  7 11  1  0  0  0  0
  8 13  1  0  0  0  0
  9 15  1  0  0  0  0
 10 19  2  0  0  0  0
 12 13  1  0  0  0  0
 14 16  1  0  0  0  0
 14 17  2  0  0  0  0
 15 20  2  0  0  0  0
 16 18  2  0  0  0  0
 17 19  1  0  0  0  0
 18 20  1  0  0  0  0
 19 20  1  0  0  0  0
  4 21  1  0  0  0  0
  7 22  1  0  0  0  0
  7 23  1  0  0  0  0
  8 24  1  0  0  0  0
  8 25  1  0  0  0  0
  9 26  1  0  0  0  0
 10 27  1  0  0  0  0
 11 28  1  0  0  0  0
 11 29  1  0  0  0  0
 12 30  1  0  0  0  0
 12 31  1  0  0  0  0
 13 32  1  0  0  0  0
 13 33  1  0  0  0  0
 14 34  1  0  0  0  0
 15 35  1  0  0  0  0
 16 36  1  0  0  0  0
 17 37  1  0  0  0  0
  4 38  1  0  0  0  0
M  CHG  1   4   1
M  END
$$$$
6ERW_MPD_A_402
prProtoss 08192303233D 1   1.00000     0.00000     0
Protoss beta proteinsplus
 22 21  0  0  0  0            999 V2000
    8.7250  -13.1130   -4.0880 O   0  0  0  0  0  0  0  0  0  0  0  0
   10.1720  -13.6460   -2.1950 O   0  0  0  0  0  0  0  0  0  0  0  0
    9.7440  -12.4690   -6.1700 C   0  0  0  0  0  0  0  0  0  0  0  0
   10.4790  -15.8590   -3.1280 C   0  0  0  0  0  0  0  0  0  0  0  0
   12.4340  -14.4590   -2.4640 C   0  0  0  0  0  0  0  0  0  0  0  0
   11.0500  -13.8240   -4.4690 C   0  0  0  0  0  0  0  0  0  0  0  0
    9.6630  -13.5240   -5.0660 C   0  0  1  0  0  0  0  0  0  0  0  0
   11.0250  -14.4380   -3.0650 C   0  0  0  0  0  0  0  0  0  0  0  0
    9.1823  -13.0271   -3.2028 H   0  0  0  0  0  0  0  0  0  0  0  0
   10.7114  -13.2934   -1.4303 H   0  0  0  0  0  0  0  0  0  0  0  0
   10.4064  -12.7594   -6.8606 H   0  0  0  0  0  0  0  0  0  0  0  0
    8.8451  -12.3614   -6.5948 H   0  0  0  0  0  0  0  0  0  0  0  0
   10.0334  -11.5964   -5.7766 H   0  0  0  0  0  0  0  0  0  0  0  0
   11.0594  -16.4130   -3.7248 H   0  0  0  0  0  0  0  0  0  0  0  0
   10.4718  -16.2544   -2.2095 H   0  0  0  0  0  0  0  0  0  0  0  0
    9.5474  -15.8423   -3.4910 H   0  0  0  0  0  0  0  0  0  0  0  0
   13.0379  -15.0002   -3.0491 H   0  0  0  0  0  0  0  0  0  0  0  0
   12.7827  -13.5240   -2.3992 H   0  0  0  0  0  0  0  0  0  0  0  0
   12.4011  -14.8664   -1.5514 H   0  0  0  0  0  0  0  0  0  0  0  0
   11.5619  -12.9661   -4.4245 H   0  0  0  0  0  0  0  0  0  0  0  0
   11.5203  -14.4615   -5.0792 H   0  0  0  0  0  0  0  0  0  0  0  0
    9.3211  -14.3686   -5.4781 H   0  0  0  0  0  0  0  0  0  0  0  0
  1  7  1  0  0  0  0
  2  8  1  0  0  0  0
  3  7  1  0  0  0  0
  4  8  1  0  0  0  0
  5  8  1  0  0  0  0
  6  7  1  0  0  0  0
  6  8  1  0  0  0  0
  1  9  1  0  0  0  0
  2 10  1  0  0  0  0
  3 11  1  0  0  0  0
  3 12  1  0  0  0  0
  3 13  1  0  0  0  0
  4 14  1  0  0  0  0
  4 15  1  0  0  0  0
  4 16  1  0  0  0  0
  5 17  1  0  0  0  0
  5 18  1  0  0  0  0
  5 19  1  0  0  0  0
  6 20  1  0  0  0  0
  6 21  1  0  0  0  0
  7 22  1  0  0  0  0
M  END
$$$$
6I2A_M77_A_401
prProtoss 08192303203D 1   1.00000     0.00000     0
Protoss beta proteinsplus
 38 40  0  0  0  0            999 V2000
  -13.5170  -25.1600   27.2520 S   0  0  0  0  0  0  0  0  0  0  0  0
  -14.0780  -25.4040   28.5480 O   0  0  0  0  0  0  0  0  0  0  0  0
  -13.0020  -26.2470   26.4900 O   0  0  0  0  0  0  0  0  0  0  0  0
   -9.3020  -23.1640   26.9050 N   0  3  0  0  0  0  0  0  0  0  0  0
  -17.3570  -26.4240   23.6030 N   0  0  0  0  0  0  0  0  0  0  0  0
  -12.2870  -24.0950   27.4640 N   0  0  0  0  0  0  0  0  0  0  0  0
  -10.2150  -23.8740   25.9800 C   0  0  0  0  0  0  0  0  0  0  0  0
   -9.6680  -23.4070   28.3080 C   0  0  0  0  0  0  0  0  0  0  0  0
  -16.5390  -27.1020   24.4240 C   0  0  0  0  0  0  0  0  0  0  0  0
  -17.3390  -25.1010   23.6800 C   0  0  0  0  0  0  0  0  0  0  0  0
  -11.6630  -23.5090   26.2560 C   0  0  0  0  0  0  0  0  0  0  0  0
  -12.1760  -23.3300   28.7190 C   0  0  0  0  0  0  0  0  0  0  0  0
  -10.8310  -22.6190   28.8580 C   0  0  0  0  0  0  0  0  0  0  0  0
  -15.6910  -22.3000   25.5070 C   0  0  0  0  0  0  0  0  0  0  0  0
  -15.6930  -26.5170   25.3250 C   0  0  0  0  0  0  0  0  0  0  0  0
  -14.8120  -23.0020   26.3130 C   0  0  0  0  0  0  0  0  0  0  0  0
  -16.5150  -22.9530   24.6410 C   0  0  0  0  0  0  0  0  0  0  0  0
  -14.7640  -24.3690   26.2710 C   0  0  0  0  0  0  0  0  0  0  0  0
  -16.5130  -24.3680   24.5660 C   0  0  0  0  0  0  0  0  0  0  0  0
  -15.6420  -25.1070   25.4120 C   0  0  0  0  0  0  0  0  0  0  0  0
   -9.3506  -22.1823   26.7210 H   0  0  0  0  0  0  0  0  0  0  0  0
  -10.0982  -24.8601   26.0984 H   0  0  0  0  0  0  0  0  0  0  0  0
   -9.9880  -23.6220   25.0393 H   0  0  0  0  0  0  0  0  0  0  0  0
   -8.8679  -23.1959   28.8695 H   0  0  0  0  0  0  0  0  0  0  0  0
   -9.8916  -24.3775   28.3978 H   0  0  0  0  0  0  0  0  0  0  0  0
  -16.5491  -28.1007   24.3732 H   0  0  0  0  0  0  0  0  0  0  0  0
  -17.9472  -24.5882   23.0741 H   0  0  0  0  0  0  0  0  0  0  0  0
  -11.7115  -22.5141   26.3442 H   0  0  0  0  0  0  0  0  0  0  0  0
  -12.2030  -23.8003   25.4664 H   0  0  0  0  0  0  0  0  0  0  0  0
  -12.2864  -23.9593   29.4883 H   0  0  0  0  0  0  0  0  0  0  0  0
  -12.9041  -22.6449   28.7417 H   0  0  0  0  0  0  0  0  0  0  0  0
  -10.8821  -21.7485   28.3684 H   0  0  0  0  0  0  0  0  0  0  0  0
  -10.6642  -22.4462   29.8287 H   0  0  0  0  0  0  0  0  0  0  0  0
  -15.7216  -21.3019   25.5610 H   0  0  0  0  0  0  0  0  0  0  0  0
  -15.1163  -27.0808   25.9163 H   0  0  0  0  0  0  0  0  0  0  0  0
  -14.2051  -22.5048   26.9331 H   0  0  0  0  0  0  0  0  0  0  0  0
  -17.1285  -22.4277   24.0513 H   0  0  0  0  0  0  0  0  0  0  0  0
   -8.3678  -23.4860   26.7516 H   0  0  0  0  0  0  0  0  0  0  0  0
  1  2  2  0  0  0  0
  1  3  2  0  0  0  0
  1  6  1  0  0  0  0
  1 18  1  0  0  0  0
  4  7  1  0  0  0  0
  4  8  1  0  0  0  0
  5  9  2  0  0  0  0
  5 10  1  0  0  0  0
  6 11  1  0  0  0  0
  6 12  1  0  0  0  0
  7 11  1  0  0  0  0
  8 13  1  0  0  0  0
  9 15  1  0  0  0  0
 10 19  2  0  0  0  0
 12 13  1  0  0  0  0
 14 16  1  0  0  0  0
 14 17  2  0  0  0  0
 15 20  2  0  0  0  0
 16 18  2  0  0  0  0
 17 19  1  0  0  0  0
 18 20  1  0  0  0  0
 19 20  1  0  0  0  0
  4 21  1  0  0  0  0
  7 22  1  0  0  0  0
  7 23  1  0  0  0  0
  8 24  1  0  0  0  0
  8 25  1  0  0  0  0
  9 26  1  0  0  0  0
 10 27  1  0  0  0  0
 11 28  1  0  0  0  0
 11 29  1  0  0  0  0
 12 30  1  0  0  0  0
 12 31  1  0  0  0  0
 13 32  1  0  0  0  0
 13 33  1  0  0  0  0
 14 34  1  0  0  0  0
 15 35  1  0  0  0  0
 16 36  1  0  0  0  0
 17 37  1  0  0  0  0
  4 38  1  0  0  0  0
M  CHG  1   4   1
M  END
$$$$
6I2A_RIP_D_101
prProtoss 08192303203D 1   1.00000     0.00000     0
Protoss beta proteinsplus
 19 19  0  0  0  0            999 V2000
    5.1950  -36.5010   31.7510 O   0  0  0  0  0  0  0  0  0  0  0  0
    3.0150  -35.9510   33.6860 O   0  0  0  0  0  0  0  0  0  0  0  0
    5.7050  -35.4690   34.3230 O   0  0  0  0  0  0  0  0  0  0  0  0
    3.3060  -34.5000   31.1570 O   0  0  0  0  0  0  0  0  0  0  0  0
    4.6940  -34.3470   30.8800 C   0  0  1  0  0  0  0  0  0  0  0  0
    2.8920  -33.9250   32.3980 C   0  0  0  0  0  0  0  0  0  0  0  0
    5.4570  -35.1180   31.9440 C   0  0  1  0  0  0  0  0  0  0  0  0
    3.5580  -34.6290   33.5680 C   0  0  2  0  0  0  0  0  0  0  0  0
    5.0640  -34.6520   33.3440 C   0  0  1  0  0  0  0  0  0  0  0  0
    4.8904  -34.7512   29.9867 H   0  0  0  0  0  0  0  0  0  0  0  0
    1.8996  -34.0122   32.4848 H   0  0  0  0  0  0  0  0  0  0  0  0
    3.1440  -32.9574   32.4112 H   0  0  0  0  0  0  0  0  0  0  0  0
    6.4356  -34.9568   31.8160 H   0  0  0  0  0  0  0  0  0  0  0  0
    3.3621  -34.1212   34.4069 H   0  0  0  0  0  0  0  0  0  0  0  0
    5.4024  -33.7181   33.4593 H   0  0  0  0  0  0  0  0  0  0  0  0
    4.3902  -36.7651   32.2825 H   0  0  0  0  0  0  0  0  0  0  0  0
    2.0694  -35.9533   33.3605 H   0  0  0  0  0  0  0  0  0  0  0  0
    5.4444  -35.1598   35.2376 H   0  0  0  0  0  0  0  0  0  0  0  0
    5.0690  -33.0220   30.8590 R#  0  0  0  0  0  0  0  0  0  0  0  0
  8  9  1  0  0  0  0
  5 19  1  0  0  0  0
  1  7  1  0  0  0  0
  2  8  1  0  0  0  0
  3  9  1  0  0  0  0
  4  5  1  0  0  0  0
  4  6  1  0  0  0  0
  5  7  1  0  0  0  0
  6  8  1  0  0  0  0
  7  9  1  0  0  0  0
  5 10  1  0  0  0  0
  6 11  1  0  0  0  0
  6 12  1  0  0  0  0
  7 13  1  0  0  0  0
  8 14  1  0  0  0  0
  9 15  1  0  0  0  0
  1 16  1  0  0  0  0
  2 17  1  0  0  0  0
  3 18  1  0  0  0  0
M  RGP  1  19   1
M  END
$$$$
6I2C_M77_A_401
prProtoss 08192303203D 1   1.00000     0.00000     0
Protoss beta proteinsplus
 38 40  0  0  0  0            999 V2000
    7.8280   10.9210    8.0260 S   0  0  0  0  0  0  0  0  0  0  0  0
    7.0910   10.5660    6.8520 O   0  0  0  0  0  0  0  0  0  0  0  0
    8.1980    9.9080    8.9520 O   0  0  0  0  0  0  0  0  0  0  0  0
    5.6950   13.1120   11.5160 N   0  3  0  0  0  0  0  0  0  0  0  0
   12.9990    9.7640    6.9370 N   0  0  0  0  0  0  0  0  0  0  0  0
    6.9260   12.0130    8.8490 N   0  0  0  0  0  0  0  0  0  0  0  0
    6.8830   12.2650   11.3430 C   0  0  0  0  0  0  0  0  0  0  0  0
    4.6990   12.9130   10.4300 C   0  0  0  0  0  0  0  0  0  0  0  0
   11.8660    9.0620    7.1170 C   0  0  0  0  0  0  0  0  0  0  0  0
   12.9030   11.0850    6.9180 C   0  0  0  0  0  0  0  0  0  0  0  0
    7.6000   12.5620   10.0450 C   0  0  0  0  0  0  0  0  0  0  0  0
    5.9050   12.8530    8.1900 C   0  0  0  0  0  0  0  0  0  0  0  0
    5.0500   13.6570    9.1670 C   0  0  0  0  0  0  0  0  0  0  0  0
   10.4010   13.8480    7.1790 C   0  0  0  0  0  0  0  0  0  0  0  0
   10.6370    9.6290    7.3180 C   0  0  0  0  0  0  0  0  0  0  0  0
    9.2620   13.1250    7.4780 C   0  0  0  0  0  0  0  0  0  0  0  0
   11.6040   13.2100    7.0120 C   0  0  0  0  0  0  0  0  0  0  0  0
    9.3050   11.7600    7.5650 C   0  0  0  0  0  0  0  0  0  0  0  0
   11.6940   11.7990    7.0900 C   0  0  0  0  0  0  0  0  0  0  0  0
   10.5210   11.0400    7.3320 C   0  0  0  0  0  0  0  0  0  0  0  0
    5.9807   14.0703   11.5191 H   0  0  0  0  0  0  0  0  0  0  0  0
    6.5998   11.3059   11.3443 H   0  0  0  0  0  0  0  0  0  0  0  0
    7.5106   12.4283   12.1042 H   0  0  0  0  0  0  0  0  0  0  0  0
    3.8081   13.2335   10.7518 H   0  0  0  0  0  0  0  0  0  0  0  0
    4.6463   11.9366   10.2207 H   0  0  0  0  0  0  0  0  0  0  0  0
   11.9254    8.0639    7.1031 H   0  0  0  0  0  0  0  0  0  0  0  0
   13.7402   11.6122    6.7725 H   0  0  0  0  0  0  0  0  0  0  0  0
    7.6658   13.5545    9.9416 H   0  0  0  0  0  0  0  0  0  0  0  0
    8.5188   12.1706   10.0961 H   0  0  0  0  0  0  0  0  0  0  0  0
    5.3022   12.2585    7.6578 H   0  0  0  0  0  0  0  0  0  0  0  0
    6.3693   13.4919    7.5767 H   0  0  0  0  0  0  0  0  0  0  0  0
    5.5532   14.4838    9.4185 H   0  0  0  0  0  0  0  0  0  0  0  0
    4.2002   13.9115    8.7054 H   0  0  0  0  0  0  0  0  0  0  0  0
   10.3481   14.8421    7.0838 H   0  0  0  0  0  0  0  0  0  0  0  0
    9.8304    9.0536    7.4534 H   0  0  0  0  0  0  0  0  0  0  0  0
    8.3978   13.6040    7.6323 H   0  0  0  0  0  0  0  0  0  0  0  0
   12.4276   13.7481    6.8329 H   0  0  0  0  0  0  0  0  0  0  0  0
    5.2656   12.8893   12.3913 H   0  0  0  0  0  0  0  0  0  0  0  0
  1  2  2  0  0  0  0
  1  3  2  0  0  0  0
  1  6  1  0  0  0  0
  1 18  1  0  0  0  0
  4  7  1  0  0  0  0
  4  8  1  0  0  0  0
  5  9  2  0  0  0  0
  5 10  1  0  0  0  0
  6 11  1  0  0  0  0
  6 12  1  0  0  0  0
  7 11  1  0  0  0  0
  8 13  1  0  0  0  0
  9 15  1  0  0  0  0
 10 19  2  0  0  0  0
 12 13  1  0  0  0  0
 14 16  1  0  0  0  0
 14 17  2  0  0  0  0
 15 20  2  0  0  0  0
 16 18  2  0  0  0  0
 17 19  1  0  0  0  0
 18 20  1  0  0  0  0
 19 20  1  0  0  0  0
  4 21  1  0  0  0  0
  7 22  1  0  0  0  0
  7 23  1  0  0  0  0
  8 24  1  0  0  0  0
  8 25  1  0  0  0  0
  9 26  1  0  0  0  0
 10 27  1  0  0  0  0
 11 28  1  0  0  0  0
 11 29  1  0  0  0  0
 12 30  1  0  0  0  0
 12 31  1  0  0  0  0
 13 32  1  0  0  0  0
 13 33  1  0  0  0  0
 14 34  1  0  0  0  0
 15 35  1  0  0  0  0
 16 36  1  0  0  0  0
 17 37  1  0  0  0  0
  4 38  1  0  0  0  0
M  CHG  1   4   1
M  END
$$$$
6I2C_RIP_B_101
prProtoss 08192303203D 1   1.00000     0.00000     0
Protoss beta proteinsplus
 16 16  0  0  0  0            999 V2000
   -6.7030    6.9620   14.5870 O   0  0  0  0  0  0  0  0  0  0  0  0
   -6.2680    8.1980   14.0220 C   0  0  0  0  0  0  0  0  0  0  0  0
   -6.7570    6.9760   16.0200 C   0  0  1  0  0  0  0  0  0  0  0  0
   -7.2070    9.3260   14.4460 C   0  0  0  0  0  0  0  0  0  0  0  0
   -7.7140    8.0410   16.5270 C   0  0  0  0  0  0  0  0  0  0  0  0
   -7.3040    9.3920   15.9650 C   0  0  0  0  0  0  0  0  0  0  0  0
   -6.2681    8.1244   13.0247 H   0  0  0  0  0  0  0  0  0  0  0  0
   -5.3422    8.4003   14.3412 H   0  0  0  0  0  0  0  0  0  0  0  0
   -7.1586    6.0997   16.2862 H   0  0  0  0  0  0  0  0  0  0  0  0
   -8.1162    9.1591   14.0645 H   0  0  0  0  0  0  0  0  0  0  0  0
   -6.8549   10.1957   14.1000 H   0  0  0  0  0  0  0  0  0  0  0  0
   -7.6818    8.0709   17.5260 H   0  0  0  0  0  0  0  0  0  0  0  0
   -8.6437    7.8236   16.2298 H   0  0  0  0  0  0  0  0  0  0  0  0
   -7.9856   10.0769   16.2225 H   0  0  0  0  0  0  0  0  0  0  0  0
   -6.4140    9.6495   16.3414 H   0  0  0  0  0  0  0  0  0  0  0  0
   -5.4030    6.8450   16.2230 R#  0  0  0  0  0  0  0  0  0  0  0  0
  5  6  1  0  0  0  0
  3 16  1  0  0  0  0
  1  2  1  0  0  0  0
  1  3  1  0  0  0  0
  2  4  1  0  0  0  0
  3  5  1  0  0  0  0
  4  6  1  0  0  0  0
  2  7  1  0  0  0  0
  2  8  1  0  0  0  0
  3  9  1  0  0  0  0
  4 10  1  0  0  0  0
  4 11  1  0  0  0  0
  5 12  1  0  0  0  0
  5 13  1  0  0  0  0
  6 14  1  0  0  0  0
  6 15  1  0  0  0  0
M  RGP  1  16   1
M  END
$$$$
6YNA_MPD_A_401
prProtoss 08182323023D 1   1.00000     0.00000     0
Protoss beta proteinsplus
 22 21  0  0  0  0            999 V2000
   -8.0820  -12.9560    4.6570 O   0  0  0  0  0  0  0  0  0  0  0  0
   -9.3770  -13.8290    2.4770 O   0  0  0  0  0  0  0  0  0  0  0  0
   -8.9360  -13.5620    6.8010 C   0  0  0  0  0  0  0  0  0  0  0  0
   -9.9600  -15.9270    3.5050 C   0  0  0  0  0  0  0  0  0  0  0  0
  -11.7360  -14.3500    2.7110 C   0  0  0  0  0  0  0  0  0  0  0  0
  -10.3400  -13.7690    4.6950 C   0  0  0  0  0  0  0  0  0  0  0  0
   -8.9460  -13.8590    5.3030 C   0  0  1  0  0  0  0  0  0  0  0  0
  -10.3530  -14.4650    3.3410 C   0  0  0  0  0  0  0  0  0  0  0  0
   -7.1558  -13.0645    5.0181 H   0  0  0  0  0  0  0  0  0  0  0  0
   -8.6321  -13.4584    3.0317 H   0  0  0  0  0  0  0  0  0  0  0  0
   -9.5474  -14.1985    7.2711 H   0  0  0  0  0  0  0  0  0  0  0  0
   -8.0071  -13.6685    7.1557 H   0  0  0  0  0  0  0  0  0  0  0  0
   -9.2469  -12.6245    6.9570 H   0  0  0  0  0  0  0  0  0  0  0  0
  -10.6214  -16.3854    4.0987 H   0  0  0  0  0  0  0  0  0  0  0  0
   -9.9511  -16.3722    2.6096 H   0  0  0  0  0  0  0  0  0  0  0  0
   -9.0494  -15.9835    3.9144 H   0  0  0  0  0  0  0  0  0  0  0  0
  -12.4105  -14.7880    3.3053 H   0  0  0  0  0  0  0  0  0  0  0  0
  -11.9704  -13.3848    2.5954 H   0  0  0  0  0  0  0  0  0  0  0  0
  -11.7345  -14.8018    1.8189 H   0  0  0  0  0  0  0  0  0  0  0  0
  -10.5904  -12.8080    4.5776 H   0  0  0  0  0  0  0  0  0  0  0  0
  -10.9977  -14.2128    5.3036 H   0  0  0  0  0  0  0  0  0  0  0  0
   -8.5983  -14.7859    5.1617 H   0  0  0  0  0  0  0  0  0  0  0  0
  1  7  1  0  0  0  0
  2  8  1  0  0  0  0
  3  7  1  0  0  0  0
  4  8  1  0  0  0  0
  5  8  1  0  0  0  0
  6  7  1  0  0  0  0
  6  8  1  0  0  0  0
  1  9  1  0  0  0  0
  2 10  1  0  0  0  0
  3 11  1  0  0  0  0
  3 12  1  0  0  0  0
  3 13  1  0  0  0  0
  4 14  1  0  0  0  0
  4 15  1  0  0  0  0
  4 16  1  0  0  0  0
  5 17  1  0  0  0  0
  5 18  1  0  0  0  0
  5 19  1  0  0  0  0
  6 20  1  0  0  0  0
  6 21  1  0  0  0  0
  7 22  1  0  0  0  0
M  END
$$$$
6YNA_M77_A_402
prProtoss 08182323023D 1   1.00000     0.00000     0
Protoss beta proteinsplus
 38 40  0  0  0  0            999 V2000
  -13.0570  -26.5610   26.6220 S   0  0  0  0  0  0  0  0  0  0  0  0
  -12.5300  -27.5210   25.7020 O   0  0  0  0  0  0  0  0  0  0  0  0
  -13.7120  -26.9980   27.8140 O   0  0  0  0  0  0  0  0  0  0  0  0
   -8.7570  -24.7200   27.5430 N   0  3  0  0  0  0  0  0  0  0  0  0
  -17.0070  -26.9390   22.9370 N   0  0  0  0  0  0  0  0  0  0  0  0
  -11.8070  -25.6260   27.0820 N   0  0  0  0  0  0  0  0  0  0  0  0
   -9.6930  -24.4600   26.4110 C   0  0  0  0  0  0  0  0  0  0  0  0
   -9.3640  -24.4410   28.8780 C   0  0  0  0  0  0  0  0  0  0  0  0
  -16.2790  -27.7930   23.6680 C   0  0  0  0  0  0  0  0  0  0  0  0
  -16.8270  -25.6420   23.1470 C   0  0  0  0  0  0  0  0  0  0  0  0
  -10.6390  -25.6100   26.1780 C   0  0  0  0  0  0  0  0  0  0  0  0
  -11.7840  -25.0740   28.4510 C   0  0  0  0  0  0  0  0  0  0  0  0
  -10.5220  -25.3890   29.2280 C   0  0  0  0  0  0  0  0  0  0  0  0
  -14.8050  -23.2710   25.1940 C   0  0  0  0  0  0  0  0  0  0  0  0
  -15.3590  -27.4140   24.5960 C   0  0  0  0  0  0  0  0  0  0  0  0
  -14.0080  -24.1580   25.8980 C   0  0  0  0  0  0  0  0  0  0  0  0
  -15.7320  -23.7220   24.3040 C   0  0  0  0  0  0  0  0  0  0  0  0
  -14.1590  -25.5080   25.7270 C   0  0  0  0  0  0  0  0  0  0  0  0
  -15.9160  -25.1100   24.0880 C   0  0  0  0  0  0  0  0  0  0  0  0
  -15.1360  -26.0360   24.8280 C   0  0  0  0  0  0  0  0  0  0  0  0
   -7.9520  -24.1374   27.4310 H   0  0  0  0  0  0  0  0  0  0  0  0
   -9.1585  -24.3093   25.5794 H   0  0  0  0  0  0  0  0  0  0  0  0
  -10.2274  -23.6402   26.6169 H   0  0  0  0  0  0  0  0  0  0  0  0
   -9.7100  -23.5028   28.8798 H   0  0  0  0  0  0  0  0  0  0  0  0
   -8.6540  -24.5357   29.5758 H   0  0  0  0  0  0  0  0  0  0  0  0
  -16.4207  -28.7721   23.5224 H   0  0  0  0  0  0  0  0  0  0  0  0
  -17.3698  -24.9999   22.6056 H   0  0  0  0  0  0  0  0  0  0  0  0
  -10.9718  -25.5565   25.2365 H   0  0  0  0  0  0  0  0  0  0  0  0
  -10.1328  -26.4631   26.3046 H   0  0  0  0  0  0  0  0  0  0  0  0
  -12.5631  -25.4491   28.9533 H   0  0  0  0  0  0  0  0  0  0  0  0
  -11.8743  -24.0800   28.3896 H   0  0  0  0  0  0  0  0  0  0  0  0
  -10.7184  -25.3084   30.2052 H   0  0  0  0  0  0  0  0  0  0  0  0
  -10.2430  -26.3266   29.0203 H   0  0  0  0  0  0  0  0  0  0  0  0
  -14.6986  -22.2876   25.3409 H   0  0  0  0  0  0  0  0  0  0  0  0
  -14.8457  -28.1022   25.1088 H   0  0  0  0  0  0  0  0  0  0  0  0
  -13.3190  -23.8109   26.5342 H   0  0  0  0  0  0  0  0  0  0  0  0
  -16.2898  -23.0652   23.7966 H   0  0  0  0  0  0  0  0  0  0  0  0
   -8.4801  -25.6805   27.5133 H   0  0  0  0  0  0  0  0  0  0  0  0
  1  2  2  0  0  0  0
  1  3  2  0  0  0  0
  1  6  1  0  0  0  0
  1 18  1  0  0  0  0
  4  7  1  0  0  0  0
  4  8  1  0  0  0  0
  5  9  2  0  0  0  0
  5 10  1  0  0  0  0
  6 11  1  0  0  0  0
  6 12  1  0  0  0  0
  7 11  1  0  0  0  0
  8 13  1  0  0  0  0
  9 15  1  0  0  0  0
 10 19  2  0  0  0  0
 12 13  1  0  0  0  0
 14 16  1  0  0  0  0
 14 17  2  0  0  0  0
 15 20  2  0  0  0  0
 16 18  2  0  0  0  0
 17 19  1  0  0  0  0
 18 20  1  0  0  0  0
 19 20  1  0  0  0  0
  4 21  1  0  0  0  0
  7 22  1  0  0  0  0
  7 23  1  0  0  0  0
  8 24  1  0  0  0  0
  8 25  1  0  0  0  0
  9 26  1  0  0  0  0
 10 27  1  0  0  0  0
 11 28  1  0  0  0  0
 11 29  1  0  0  0  0
 12 30  1  0  0  0  0
 12 31  1  0  0  0  0
 13 32  1  0  0  0  0
 13 33  1  0  0  0  0
 14 34  1  0  0  0  0
 15 35  1  0  0  0  0
 16 36  1  0  0  0  0
 17 37  1  0  0  0  0
  4 38  1  0  0  0  0
M  CHG  1   4   1
M  END
$$$$
5LCU_IQP_A_401
prProtoss 08172319213D 1   1.00000     0.00000     0
Protoss beta proteinsplus
 38 40  0  0  0  0            999 V2000
  -13.7500   25.1020  -27.5570 S   0  0  0  0  0  0  0  0  0  0  0  0
  -13.2880   26.2710  -26.8750 O   0  0  0  0  0  0  0  0  0  0  0  0
  -14.3550   25.2230  -28.8420 O   0  0  0  0  0  0  0  0  0  0  0  0
  -10.5190   22.0940  -27.8290 N   0  3  0  0  0  0  0  0  0  0  0  0
  -17.4010   26.2290  -23.7020 N   0  0  0  0  0  0  0  0  0  0  0  0
  -12.4670   24.1030  -27.7050 N   0  0  0  0  0  0  0  0  0  0  0  0
  -11.1600   24.2520  -29.7980 C   0  0  0  0  0  0  0  0  0  0  0  0
  -10.8920   22.6520  -26.5240 C   0  0  0  0  0  0  0  0  0  0  0  0
  -16.6700   26.9370  -24.5810 C   0  0  0  0  0  0  0  0  0  0  0  0
  -11.6700   22.0190  -28.7330 C   0  0  0  0  0  0  0  0  0  0  0  0
  -17.3350   24.9030  -23.7750 C   0  0  0  0  0  0  0  0  0  0  0  0
  -11.4030   24.0720  -26.6820 C   0  0  0  0  0  0  0  0  0  0  0  0
  -15.6420   22.1550  -25.6530 C   0  0  0  0  0  0  0  0  0  0  0  0
  -15.8410   26.3820  -25.5130 C   0  0  0  0  0  0  0  0  0  0  0  0
  -14.8390   22.8930  -26.5110 C   0  0  0  0  0  0  0  0  0  0  0  0
  -16.4650   22.7800  -24.7650 C   0  0  0  0  0  0  0  0  0  0  0  0
  -14.8650   24.2600  -26.4800 C   0  0  0  0  0  0  0  0  0  0  0  0
  -12.1620   23.4270  -29.0020 C   0  0  1  0  0  0  0  0  0  0  0  0
  -16.5210   24.1960  -24.6970 C   0  0  0  0  0  0  0  0  0  0  0  0
  -15.7240   24.9720  -25.5820 C   0  0  0  0  0  0  0  0  0  0  0  0
  -10.1510   21.1738  -27.6952 H   0  0  0  0  0  0  0  0  0  0  0  0
  -10.9623   23.7919  -30.6636 H   0  0  0  0  0  0  0  0  0  0  0  0
  -11.5443   25.1568  -29.9816 H   0  0  0  0  0  0  0  0  0  0  0  0
  -10.3153   24.3491  -29.2716 H   0  0  0  0  0  0  0  0  0  0  0  0
  -10.0907   22.6549  -25.9258 H   0  0  0  0  0  0  0  0  0  0  0  0
  -11.6097   22.0870  -26.1171 H   0  0  0  0  0  0  0  0  0  0  0  0
  -16.7380   27.9342  -24.5500 H   0  0  0  0  0  0  0  0  0  0  0  0
  -12.3988   21.4824  -28.3076 H   0  0  0  0  0  0  0  0  0  0  0  0
  -11.3964   21.5872  -29.5925 H   0  0  0  0  0  0  0  0  0  0  0  0
  -17.8945   24.3705  -23.1399 H   0  0  0  0  0  0  0  0  0  0  0  0
  -11.7708   24.3927  -25.8091 H   0  0  0  0  0  0  0  0  0  0  0  0
  -10.6509   24.6670  -26.9656 H   0  0  0  0  0  0  0  0  0  0  0  0
  -15.6164   21.1559  -25.6867 H   0  0  0  0  0  0  0  0  0  0  0  0
  -15.3225   26.9640  -26.1395 H   0  0  0  0  0  0  0  0  0  0  0  0
  -14.2373   22.4222  -27.1562 H   0  0  0  0  0  0  0  0  0  0  0  0
  -17.0370   22.2335  -24.1533 H   0  0  0  0  0  0  0  0  0  0  0  0
  -13.0087   23.3672  -29.5307 H   0  0  0  0  0  0  0  0  0  0  0  0
   -9.8189   22.6761  -28.2426 H   0  0  0  0  0  0  0  0  0  0  0  0
  1  2  2  0  0  0  0
  1  3  2  0  0  0  0
  1  6  1  0  0  0  0
  1 17  1  0  0  0  0
  4  8  1  0  0  0  0
  4 10  1  0  0  0  0
  5  9  2  0  0  0  0
  5 11  1  0  0  0  0
  6 12  1  0  0  0  0
  6 18  1  0  0  0  0
  7 18  1  0  0  0  0
  8 12  1  0  0  0  0
  9 14  1  0  0  0  0
 10 18  1  0  0  0  0
 11 19  2  0  0  0  0
 13 15  1  0  0  0  0
 13 16  2  0  0  0  0
 14 20  2  0  0  0  0
 15 17  2  0  0  0  0
 16 19  1  0  0  0  0
 17 20  1  0  0  0  0
 19 20  1  0  0  0  0
  4 21  1  0  0  0  0
  7 22  1  0  0  0  0
  7 23  1  0  0  0  0
  7 24  1  0  0  0  0
  8 25  1  0  0  0  0
  8 26  1  0  0  0  0
  9 27  1  0  0  0  0
 10 28  1  0  0  0  0
 10 29  1  0  0  0  0
 11 30  1  0  0  0  0
 12 31  1  0  0  0  0
 12 32  1  0  0  0  0
 13 33  1  0  0  0  0
 14 34  1  0  0  0  0
 15 35  1  0  0  0  0
 16 36  1  0  0  0  0
 18 37  1  0  0  0  0
  4 38  1  0  0  0  0
M  CHG  1   4   1
M  END
$$$$
5LCU_MOH_A_402
prProtoss 08172319213D 1   1.00000     0.00000     0
Protoss beta proteinsplus
  6  5  0  0  0  0            999 V2000
   -2.0060    6.6750  -34.3470 O   0  0  0  0  0  0  0  0  0  0  0  0
   -0.8310    7.4110  -34.5430 C   0  0  0  0  0  0  0  0  0  0  0  0
   -2.6328    6.8386  -35.1088 H   0  0  0  0  0  0  0  0  0  0  0  0
   -0.6631    7.5162  -35.5232 H   0  0  0  0  0  0  0  0  0  0  0  0
   -0.9288    8.3132  -34.1229 H   0  0  0  0  0  0  0  0  0  0  0  0
   -0.0619    6.9293  -34.1229 H   0  0  0  0  0  0  0  0  0  0  0  0
  1  2  1  0  0  0  0
  1  3  1  0  0  0  0
  2  4  1  0  0  0  0
  2  5  1  0  0  0  0
  2  6  1  0  0  0  0
M  END
$$$$
5LCU_MOH_A_403
prProtoss 08172319213D 1   1.00000     0.00000     0
Protoss beta proteinsplus
  6  5  0  0  0  0            999 V2000
   -4.3210   27.4470   -4.1170 O   0  0  0  0  0  0  0  0  0  0  0  0
   -3.5900   26.2640   -4.3730 C   0  0  0  0  0  0  0  0  0  0  0  0
   -4.9721   27.6038   -4.8597 H   0  0  0  0  0  0  0  0  0  0  0  0
   -3.3279   25.8399   -3.5061 H   0  0  0  0  0  0  0  0  0  0  0  0
   -4.1571   25.6285   -4.8970 H   0  0  0  0  0  0  0  0  0  0  0  0
   -2.7679   26.4869   -4.8970 H   0  0  0  0  0  0  0  0  0  0  0  0
  1  2  1  0  0  0  0
  1  3  1  0  0  0  0
  2  4  1  0  0  0  0
  2  5  1  0  0  0  0
  2  6  1  0  0  0  0
M  END
$$$$
5LCU_MOH_A_404
prProtoss 08172319213D 1   1.00000     0.00000     0
Protoss beta proteinsplus
  6  5  0  0  0  0            999 V2000
   -4.3160   12.2870   -1.2220 O   0  0  0  0  0  0  0  0  0  0  0  0
   -4.3270   11.2120   -2.1490 C   0  0  0  0  0  0  0  0  0  0  0  0
   -3.3707   12.5298   -1.0043 H   0  0  0  0  0  0  0  0  0  0  0  0
   -4.3359   10.3439   -1.6527 H   0  0  0  0  0  0  0  0  0  0  0  0
   -5.1429   11.2757   -2.7237 H   0  0  0  0  0  0  0  0  0  0  0  0
   -3.5100   11.2590   -2.7237 H   0  0  0  0  0  0  0  0  0  0  0  0
  1  2  1  0  0  0  0
  1  3  1  0  0  0  0
  2  4  1  0  0  0  0
  2  5  1  0  0  0  0
  2  6  1  0  0  0  0
M  END
$$$$
5LCU_MPD_A_405
prProtoss 08172319213D 1   1.00000     0.00000     0
Protoss beta proteinsplus
 22 21  0  0  0  0            999 V2000
   -8.8310   12.9950   -4.7720 O   0  0  0  0  0  0  0  0  0  0  0  0
  -10.0700   14.1090   -2.5340 O   0  0  0  0  0  0  0  0  0  0  0  0
   -9.7340   13.5140   -6.9070 C   0  0  0  0  0  0  0  0  0  0  0  0
  -10.5030   16.1830   -3.6410 C   0  0  0  0  0  0  0  0  0  0  0  0
  -12.4110   14.8300   -2.7810 C   0  0  0  0  0  0  0  0  0  0  0  0
  -11.0480   14.0090   -4.7600 C   0  0  0  0  0  0  0  0  0  0  0  0
   -9.6690   13.9160   -5.4340 C   0  0  1  0  0  0  0  0  0  0  0  0
  -11.0150   14.7690   -3.4270 C   0  0  0  0  0  0  0  0  0  0  0  0
   -7.9182   13.0222   -5.1795 H   0  0  0  0  0  0  0  0  0  0  0  0
   -9.3553   13.6649   -3.0743 H   0  0  0  0  0  0  0  0  0  0  0  0
  -10.3238   14.1528   -7.4011 H   0  0  0  0  0  0  0  0  0  0  0  0
   -8.8146   13.5372   -7.2997 H   0  0  0  0  0  0  0  0  0  0  0  0
  -10.1061   12.5890   -6.9840 H   0  0  0  0  0  0  0  0  0  0  0  0
  -11.1250   16.6740   -4.2510 H   0  0  0  0  0  0  0  0  0  0  0  0
  -10.4554   16.6569   -2.7617 H   0  0  0  0  0  0  0  0  0  0  0  0
   -9.5916   16.1490   -4.0511 H   0  0  0  0  0  0  0  0  0  0  0  0
  -13.0472   15.2846   -3.4044 H   0  0  0  0  0  0  0  0  0  0  0  0
  -12.7329   13.9017   -2.5947 H   0  0  0  0  0  0  0  0  0  0  0  0
  -12.3597   15.3432   -1.9243 H   0  0  0  0  0  0  0  0  0  0  0  0
  -11.3826   13.0821   -4.5900 H   0  0  0  0  0  0  0  0  0  0  0  0
  -11.6745   14.4810   -5.3803 H   0  0  0  0  0  0  0  0  0  0  0  0
   -9.2389   14.8171   -5.3799 H   0  0  0  0  0  0  0  0  0  0  0  0
  1  7  1  0  0  0  0
  2  8  1  0  0  0  0
  3  7  1  0  0  0  0
  4  8  1  0  0  0  0
  5  8  1  0  0  0  0
  6  7  1  0  0  0  0
  6  8  1  0  0  0  0
  1  9  1  0  0  0  0
  2 10  1  0  0  0  0
  3 11  1  0  0  0  0
  3 12  1  0  0  0  0
  3 13  1  0  0  0  0
  4 14  1  0  0  0  0
  4 15  1  0  0  0  0
  4 16  1  0  0  0  0
  5 17  1  0  0  0  0
  5 18  1  0  0  0  0
  5 19  1  0  0  0  0
  6 20  1  0  0  0  0
  6 21  1  0  0  0  0
  7 22  1  0  0  0  0
M  END
$$$$
5LCT_6TY_A_401
prProtoss 08172316043D 1   1.00000     0.00000     0
Protoss beta proteinsplus
 38 40  0  0  0  0            999 V2000
  -13.9090   25.2430  -27.6070 S   0  0  0  0  0  0  0  0  0  0  0  0
  -13.3990   26.3510  -26.8640 O   0  0  0  0  0  0  0  0  0  0  0  0
  -14.4980   25.4460  -28.8900 O   0  0  0  0  0  0  0  0  0  0  0  0
  -10.6730   22.2760  -28.0220 N   0  3  0  0  0  0  0  0  0  0  0  0
  -17.5750   26.4190  -23.8090 N   0  0  0  0  0  0  0  0  0  0  0  0
  -12.6540   24.2130  -27.7870 N   0  0  0  0  0  0  0  0  0  0  0  0
  -10.4310   25.0610  -27.0270 C   0  0  0  0  0  0  0  0  0  0  0  0
  -11.8170   22.2610  -28.9650 C   0  0  0  0  0  0  0  0  0  0  0  0
  -16.8180   27.1120  -24.6770 C   0  0  0  0  0  0  0  0  0  0  0  0
  -11.0930   22.6710  -26.6780 C   0  0  0  0  0  0  0  0  0  0  0  0
  -17.5510   25.0910  -23.8970 C   0  0  0  0  0  0  0  0  0  0  0  0
  -12.3550   23.6550  -29.1200 C   0  0  0  0  0  0  0  0  0  0  0  0
  -15.9180   22.3120  -25.7910 C   0  0  0  0  0  0  0  0  0  0  0  0
  -16.0070   26.5390  -25.6180 C   0  0  0  0  0  0  0  0  0  0  0  0
  -15.0980   23.0380  -26.6430 C   0  0  0  0  0  0  0  0  0  0  0  0
  -16.7410   22.9530  -24.9040 C   0  0  0  0  0  0  0  0  0  0  0  0
  -15.0970   24.4060  -26.6070 C   0  0  0  0  0  0  0  0  0  0  0  0
  -11.5820   24.1040  -26.7470 C   0  0  2  0  0  0  0  0  0  0  0  0
  -16.7670   24.3690  -24.8310 C   0  0  0  0  0  0  0  0  0  0  0  0
  -15.9450   25.1280  -25.7110 C   0  0  0  0  0  0  0  0  0  0  0  0
   -9.9877   22.9250  -28.3524 H   0  0  0  0  0  0  0  0  0  0  0  0
   -9.7350   24.9625  -26.3157 H   0  0  0  0  0  0  0  0  0  0  0  0
  -10.0297   24.8481  -27.9178 H   0  0  0  0  0  0  0  0  0  0  0  0
  -10.7725   26.0009  -27.0313 H   0  0  0  0  0  0  0  0  0  0  0  0
  -12.5355   21.6640  -28.6082 H   0  0  0  0  0  0  0  0  0  0  0  0
  -11.5117   21.9205  -29.8543 H   0  0  0  0  0  0  0  0  0  0  0  0
  -16.8497   28.1105  -24.6320 H   0  0  0  0  0  0  0  0  0  0  0  0
  -10.3199   22.6055  -26.0471 H   0  0  0  0  0  0  0  0  0  0  0  0
  -11.8314   22.0745  -26.3634 H   0  0  0  0  0  0  0  0  0  0  0  0
  -18.1227   24.5695  -23.2636 H   0  0  0  0  0  0  0  0  0  0  0  0
  -11.6737   24.2272  -29.5766 H   0  0  0  0  0  0  0  0  0  0  0  0
  -13.1914   23.6314  -29.6676 H   0  0  0  0  0  0  0  0  0  0  0  0
  -15.9078   21.3126  -25.8250 H   0  0  0  0  0  0  0  0  0  0  0  0
  -15.4641   27.1106  -26.2332 H   0  0  0  0  0  0  0  0  0  0  0  0
  -14.5034   22.5580  -27.2881 H   0  0  0  0  0  0  0  0  0  0  0  0
  -17.3307   22.4163  -24.3005 H   0  0  0  0  0  0  0  0  0  0  0  0
  -11.9795   24.3426  -25.8609 H   0  0  0  0  0  0  0  0  0  0  0  0
  -10.2728   21.3604  -27.9817 H   0  0  0  0  0  0  0  0  0  0  0  0
  1  2  2  0  0  0  0
  1  3  2  0  0  0  0
  1  6  1  0  0  0  0
  1 17  1  0  0  0  0
  4  8  1  0  0  0  0
  4 10  1  0  0  0  0
  5  9  2  0  0  0  0
  5 11  1  0  0  0  0
  6 12  1  0  0  0  0
  6 18  1  0  0  0  0
  7 18  1  0  0  0  0
  8 12  1  0  0  0  0
  9 14  1  0  0  0  0
 10 18  1  0  0  0  0
 11 19  2  0  0  0  0
 13 15  1  0  0  0  0
 13 16  2  0  0  0  0
 14 20  2  0  0  0  0
 15 17  2  0  0  0  0
 16 19  1  0  0  0  0
 17 20  1  0  0  0  0
 19 20  1  0  0  0  0
  4 21  1  0  0  0  0
  7 22  1  0  0  0  0
  7 23  1  0  0  0  0
  7 24  1  0  0  0  0
  8 25  1  0  0  0  0
  8 26  1  0  0  0  0
  9 27  1  0  0  0  0
 10 28  1  0  0  0  0
 10 29  1  0  0  0  0
 11 30  1  0  0  0  0
 12 31  1  0  0  0  0
 12 32  1  0  0  0  0
 13 33  1  0  0  0  0
 14 34  1  0  0  0  0
 15 35  1  0  0  0  0
 16 36  1  0  0  0  0
 18 37  1  0  0  0  0
  4 38  1  0  0  0  0
M  CHG  1   4   1
M  END
$$$$
5LCT_MPD_A_402
prProtoss 08172316043D 1   1.00000     0.00000     0
Protoss beta proteinsplus
 22 21  0  0  0  0            999 V2000
   -9.7850   13.5900   -6.8430 O   0  0  0  0  0  0  0  0  0  0  0  0
  -10.2930   14.1480   -2.5410 O   0  0  0  0  0  0  0  0  0  0  0  0
   -8.8270   13.4170   -4.6150 C   0  0  0  0  0  0  0  0  0  0  0  0
  -12.6670   14.6980   -2.8530 C   0  0  0  0  0  0  0  0  0  0  0  0
  -10.7750   16.1700   -3.5740 C   0  0  0  0  0  0  0  0  0  0  0  0
  -11.3020   14.1020   -4.8690 C   0  0  0  0  0  0  0  0  0  0  0  0
  -10.0900   13.3330   -5.4570 C   0  0  1  0  0  0  0  0  0  0  0  0
  -11.2520   14.7500   -3.4620 C   0  0  0  0  0  0  0  0  0  0  0  0
  -10.6233   13.5318   -7.3851 H   0  0  0  0  0  0  0  0  0  0  0  0
  -10.7704   13.8361   -1.7195 H   0  0  0  0  0  0  0  0  0  0  0  0
   -9.0522   13.2370   -3.6574 H   0  0  0  0  0  0  0  0  0  0  0  0
   -8.1669   12.7377   -4.9355 H   0  0  0  0  0  0  0  0  0  0  0  0
   -8.4312   14.3315   -4.6982 H   0  0  0  0  0  0  0  0  0  0  0  0
  -13.3188   15.1117   -3.4885 H   0  0  0  0  0  0  0  0  0  0  0  0
  -12.9231   13.7459   -2.6857 H   0  0  0  0  0  0  0  0  0  0  0  0
  -12.6771   15.2026   -1.9897 H   0  0  0  0  0  0  0  0  0  0  0  0
  -11.3756   16.6755   -4.1934 H   0  0  0  0  0  0  0  0  0  0  0  0
  -10.7904   16.5990   -2.6708 H   0  0  0  0  0  0  0  0  0  0  0  0
   -9.8415   16.1808   -3.9323 H   0  0  0  0  0  0  0  0  0  0  0  0
  -12.0645   13.4552   -4.8536 H   0  0  0  0  0  0  0  0  0  0  0  0
  -11.5046   14.8409   -5.5116 H   0  0  0  0  0  0  0  0  0  0  0  0
  -10.3566   12.3697   -5.4262 H   0  0  0  0  0  0  0  0  0  0  0  0
  1  7  1  0  0  0  0
  2  8  1  0  0  0  0
  3  7  1  0  0  0  0
  4  8  1  0  0  0  0
  5  8  1  0  0  0  0
  6  7  1  0  0  0  0
  6  8  1  0  0  0  0
  1  9  1  0  0  0  0
  2 10  1  0  0  0  0
  3 11  1  0  0  0  0
  3 12  1  0  0  0  0
  3 13  1  0  0  0  0
  4 14  1  0  0  0  0
  4 15  1  0  0  0  0
  4 16  1  0  0  0  0
  5 17  1  0  0  0  0
  5 18  1  0  0  0  0
  5 19  1  0  0  0  0
  6 20  1  0  0  0  0
  6 21  1  0  0  0  0
  7 22  1  0  0  0  0
M  END
$$$$
5LCT_MOH_A_403
prProtoss 08172316043D 1   1.00000     0.00000     0
Protoss beta proteinsplus
  6  5  0  0  0  0            999 V2000
    6.7990   36.3120  -19.7270 O   0  0  0  0  0  0  0  0  0  0  0  0
    7.8820   35.5650  -20.2450 C   0  0  0  0  0  0  0  0  0  0  0  0
    6.0084   35.7120  -19.6049 H   0  0  0  0  0  0  0  0  0  0  0  0
    7.8530   35.5850  -21.2444 H   0  0  0  0  0  0  0  0  0  0  0  0
    8.7431   35.9630  -19.9285 H   0  0  0  0  0  0  0  0  0  0  0  0
    7.8159   34.6187  -19.9285 H   0  0  0  0  0  0  0  0  0  0  0  0
  1  2  1  0  0  0  0
  1  3  1  0  0  0  0
  2  4  1  0  0  0  0
  2  5  1  0  0  0  0
  2  6  1  0  0  0  0
M  END
$$$$
5LCT_MOH_A_404
prProtoss 08172316043D 1   1.00000     0.00000     0
Protoss beta proteinsplus
  6  5  0  0  0  0            999 V2000
   -3.7880   24.3070    3.8510 O   0  0  0  0  0  0  0  0  0  0  0  0
   -2.8620   23.3380    3.4520 C   0  0  0  0  0  0  0  0  0  0  0  0
   -4.1946   24.7324    3.0425 H   0  0  0  0  0  0  0  0  0  0  0  0
   -2.4554   22.9126    4.2605 H   0  0  0  0  0  0  0  0  0  0  0  0
   -3.3245   22.6402    2.9051 H   0  0  0  0  0  0  0  0  0  0  0  0
   -2.1439   23.7684    2.9051 H   0  0  0  0  0  0  0  0  0  0  0  0
  1  2  1  0  0  0  0
  1  3  1  0  0  0  0
  2  4  1  0  0  0  0
  2  5  1  0  0  0  0
  2  6  1  0  0  0  0
M  END
$$$$
5LCQ_6TV_A_401
prProtoss 08192303223D 1   1.00000     0.00000     0
Protoss beta proteinsplus
 40 41  0  0  0  0            999 V2000
   13.0640  -24.0230  -27.9110 S   0  0  0  0  0  0  0  0  0  0  0  0
   12.6020  -25.1990  -27.2290 O   0  0  0  0  0  0  0  0  0  0  0  0
   13.8120  -24.1540  -29.1260 O   0  0  0  0  0  0  0  0  0  0  0  0
   11.7450  -23.1570  -28.2420 N   0  0  0  0  0  0  0  0  0  0  0  0
    8.7800  -22.7830  -28.6200 N   0  3  0  0  0  0  0  0  0  0  0  0
   16.7360  -24.7400  -23.9970 N   0  0  0  0  0  0  0  0  0  0  0  0
    5.6180  -21.5500  -30.3640 C   0  0  0  0  0  0  0  0  0  0  0  0
   10.7760  -22.8970  -27.1690 C   0  0  0  0  0  0  0  0  0  0  0  0
    9.6260  -22.0450  -27.6380 C   0  0  0  0  0  0  0  0  0  0  0  0
    7.6150  -21.9610  -29.0610 C   0  0  0  0  0  0  0  0  0  0  0  0
   16.0320  -25.5260  -24.8250 C   0  0  0  0  0  0  0  0  0  0  0  0
   16.5700  -23.4350  -24.1020 C   0  0  0  0  0  0  0  0  0  0  0  0
    6.6540  -22.5770  -29.9450 C   0  0  0  0  0  0  0  0  0  0  0  0
   14.6490  -20.8770  -26.0190 C   0  0  0  0  0  0  0  0  0  0  0  0
   15.1500  -25.0620  -25.7530 C   0  0  0  0  0  0  0  0  0  0  0  0
   13.8990  -21.6930  -26.8500 C   0  0  0  0  0  0  0  0  0  0  0  0
   15.5270  -21.4130  -25.1220 C   0  0  0  0  0  0  0  0  0  0  0  0
   14.0340  -23.0560  -26.7870 C   0  0  0  0  0  0  0  0  0  0  0  0
   15.6920  -22.8150  -25.0240 C   0  0  0  0  0  0  0  0  0  0  0  0
   14.9460  -23.6700  -25.8730 C   0  0  0  0  0  0  0  0  0  0  0  0
   12.0551  -22.2679  -28.5786 H   0  0  0  0  0  0  0  0  0  0  0  0
    8.4431  -23.6223  -28.1932 H   0  0  0  0  0  0  0  0  0  0  0  0
    4.9531  -21.9779  -30.9762 H   0  0  0  0  0  0  0  0  0  0  0  0
    5.1481  -21.2006  -29.5533 H   0  0  0  0  0  0  0  0  0  0  0  0
    6.0702  -20.7948  -30.8385 H   0  0  0  0  0  0  0  0  0  0  0  0
   11.2424  -22.4254  -26.4207 H   0  0  0  0  0  0  0  0  0  0  0  0
   10.4170  -23.7705  -26.8402 H   0  0  0  0  0  0  0  0  0  0  0  0
    9.0655  -21.7898  -26.8502 H   0  0  0  0  0  0  0  0  0  0  0  0
    9.9864  -21.2194  -28.0722 H   0  0  0  0  0  0  0  0  0  0  0  0
    7.9782  -21.1557  -29.5296 H   0  0  0  0  0  0  0  0  0  0  0  0
    7.1234  -21.6747  -28.2386 H   0  0  0  0  0  0  0  0  0  0  0  0
   16.1631  -26.5150  -24.7565 H   0  0  0  0  0  0  0  0  0  0  0  0
   17.0985  -22.8458  -23.4909 H   0  0  0  0  0  0  0  0  0  0  0  0
    7.1235  -22.9263  -30.7559 H   0  0  0  0  0  0  0  0  0  0  0  0
    6.2014  -23.3321  -29.4707 H   0  0  0  0  0  0  0  0  0  0  0  0
   14.5460  -19.8840  -26.0770 H   0  0  0  0  0  0  0  0  0  0  0  0
   14.6530  -25.6991  -26.3421 H   0  0  0  0  0  0  0  0  0  0  0  0
   13.2561  -21.2861  -27.4989 H   0  0  0  0  0  0  0  0  0  0  0  0
   16.0588  -20.8091  -24.5283 H   0  0  0  0  0  0  0  0  0  0  0  0
    9.3355  -23.0149  -29.4185 H   0  0  0  0  0  0  0  0  0  0  0  0
  1  2  2  0  0  0  0
  1  3  2  0  0  0  0
  1  4  1  0  0  0  0
  1 18  1  0  0  0  0
  4  8  1  0  0  0  0
  5  9  1  0  0  0  0
  5 10  1  0  0  0  0
  6 11  2  0  0  0  0
  6 12  1  0  0  0  0
  7 13  1  0  0  0  0
  8  9  1  0  0  0  0
 10 13  1  0  0  0  0
 11 15  1  0  0  0  0
 12 19  2  0  0  0  0
 14 16  1  0  0  0  0
 14 17  2  0  0  0  0
 15 20  2  0  0  0  0
 16 18  2  0  0  0  0
 17 19  1  0  0  0  0
 18 20  1  0  0  0  0
 19 20  1  0  0  0  0
  4 21  1  0  0  0  0
  5 22  1  0  0  0  0
  7 23  1  0  0  0  0
  7 24  1  0  0  0  0
  7 25  1  0  0  0  0
  8 26  1  0  0  0  0
  8 27  1  0  0  0  0
  9 28  1  0  0  0  0
  9 29  1  0  0  0  0
 10 30  1  0  0  0  0
 10 31  1  0  0  0  0
 11 32  1  0  0  0  0
 12 33  1  0  0  0  0
 13 34  1  0  0  0  0
 13 35  1  0  0  0  0
 14 36  1  0  0  0  0
 15 37  1  0  0  0  0
 16 38  1  0  0  0  0
 17 39  1  0  0  0  0
  5 40  1  0  0  0  0
M  CHG  1   5   1
M  END
$$$$
5LCQ_MRD_A_402
prProtoss 08192303223D 1   1.00000     0.00000     0
Protoss beta proteinsplus
 22 21  0  0  0  0            999 V2000
    8.6310  -13.0230   -4.1920 O   0  0  0  0  0  0  0  0  0  0  0  0
    9.7010  -13.9330   -2.4240 O   0  0  0  0  0  0  0  0  0  0  0  0
    9.3690  -12.8930   -6.4630 C   0  0  0  0  0  0  0  0  0  0  0  0
   10.3840  -16.0850   -3.1320 C   0  0  0  0  0  0  0  0  0  0  0  0
   12.0620  -14.3350   -2.5110 C   0  0  0  0  0  0  0  0  0  0  0  0
   10.7460  -14.1070   -4.6650 C   0  0  0  0  0  0  0  0  0  0  0  0
    9.7960  -12.9040   -5.0120 C   0  0  2  0  0  0  0  0  0  0  0  0
   10.7200  -14.6060   -3.1840 C   0  0  0  0  0  0  0  0  0  0  0  0
    7.8181  -13.0701   -4.7725 H   0  0  0  0  0  0  0  0  0  0  0  0
    9.2197  -13.2840   -3.0132 H   0  0  0  0  0  0  0  0  0  0  0  0
   10.1762  -12.8100   -7.0474 H   0  0  0  0  0  0  0  0  0  0  0  0
    8.8895  -13.7443   -6.6758 H   0  0  0  0  0  0  0  0  0  0  0  0
    8.7590  -12.1174   -6.6251 H   0  0  0  0  0  0  0  0  0  0  0  0
   11.0673  -16.6004   -3.6491 H   0  0  0  0  0  0  0  0  0  0  0  0
   10.3834  -16.3934   -2.1808 H   0  0  0  0  0  0  0  0  0  0  0  0
    9.4799  -16.2357   -3.5319 H   0  0  0  0  0  0  0  0  0  0  0  0
   12.7895  -14.7933   -3.0215 H   0  0  0  0  0  0  0  0  0  0  0  0
   12.2346  -13.3501   -2.4962 H   0  0  0  0  0  0  0  0  0  0  0  0
   12.0415  -14.6839   -1.5741 H   0  0  0  0  0  0  0  0  0  0  0  0
   11.6824  -13.8261   -4.8753 H   0  0  0  0  0  0  0  0  0  0  0  0
   10.4894  -14.8763   -5.2501 H   0  0  0  0  0  0  0  0  0  0  0  0
   10.2617  -12.0450   -4.7995 H   0  0  0  0  0  0  0  0  0  0  0  0
  1  7  1  0  0  0  0
  2  8  1  0  0  0  0
  3  7  1  0  0  0  0
  4  8  1  0  0  0  0
  5  8  1  0  0  0  0
  6  7  1  0  0  0  0
  6  8  1  0  0  0  0
  1  9  1  0  0  0  0
  2 10  1  0  0  0  0
  3 11  1  0  0  0  0
  3 12  1  0  0  0  0
  3 13  1  0  0  0  0
  4 14  1  0  0  0  0
  4 15  1  0  0  0  0
  4 16  1  0  0  0  0
  5 17  1  0  0  0  0
  5 18  1  0  0  0  0
  5 19  1  0  0  0  0
  6 20  1  0  0  0  0
  6 21  1  0  0  0  0
  7 22  1  0  0  0  0
M  END
$$$$
5LCQ_MOH_A_403
prProtoss 08192303223D 1   1.00000     0.00000     0
Protoss beta proteinsplus
  6  5  0  0  0  0            999 V2000
  -16.4710  -14.4410   -8.9950 O   0  0  0  0  0  0  0  0  0  0  0  0
  -15.1580  -14.0730   -9.3060 C   0  0  0  0  0  0  0  0  0  0  0  0
  -16.4626  -15.2866   -8.4613 H   0  0  0  0  0  0  0  0  0  0  0  0
  -15.0469  -14.0419  -10.2993 H   0  0  0  0  0  0  0  0  0  0  0  0
  -14.9645  -13.1708   -8.9205 H   0  0  0  0  0  0  0  0  0  0  0  0
  -14.5238  -14.7432   -8.9205 H   0  0  0  0  0  0  0  0  0  0  0  0
  1  2  1  0  0  0  0
  1  3  1  0  0  0  0
  2  4  1  0  0  0  0
  2  5  1  0  0  0  0
  2  6  1  0  0  0  0
M  END
$$$$
5LCQ_MOH_B_101
prProtoss 08192303223D 1   1.00000     0.00000     0
Protoss beta proteinsplus
  6  5  0  0  0  0            999 V2000
    2.5220  -28.0900  -33.9930 O   0  0  0  0  0  0  0  0  0  0  0  0
    3.2630  -28.5260  -32.9300 C   0  0  0  0  0  0  0  0  0  0  0  0
    1.8057  -28.7576  -34.1962 H   0  0  0  0  0  0  0  0  0  0  0  0
    3.2717  -29.5259  -32.9175 H   0  0  0  0  0  0  0  0  0  0  0  0
    4.1995  -28.1855  -33.0144 H   0  0  0  0  0  0  0  0  0  0  0  0
    2.8598  -28.1855  -32.0806 H   0  0  0  0  0  0  0  0  0  0  0  0
  1  2  1  0  0  0  0
  1  3  1  0  0  0  0
  2  4  1  0  0  0  0
  2  5  1  0  0  0  0
  2  6  1  0  0  0  0
M  END
$$$$
6YQI_6TV_A_401
prProtoss 08182323033D 1   1.00000     0.00000     0
Protoss beta proteinsplus
 40 41  0  0  0  0            999 V2000
  -12.8080  -25.9980   26.9200 S   0  0  0  0  0  0  0  0  0  0  0  0
  -13.4120  -27.2440   27.2740 O   0  0  0  0  0  0  0  0  0  0  0  0
  -12.3930  -25.1080   27.9620 O   0  0  0  0  0  0  0  0  0  0  0  0
  -11.4810  -26.3270   26.0570 N   0  0  0  0  0  0  0  0  0  0  0  0
   -8.7120  -25.6900   27.2740 N   0  3  0  0  0  0  0  0  0  0  0  0
  -16.6380  -26.7420   23.1010 N   0  0  0  0  0  0  0  0  0  0  0  0
   -5.5170  -25.2120   29.4580 C   0  0  0  0  0  0  0  0  0  0  0  0
  -10.5450  -25.2770   25.6180 C   0  0  0  0  0  0  0  0  0  0  0  0
   -9.6680  -24.7040   26.7060 C   0  0  0  0  0  0  0  0  0  0  0  0
   -7.6290  -25.0520   28.0930 C   0  0  0  0  0  0  0  0  0  0  0  0
  -15.8660  -27.5350   23.8690 C   0  0  0  0  0  0  0  0  0  0  0  0
  -16.5220  -25.4320   23.2660 C   0  0  0  0  0  0  0  0  0  0  0  0
   -6.6570  -25.9620   28.7690 C   0  0  0  0  0  0  0  0  0  0  0  0
  -14.6920  -22.8800   25.2810 C   0  0  0  0  0  0  0  0  0  0  0  0
  -14.9740  -27.0760   24.7960 C   0  0  0  0  0  0  0  0  0  0  0  0
  -13.8640  -23.6930   26.0350 C   0  0  0  0  0  0  0  0  0  0  0  0
  -15.5560  -23.4170   24.3750 C   0  0  0  0  0  0  0  0  0  0  0  0
  -13.9200  -25.0540   25.9060 C   0  0  0  0  0  0  0  0  0  0  0  0
  -15.6440  -24.8220   24.1970 C   0  0  0  0  0  0  0  0  0  0  0  0
  -14.8260  -25.6800   24.9870 C   0  0  0  0  0  0  0  0  0  0  0  0
  -10.9436  -26.9670   26.6061 H   0  0  0  0  0  0  0  0  0  0  0  0
   -8.2877  -26.1927   26.5209 H   0  0  0  0  0  0  0  0  0  0  0  0
   -4.9000  -25.8687   29.8916 H   0  0  0  0  0  0  0  0  0  0  0  0
   -5.0120  -24.6775   28.7803 H   0  0  0  0  0  0  0  0  0  0  0  0
   -5.8932  -24.5991   30.1529 H   0  0  0  0  0  0  0  0  0  0  0  0
  -11.0805  -24.5290   25.2258 H   0  0  0  0  0  0  0  0  0  0  0  0
   -9.9508  -25.6663   24.9142 H   0  0  0  0  0  0  0  0  0  0  0  0
   -9.1467  -23.9409   26.3240 H   0  0  0  0  0  0  0  0  0  0  0  0
  -10.2551  -24.3705   27.4436 H   0  0  0  0  0  0  0  0  0  0  0  0
   -8.0720  -24.5045   28.8030 H   0  0  0  0  0  0  0  0  0  0  0  0
   -7.1073  -24.4521   27.4864 H   0  0  0  0  0  0  0  0  0  0  0  0
  -15.9516  -28.5245   23.7528 H   0  0  0  0  0  0  0  0  0  0  0  0
  -17.0897  -24.8363   22.6978 H   0  0  0  0  0  0  0  0  0  0  0  0
   -7.1472  -26.4980   29.4563 H   0  0  0  0  0  0  0  0  0  0  0  0
   -6.2660  -26.5764   28.0837 H   0  0  0  0  0  0  0  0  0  0  0  0
  -14.6557  -21.8881   25.4025 H   0  0  0  0  0  0  0  0  0  0  0  0
  -14.4304  -27.7194   25.3349 H   0  0  0  0  0  0  0  0  0  0  0  0
  -13.2192  -23.2823   26.6796 H   0  0  0  0  0  0  0  0  0  0  0  0
  -16.1359  -22.8131   23.8282 H   0  0  0  0  0  0  0  0  0  0  0  0
   -9.2186  -26.3262   27.8559 H   0  0  0  0  0  0  0  0  0  0  0  0
  1  2  2  0  0  0  0
  1  3  2  0  0  0  0
  1  4  1  0  0  0  0
  1 18  1  0  0  0  0
  4  8  1  0  0  0  0
  5  9  1  0  0  0  0
  5 10  1  0  0  0  0
  6 11  2  0  0  0  0
  6 12  1  0  0  0  0
  7 13  1  0  0  0  0
  8  9  1  0  0  0  0
 10 13  1  0  0  0  0
 11 15  1  0  0  0  0
 12 19  2  0  0  0  0
 14 16  1  0  0  0  0
 14 17  2  0  0  0  0
 15 20  2  0  0  0  0
 16 18  2  0  0  0  0
 17 19  1  0  0  0  0
 18 20  1  0  0  0  0
 19 20  1  0  0  0  0
  4 21  1  0  0  0  0
  5 22  1  0  0  0  0
  7 23  1  0  0  0  0
  7 24  1  0  0  0  0
  7 25  1  0  0  0  0
  8 26  1  0  0  0  0
  8 27  1  0  0  0  0
  9 28  1  0  0  0  0
  9 29  1  0  0  0  0
 10 30  1  0  0  0  0
 10 31  1  0  0  0  0
 11 32  1  0  0  0  0
 12 33  1  0  0  0  0
 13 34  1  0  0  0  0
 13 35  1  0  0  0  0
 14 36  1  0  0  0  0
 15 37  1  0  0  0  0
 16 38  1  0  0  0  0
 17 39  1  0  0  0  0
  5 40  1  0  0  0  0
M  CHG  1   5   1
M  END
$$$$
5LCR_6TX_A_401
prProtoss 08172319213D 1   1.00000     0.00000     0
Protoss beta proteinsplus
 40 41  0  0  0  0            999 V2000
  -13.8480  -25.0660   27.4740 S   0  0  0  0  0  0  0  0  0  0  0  0
  -13.0580  -25.8540   26.5870 O   0  0  0  0  0  0  0  0  0  0  0  0
  -14.6020  -25.7000   28.5090 O   0  0  0  0  0  0  0  0  0  0  0  0
   -9.5860  -22.7680   26.7690 N   0  3  0  0  0  0  0  0  0  0  0  0
  -17.4750  -26.0370   23.5960 N   0  0  0  0  0  0  0  0  0  0  0  0
  -12.8490  -23.9950   28.1910 N   0  0  0  0  0  0  0  0  0  0  0  0
  -12.6360  -22.9670   31.8180 C   0  0  0  0  0  0  0  0  0  0  0  0
  -10.5560  -23.7620   27.2830 C   0  0  0  0  0  0  0  0  0  0  0  0
  -16.7160  -26.7730   24.4210 C   0  0  0  0  0  0  0  0  0  0  0  0
  -17.4410  -24.7180   23.7390 C   0  0  0  0  0  0  0  0  0  0  0  0
  -11.9510  -23.1810   27.3420 C   0  0  0  0  0  0  0  0  0  0  0  0
  -13.2420  -23.4050   29.4880 C   0  0  0  0  0  0  0  0  0  0  0  0
  -12.1760  -23.6180   30.5300 C   0  0  0  0  0  0  0  0  0  0  0  0
  -15.8070  -22.0370   25.7570 C   0  0  0  0  0  0  0  0  0  0  0  0
  -15.8990  -26.2490   25.3770 C   0  0  0  0  0  0  0  0  0  0  0  0
  -14.9730  -22.8000   26.5600 C   0  0  0  0  0  0  0  0  0  0  0  0
  -16.6270  -22.6320   24.8450 C   0  0  0  0  0  0  0  0  0  0  0  0
  -14.9770  -24.1640   26.4630 C   0  0  0  0  0  0  0  0  0  0  0  0
  -16.6470  -24.0430   24.6970 C   0  0  0  0  0  0  0  0  0  0  0  0
  -15.8270  -24.8410   25.5330 C   0  0  0  0  0  0  0  0  0  0  0  0
   -8.6737  -23.1766   26.7401 H   0  0  0  0  0  0  0  0  0  0  0  0
   -9.8542  -22.4859   25.8479 H   0  0  0  0  0  0  0  0  0  0  0  0
  -11.9403  -23.0975   32.5244 H   0  0  0  0  0  0  0  0  0  0  0  0
  -12.7766  -21.9888   31.6653 H   0  0  0  0  0  0  0  0  0  0  0  0
  -13.4947  -23.3849   32.1146 H   0  0  0  0  0  0  0  0  0  0  0  0
  -10.2799  -24.0427   28.2022 H   0  0  0  0  0  0  0  0  0  0  0  0
  -10.5591  -24.5583   26.6782 H   0  0  0  0  0  0  0  0  0  0  0  0
  -16.7519  -27.7681   24.3288 H   0  0  0  0  0  0  0  0  0  0  0  0
  -18.0124  -24.1661   23.1316 H   0  0  0  0  0  0  0  0  0  0  0  0
  -11.9008  -22.2557   27.7179 H   0  0  0  0  0  0  0  0  0  0  0  0
  -12.3261  -23.1446   26.4157 H   0  0  0  0  0  0  0  0  0  0  0  0
  -14.0907  -23.8340   29.7975 H   0  0  0  0  0  0  0  0  0  0  0  0
  -13.3892  -22.4232   29.3682 H   0  0  0  0  0  0  0  0  0  0  0  0
  -12.0369  -24.5974   30.6766 H   0  0  0  0  0  0  0  0  0  0  0  0
  -11.3188  -23.2012   30.2274 H   0  0  0  0  0  0  0  0  0  0  0  0
  -15.8069  -21.0411   25.8477 H   0  0  0  0  0  0  0  0  0  0  0  0
  -15.3558  -26.8507   25.9626 H   0  0  0  0  0  0  0  0  0  0  0  0
  -14.3649  -22.3501   27.2140 H   0  0  0  0  0  0  0  0  0  0  0  0
  -17.2218  -22.0670   24.2732 H   0  0  0  0  0  0  0  0  0  0  0  0
   -9.5750  -21.9703   27.3720 H   0  0  0  0  0  0  0  0  0  0  0  0
  1  2  2  0  0  0  0
  1  3  2  0  0  0  0
  1  6  1  0  0  0  0
  1 18  1  0  0  0  0
  4  8  1  0  0  0  0
  5  9  2  0  0  0  0
  5 10  1  0  0  0  0
  6 11  1  0  0  0  0
  6 12  1  0  0  0  0
  7 13  1  0  0  0  0
  8 11  1  0  0  0  0
  9 15  1  0  0  0  0
 10 19  2  0  0  0  0
 12 13  1  0  0  0  0
 14 16  1  0  0  0  0
 14 17  2  0  0  0  0
 15 20  2  0  0  0  0
 16 18  2  0  0  0  0
 17 19  1  0  0  0  0
 18 20  1  0  0  0  0
 19 20  1  0  0  0  0
  4 21  1  0  0  0  0
  4 22  1  0  0  0  0
  7 23  1  0  0  0  0
  7 24  1  0  0  0  0
  7 25  1  0  0  0  0
  8 26  1  0  0  0  0
  8 27  1  0  0  0  0
  9 28  1  0  0  0  0
 10 29  1  0  0  0  0
 11 30  1  0  0  0  0
 11 31  1  0  0  0  0
 12 32  1  0  0  0  0
 12 33  1  0  0  0  0
 13 34  1  0  0  0  0
 13 35  1  0  0  0  0
 14 36  1  0  0  0  0
 15 37  1  0  0  0  0
 16 38  1  0  0  0  0
 17 39  1  0  0  0  0
  4 40  1  0  0  0  0
M  CHG  1   4   1
M  END
$$$$
5LCR_MRD_A_402
prProtoss 08172319213D 1   1.00000     0.00000     0
Protoss beta proteinsplus
 22 21  0  0  0  0            999 V2000
   -8.7770  -13.1970    4.8190 O   0  0  0  0  0  0  0  0  0  0  0  0
  -10.5780  -16.0860    3.4080 O   0  0  0  0  0  0  0  0  0  0  0  0
   -9.7140  -13.4270    7.0070 C   0  0  0  0  0  0  0  0  0  0  0  0
  -12.4350  -14.6400    2.8800 C   0  0  0  0  0  0  0  0  0  0  0  0
  -10.0610  -13.9340    2.6470 C   0  0  0  0  0  0  0  0  0  0  0  0
  -11.0480  -14.2360    4.9790 C   0  0  0  0  0  0  0  0  0  0  0  0
  -10.0100  -13.1730    5.5450 C   0  0  2  0  0  0  0  0  0  0  0  0
  -11.0350  -14.7220    3.4800 C   0  0  0  0  0  0  0  0  0  0  0  0
   -8.0342  -12.8884    5.4132 H   0  0  0  0  0  0  0  0  0  0  0  0
  -11.2845  -16.6523    2.9835 H   0  0  0  0  0  0  0  0  0  0  0  0
  -10.5679  -13.4130    7.5273 H   0  0  0  0  0  0  0  0  0  0  0  0
   -9.2766  -14.3205    7.1082 H   0  0  0  0  0  0  0  0  0  0  0  0
   -9.1019  -12.7153    7.3517 H   0  0  0  0  0  0  0  0  0  0  0  0
  -12.7622  -13.6961    2.9250 H   0  0  0  0  0  0  0  0  0  0  0  0
  -12.4067  -14.9378    1.9258 H   0  0  0  0  0  0  0  0  0  0  0  0
  -13.0539  -15.2323    3.3958 H   0  0  0  0  0  0  0  0  0  0  0  0
  -10.3216  -12.9686    2.6535 H   0  0  0  0  0  0  0  0  0  0  0  0
   -9.1411  -14.0336    3.0264 H   0  0  0  0  0  0  0  0  0  0  0  0
  -10.0729  -14.2761    1.7074 H   0  0  0  0  0  0  0  0  0  0  0  0
  -11.9560  -13.8476    5.1365 H   0  0  0  0  0  0  0  0  0  0  0  0
  -10.9355  -15.0577    5.5377 H   0  0  0  0  0  0  0  0  0  0  0  0
  -10.4112  -12.2612    5.4572 H   0  0  0  0  0  0  0  0  0  0  0  0
  1  7  1  0  0  0  0
  2  8  1  0  0  0  0
  3  7  1  0  0  0  0
  4  8  1  0  0  0  0
  5  8  1  0  0  0  0
  6  7  1  0  0  0  0
  6  8  1  0  0  0  0
  1  9  1  0  0  0  0
  2 10  1  0  0  0  0
  3 11  1  0  0  0  0
  3 12  1  0  0  0  0
  3 13  1  0  0  0  0
  4 14  1  0  0  0  0
  4 15  1  0  0  0  0
  4 16  1  0  0  0  0
  5 17  1  0  0  0  0
  5 18  1  0  0  0  0
  5 19  1  0  0  0  0
  6 20  1  0  0  0  0
  6 21  1  0  0  0  0
  7 22  1  0  0  0  0
M  END
$$$$
5LCR_MOH_A_403
prProtoss 08172319213D 1   1.00000     0.00000     0
Protoss beta proteinsplus
  6  5  0  0  0  0            999 V2000
  -23.9700  -28.3630   38.2030 O   0  0  0  0  0  0  0  0  0  0  0  0
  -25.2040  -28.6920   37.6420 C   0  0  0  0  0  0  0  0  0  0  0  0
  -24.0415  -28.3821   39.2003 H   0  0  0  0  0  0  0  0  0  0  0  0
  -25.1325  -28.6729   36.6447 H   0  0  0  0  0  0  0  0  0  0  0  0
  -25.4717  -29.6084   37.9395 H   0  0  0  0  0  0  0  0  0  0  0  0
  -25.8924  -28.0305   37.9395 H   0  0  0  0  0  0  0  0  0  0  0  0
  1  2  1  0  0  0  0
  1  3  1  0  0  0  0
  2  4  1  0  0  0  0
  2  5  1  0  0  0  0
  2  6  1  0  0  0  0
M  END
$$$$
5LCR_MOH_A_404
prProtoss 08172319213D 1   1.00000     0.00000     0
Protoss beta proteinsplus
  6  5  0  0  0  0            999 V2000
  -12.0480   -5.3220   37.7200 O   0  0  0  0  0  0  0  0  0  0  0  0
  -11.8350   -3.9550   37.4910 C   0  0  0  0  0  0  0  0  0  0  0  0
  -11.1671   -5.7921   37.7744 H   0  0  0  0  0  0  0  0  0  0  0  0
  -11.7607   -3.4779   38.3667 H   0  0  0  0  0  0  0  0  0  0  0  0
  -10.9895   -3.8318   36.9715 H   0  0  0  0  0  0  0  0  0  0  0  0
  -12.6030   -3.5804   36.9715 H   0  0  0  0  0  0  0  0  0  0  0  0
  1  2  1  0  0  0  0
  1  3  1  0  0  0  0
  2  4  1  0  0  0  0
  2  5  1  0  0  0  0
  2  6  1  0  0  0  0
M  END
$$$$
5LCR_MOH_A_405
prProtoss 08172319213D 1   1.00000     0.00000     0
Protoss beta proteinsplus
  6  5  0  0  0  0            999 V2000
   -5.4670   -6.4850   30.4910 O   0  0  0  0  0  0  0  0  0  0  0  0
   -5.2890   -7.5940   29.6650 C   0  0  0  0  0  0  0  0  0  0  0  0
   -5.1208   -5.6675   30.0307 H   0  0  0  0  0  0  0  0  0  0  0  0
   -5.1579   -8.4106   30.2271 H   0  0  0  0  0  0  0  0  0  0  0  0
   -6.0969   -7.7128   29.0877 H   0  0  0  0  0  0  0  0  0  0  0  0
   -4.4845   -7.4540   29.0877 H   0  0  0  0  0  0  0  0  0  0  0  0
  1  2  1  0  0  0  0
  1  3  1  0  0  0  0
  2  4  1  0  0  0  0
  2  5  1  0  0  0  0
  2  6  1  0  0  0  0
M  END
$$$$
5LCR_MOH_A_406
prProtoss 08172319213D 1   1.00000     0.00000     0
Protoss beta proteinsplus
  6  5  0  0  0  0            999 V2000
  -34.2430  -20.0180   35.7460 O   0  0  0  0  0  0  0  0  0  0  0  0
  -34.0290  -18.7390   35.2170 C   0  0  0  0  0  0  0  0  0  0  0  0
  -35.2238  -20.1668   35.8719 H   0  0  0  0  0  0  0  0  0  0  0  0
  -33.9193  -18.0834   35.9641 H   0  0  0  0  0  0  0  0  0  0  0  0
  -33.2021  -18.7449   34.6546 H   0  0  0  0  0  0  0  0  0  0  0  0
  -34.8128  -18.4755   34.6546 H   0  0  0  0  0  0  0  0  0  0  0  0
  1  2  1  0  0  0  0
  1  3  1  0  0  0  0
  2  4  1  0  0  0  0
  2  5  1  0  0  0  0
  2  6  1  0  0  0  0
M  END
$$$$
5LCR_MOH_B_101
prProtoss 08172319213D 1   1.00000     0.00000     0
Protoss beta proteinsplus
  6  5  0  0  0  0            999 V2000
   -2.0830  -31.1610   32.8240 O   0  0  0  0  0  0  0  0  0  0  0  0
   -3.1870  -30.7780   32.1540 C   0  0  0  0  0  0  0  0  0  0  0  0
   -2.3480  -31.5680   33.6981 H   0  0  0  0  0  0  0  0  0  0  0  0
   -3.0171  -30.8369   31.1703 H   0  0  0  0  0  0  0  0  0  0  0  0
   -3.9493  -31.3778   32.3972 H   0  0  0  0  0  0  0  0  0  0  0  0
   -3.4141  -29.8350   32.3972 H   0  0  0  0  0  0  0  0  0  0  0  0
  1  2  1  0  0  0  0
  1  3  1  0  0  0  0
  2  4  1  0  0  0  0
  2  5  1  0  0  0  0
  2  6  1  0  0  0  0
M  END
$$$$
6YQJ_6TX_A_401
prProtoss 08172315423D 1   1.00000     0.00000     0
Protoss beta proteinsplus
 40 41  0  0  0  0            999 V2000
  -12.7280  -25.7930   26.7970 S   0  0  0  0  0  0  0  0  0  0  0  0
  -13.4080  -26.3660   27.9150 O   0  0  0  0  0  0  0  0  0  0  0  0
  -12.0330  -26.6390   25.8770 O   0  0  0  0  0  0  0  0  0  0  0  0
   -9.0220  -25.9710   26.8180 N   0  3  0  0  0  0  0  0  0  0  0  0
  -16.7880  -26.6630   23.2700 N   0  0  0  0  0  0  0  0  0  0  0  0
  -11.6240  -24.7460   27.4010 N   0  0  0  0  0  0  0  0  0  0  0  0
  -11.3390  -23.6910   31.0770 C   0  0  0  0  0  0  0  0  0  0  0  0
   -9.2100  -24.4980   26.8250 C   0  0  0  0  0  0  0  0  0  0  0  0
  -16.0100  -27.4230   24.0580 C   0  0  0  0  0  0  0  0  0  0  0  0
  -16.6520  -25.3390   23.3660 C   0  0  0  0  0  0  0  0  0  0  0  0
  -10.6390  -24.1240   26.4860 C   0  0  0  0  0  0  0  0  0  0  0  0
  -11.9420  -24.0110   28.6460 C   0  0  0  0  0  0  0  0  0  0  0  0
  -11.1090  -24.5120   29.8170 C   0  0  0  0  0  0  0  0  0  0  0  0
  -14.7340  -22.7280   25.2230 C   0  0  0  0  0  0  0  0  0  0  0  0
  -15.0800  -26.9300   24.9280 C   0  0  0  0  0  0  0  0  0  0  0  0
  -13.8850  -23.5210   25.9810 C   0  0  0  0  0  0  0  0  0  0  0  0
  -15.6380  -23.2880   24.3710 C   0  0  0  0  0  0  0  0  0  0  0  0
  -13.9470  -24.8840   25.8890 C   0  0  0  0  0  0  0  0  0  0  0  0
  -15.7420  -24.6950   24.2460 C   0  0  0  0  0  0  0  0  0  0  0  0
  -14.9050  -25.5270   25.0390 C   0  0  0  0  0  0  0  0  0  0  0  0
   -8.3306  -26.2156   26.1382 H   0  0  0  0  0  0  0  0  0  0  0  0
   -8.7215  -26.2730   27.7227 H   0  0  0  0  0  0  0  0  0  0  0  0
  -10.7743  -24.0532   31.8186 H   0  0  0  0  0  0  0  0  0  0  0  0
  -11.0906  -22.7379   30.9038 H   0  0  0  0  0  0  0  0  0  0  0  0
  -12.3033  -23.7422   31.3368 H   0  0  0  0  0  0  0  0  0  0  0  0
   -8.5970  -24.0881   26.1496 H   0  0  0  0  0  0  0  0  0  0  0  0
   -8.9879  -24.1455   27.7341 H   0  0  0  0  0  0  0  0  0  0  0  0
  -16.1190  -28.4156   24.0041 H   0  0  0  0  0  0  0  0  0  0  0  0
  -17.2262  -24.7648   22.7824 H   0  0  0  0  0  0  0  0  0  0  0  0
  -10.7320  -23.1300   26.5434 H   0  0  0  0  0  0  0  0  0  0  0  0
  -10.8355  -24.4238   25.5525 H   0  0  0  0  0  0  0  0  0  0  0  0
  -12.9109  -24.1365   28.8591 H   0  0  0  0  0  0  0  0  0  0  0  0
  -11.7547  -23.0387   28.5063 H   0  0  0  0  0  0  0  0  0  0  0  0
  -11.3541  -25.4635   30.0031 H   0  0  0  0  0  0  0  0  0  0  0  0
  -10.1414  -24.4592   29.5701 H   0  0  0  0  0  0  0  0  0  0  0  0
  -14.6819  -21.7326   25.3029 H   0  0  0  0  0  0  0  0  0  0  0  0
  -14.5273  -27.5527   25.4819 H   0  0  0  0  0  0  0  0  0  0  0  0
  -13.2241  -23.0937   26.5980 H   0  0  0  0  0  0  0  0  0  0  0  0
  -16.2353  -22.6984   23.8273 H   0  0  0  0  0  0  0  0  0  0  0  0
   -9.8874  -26.4164   26.5884 H   0  0  0  0  0  0  0  0  0  0  0  0
  1  2  2  0  0  0  0
  1  3  2  0  0  0  0
  1  6  1  0  0  0  0
  1 18  1  0  0  0  0
  4  8  1  0  0  0  0
  5  9  2  0  0  0  0
  5 10  1  0  0  0  0
  6 11  1  0  0  0  0
  6 12  1  0  0  0  0
  7 13  1  0  0  0  0
  8 11  1  0  0  0  0
  9 15  1  0  0  0  0
 10 19  2  0  0  0  0
 12 13  1  0  0  0  0
 14 16  1  0  0  0  0
 14 17  2  0  0  0  0
 15 20  2  0  0  0  0
 16 18  2  0  0  0  0
 17 19  1  0  0  0  0
 18 20  1  0  0  0  0
 19 20  1  0  0  0  0
  4 21  1  0  0  0  0
  4 22  1  0  0  0  0
  7 23  1  0  0  0  0
  7 24  1  0  0  0  0
  7 25  1  0  0  0  0
  8 26  1  0  0  0  0
  8 27  1  0  0  0  0
  9 28  1  0  0  0  0
 10 29  1  0  0  0  0
 11 30  1  0  0  0  0
 11 31  1  0  0  0  0
 12 32  1  0  0  0  0
 12 33  1  0  0  0  0
 13 34  1  0  0  0  0
 13 35  1  0  0  0  0
 14 36  1  0  0  0  0
 15 37  1  0  0  0  0
 16 38  1  0  0  0  0
 17 39  1  0  0  0  0
  4 40  1  0  0  0  0
M  CHG  1   4   1
M  END
$$$$
2UW5_GVN_A_1351
prProtoss 05262315053D 1   1.00000     0.00000     0
Protoss beta proteinsplus
 38 40  0  0  0  0            999 V2000
   13.4240   13.2530   -0.2420 Cl  0  0  0  0  0  0  0  0  0  0  0  0
   12.5210    7.4910    3.0520 N   0  3  0  0  0  0  0  0  0  0  0  0
    2.8490    9.8960    4.0050 N   0  0  0  0  0  0  0  0  0  0  0  0
    2.8910    9.8690    2.6490 N   0  0  0  0  0  0  0  0  0  0  0  0
   11.0550    7.7400    2.9990 C   0  0  0  0  0  0  0  0  0  0  0  0
    4.1210    9.8490    4.3900 C   0  0  0  0  0  0  0  0  0  0  0  0
    4.1580    9.8080    2.2100 C   0  0  0  0  0  0  0  0  0  0  0  0
   12.1740   10.8910    0.2290 C   0  0  0  0  0  0  0  0  0  0  0  0
   12.4980   12.3190    2.1280 C   0  0  0  0  0  0  0  0  0  0  0  0
   11.5580    9.9570    1.0370 C   0  0  0  0  0  0  0  0  0  0  0  0
   11.8830   11.3870    2.9350 C   0  0  0  0  0  0  0  0  0  0  0  0
    7.1520    9.7520    4.4920 C   0  0  0  0  0  0  0  0  0  0  0  0
    7.1270    9.4660    2.1160 C   0  0  0  0  0  0  0  0  0  0  0  0
    8.5230    9.6000    4.4960 C   0  0  0  0  0  0  0  0  0  0  0  0
    8.4970    9.3150    2.1190 C   0  0  0  0  0  0  0  0  0  0  0  0
   12.6480   12.0760    0.7720 C   0  0  0  0  0  0  0  0  0  0  0  0
    4.9780    9.8130    3.2960 C   0  0  0  0  0  0  0  0  0  0  0  0
    6.4400    9.7000    3.3010 C   0  0  0  0  0  0  0  0  0  0  0  0
   11.4100   10.1950    2.4010 C   0  0  0  0  0  0  0  0  0  0  0  0
    9.2110    9.3850    3.3080 C   0  0  0  0  0  0  0  0  0  0  0  0
   10.7180    9.1970    3.3120 C   0  0  1  0  0  0  0  0  0  0  0  0
   12.7802    7.2224    3.9797 H   0  0  0  0  0  0  0  0  0  0  0  0
   12.7579    6.7580    2.4144 H   0  0  0  0  0  0  0  0  0  0  0  0
   10.6018    7.1515    3.6685 H   0  0  0  0  0  0  0  0  0  0  0  0
   10.7218    7.5200    2.0822 H   0  0  0  0  0  0  0  0  0  0  0  0
    4.4222    9.8406    5.3435 H   0  0  0  0  0  0  0  0  0  0  0  0
    4.4481    9.7663    1.2539 H   0  0  0  0  0  0  0  0  0  0  0  0
   12.2788   10.7131   -0.7495 H   0  0  0  0  0  0  0  0  0  0  0  0
   12.8371   13.1733    2.5219 H   0  0  0  0  0  0  0  0  0  0  0  0
   11.2161    9.1048    0.6408 H   0  0  0  0  0  0  0  0  0  0  0  0
   11.7763   11.5699    3.9123 H   0  0  0  0  0  0  0  0  0  0  0  0
    6.6670    9.9008    5.3537 H   0  0  0  0  0  0  0  0  0  0  0  0
    6.6234    9.4067    1.2541 H   0  0  0  0  0  0  0  0  0  0  0  0
    9.0252    9.6448    5.3596 H   0  0  0  0  0  0  0  0  0  0  0  0
    8.9804    9.1538    1.2586 H   0  0  0  0  0  0  0  0  0  0  0  0
   11.0349    9.3791    4.2428 H   0  0  0  0  0  0  0  0  0  0  0  0
   13.0102    8.3252    2.7975 H   0  0  0  0  0  0  0  0  0  0  0  0
    2.0860    9.8915    2.0562 H   0  0  0  0  0  0  0  0  0  0  0  0
  1 16  1  0  0  0  0
  2  5  1  0  0  0  0
  3  4  1  0  0  0  0
  3  6  2  0  0  0  0
  4  7  1  0  0  0  0
  5 21  1  0  0  0  0
  6 17  1  0  0  0  0
  7 17  2  0  0  0  0
  8 10  2  0  0  0  0
  8 16  1  0  0  0  0
  9 11  1  0  0  0  0
  9 16  2  0  0  0  0
 10 19  1  0  0  0  0
 11 19  2  0  0  0  0
 12 14  1  0  0  0  0
 12 18  2  0  0  0  0
 13 15  2  0  0  0  0
 13 18  1  0  0  0  0
 14 20  2  0  0  0  0
 15 20  1  0  0  0  0
 17 18  1  0  0  0  0
 19 21  1  0  0  0  0
 20 21  1  0  0  0  0
  2 22  1  0  0  0  0
  2 23  1  0  0  0  0
  2 37  1  0  0  0  0
  5 24  1  0  0  0  0
  5 25  1  0  0  0  0
  6 26  1  0  0  0  0
  7 27  1  0  0  0  0
  8 28  1  0  0  0  0
  9 29  1  0  0  0  0
 10 30  1  0  0  0  0
 11 31  1  0  0  0  0
 12 32  1  0  0  0  0
 13 33  1  0  0  0  0
 14 34  1  0  0  0  0
 15 35  1  0  0  0  0
 21 36  1  0  0  0  0
  4 38  1  0  0  0  0
M  CHG  1   2   1
M  END
$$$$
3OXT_3SB_A_2001
prProtoss 08192303263D 1   1.00000     0.00000     0
Protoss beta proteinsplus
 40 41  0  0  0  0            999 V2000
   26.9680   -8.9360   -0.2220 O   0  0  0  0  0  0  0  0  0  0  0  0
   35.1480   -9.8310    3.4690 O   0  0  0  0  0  0  0  0  0  0  0  0
   31.2540   -9.6820    0.6890 O   0  0  0  0  0  0  0  0  0  0  0  0
   24.3810   -8.3210    0.4730 N   0  3  0  0  0  0  0  0  0  0  0  0
   28.7930   -9.5100    1.8760 N   0  0  0  0  0  0  0  0  0  0  0  0
   27.4170   -9.6100    1.9590 N   0  0  0  0  0  0  0  0  0  0  0  0
   30.6110  -10.0670    5.5130 C   0  0  0  0  0  0  0  0  0  0  0  0
   29.4780   -9.8890    2.9590 C   0  0  0  0  0  0  0  0  0  0  0  0
   23.7200  -13.1280   -0.7950 C   0  0  0  0  0  0  0  0  0  0  0  0
   23.7110  -11.9360   -1.5210 C   0  0  0  0  0  0  0  0  0  0  0  0
   24.1540  -13.1330    0.5220 C   0  0  0  0  0  0  0  0  0  0  0  0
   24.1340  -10.7520   -0.9130 C   0  0  0  0  0  0  0  0  0  0  0  0
   24.5720  -11.9530    1.1340 C   0  0  0  0  0  0  0  0  0  0  0  0
   33.1940   -9.7460    2.0910 C   0  0  0  0  0  0  0  0  0  0  0  0
   32.9510   -9.9410    4.4810 C   0  0  0  0  0  0  0  0  0  0  0  0
   26.5160   -9.3020    0.8590 C   0  0  0  0  0  0  0  0  0  0  0  0
   33.7650   -9.8420    3.3560 C   0  0  0  0  0  0  0  0  0  0  0  0
   31.8050   -9.7590    1.9480 C   0  0  0  0  0  0  0  0  0  0  0  0
   25.0190   -9.4600    1.0570 C   0  0  2  0  0  0  0  0  0  0  0  0
   31.5550   -9.9590    4.3280 C   0  0  0  0  0  0  0  0  0  0  0  0
   24.5580  -10.7550    0.4120 C   0  0  0  0  0  0  0  0  0  0  0  0
   30.9890   -9.8620    3.0590 C   0  0  0  0  0  0  0  0  0  0  0  0
   35.7160   -9.7550    2.6495 H   0  0  0  0  0  0  0  0  0  0  0  0
   30.2604   -9.6906    0.5767 H   0  0  0  0  0  0  0  0  0  0  0  0
   23.3907   -8.3979    0.5887 H   0  0  0  0  0  0  0  0  0  0  0  0
   24.7057   -7.4895    0.9237 H   0  0  0  0  0  0  0  0  0  0  0  0
   27.0178   -9.9114    2.8249 H   0  0  0  0  0  0  0  0  0  0  0  0
   29.6655  -10.0627    5.1874 H   0  0  0  0  0  0  0  0  0  0  0  0
   30.7901  -10.9188    6.0053 H   0  0  0  0  0  0  0  0  0  0  0  0
   30.7559   -9.2906    6.1264 H   0  0  0  0  0  0  0  0  0  0  0  0
   28.9610  -10.2103    3.7524 H   0  0  0  0  0  0  0  0  0  0  0  0
   23.4137  -13.9777   -1.2242 H   0  0  0  0  0  0  0  0  0  0  0  0
   23.4030  -11.9298   -2.4724 H   0  0  0  0  0  0  0  0  0  0  0  0
   24.1671  -13.9903    1.0367 H   0  0  0  0  0  0  0  0  0  0  0  0
   24.1321   -9.8977   -1.4327 H   0  0  0  0  0  0  0  0  0  0  0  0
   24.8806  -11.9626    2.0851 H   0  0  0  0  0  0  0  0  0  0  0  0
   33.7787   -9.6676    1.2835 H   0  0  0  0  0  0  0  0  0  0  0  0
   33.3578   -9.9990    5.3927 H   0  0  0  0  0  0  0  0  0  0  0  0
   24.8158   -9.4873    2.0358 H   0  0  0  0  0  0  0  0  0  0  0  0
   24.6005   -8.2793   -0.5017 H   0  0  0  0  0  0  0  0  0  0  0  0
  1 16  2  0  0  0  0
  2 17  1  0  0  0  0
  3 18  1  0  0  0  0
  4 19  1  0  0  0  0
  5  6  1  0  0  0  0
  5  8  2  0  0  0  0
  6 16  1  0  0  0  0
  7 20  1  0  0  0  0
  8 22  1  0  0  0  0
  9 10  2  0  0  0  0
  9 11  1  0  0  0  0
 10 12  1  0  0  0  0
 11 13  2  0  0  0  0
 12 21  2  0  0  0  0
 13 21  1  0  0  0  0
 14 17  2  0  0  0  0
 14 18  1  0  0  0  0
 15 17  1  0  0  0  0
 15 20  2  0  0  0  0
 16 19  1  0  0  0  0
 18 22  2  0  0  0  0
 19 21  1  0  0  0  0
 20 22  1  0  0  0  0
  2 23  1  0  0  0  0
  3 24  1  0  0  0  0
  4 25  1  0  0  0  0
  4 26  1  0  0  0  0
  6 27  1  0  0  0  0
  7 28  1  0  0  0  0
  7 29  1  0  0  0  0
  7 30  1  0  0  0  0
  8 31  1  0  0  0  0
  9 32  1  0  0  0  0
 10 33  1  0  0  0  0
 11 34  1  0  0  0  0
 12 35  1  0  0  0  0
 13 36  1  0  0  0  0
 14 37  1  0  0  0  0
 15 38  1  0  0  0  0
 19 39  1  0  0  0  0
  4 40  1  0  0  0  0
M  CHG  1   4   1
M  END
$$$$
4IJ9_PTV_A_401
prProtoss 03132510143D 1   1.00000     0.00000     0
Protoss beta proteinsplus
 31 33  0  0  0  0            999 V2000
   12.7250   13.4980    0.1570 S   0  0  0  0  0  0  0  0  0  0  0  0
   10.6430    9.9110    3.7750 S   0  0  0  0  0  0  0  0  0  0  0  0
   11.3400   12.4040    2.6640 O   0  0  0  0  0  0  0  0  0  0  0  0
    2.8710    9.6490    3.8900 N   0  5  0  0  0  0  0  0  0  0  0  0
    8.6850    9.7180    1.8050 N   0  0  0  0  0  0  0  0  0  0  0  0
    7.4540    9.7150    1.7230 N   0  0  0  0  0  0  0  0  0  0  0  0
    7.9190    9.8980    3.8100 N   0  0  0  0  0  0  0  0  0  0  0  0
   13.5510   13.0880   -1.2560 C   0  0  0  0  0  0  0  0  0  0  0  0
   11.7240   10.0560    2.3260 C   0  0  0  0  0  0  0  0  0  0  0  0
    3.7580    9.6960    4.8820 C   0  0  0  0  0  0  0  0  0  0  0  0
    3.2350    9.6660    2.6090 C   0  0  0  0  0  0  0  0  0  0  0  0
   13.6110   11.7410   -1.2990 C   0  0  0  0  0  0  0  0  0  0  0  0
   13.0510   11.0950   -0.2590 C   0  0  0  0  0  0  0  0  0  0  0  0
    5.1280    9.7920    4.6080 C   0  0  0  0  0  0  0  0  0  0  0  0
    4.5840    9.7740    2.2640 C   0  0  0  0  0  0  0  0  0  0  0  0
    9.0210    9.8430    3.0850 C   0  0  0  0  0  0  0  0  0  0  0  0
   12.5170   11.9190    0.6430 C   0  0  0  0  0  0  0  0  0  0  0  0
   11.8050   11.5280    1.9310 C   0  0  0  0  0  0  0  0  0  0  0  0
    6.9150    9.8430    2.9450 C   0  0  0  0  0  0  0  0  0  0  0  0
    5.5530    9.8320    3.2710 C   0  0  0  0  0  0  0  0  0  0  0  0
    6.9352    9.6298    0.8724 H   0  0  0  0  0  0  0  0  0  0  0  0
    7.8546    9.9669    4.8055 H   0  0  0  0  0  0  0  0  0  0  0  0
   13.9248   13.7225   -1.9325 H   0  0  0  0  0  0  0  0  0  0  0  0
   11.3467    9.5233    1.5685 H   0  0  0  0  0  0  0  0  0  0  0  0
   12.6372    9.7158    2.5505 H   0  0  0  0  0  0  0  0  0  0  0  0
    3.4432    9.6625    5.8306 H   0  0  0  0  0  0  0  0  0  0  0  0
    2.5406    9.6013    1.8923 H   0  0  0  0  0  0  0  0  0  0  0  0
   14.0445   11.2526   -2.0563 H   0  0  0  0  0  0  0  0  0  0  0  0
   13.0370   10.0989   -0.1719 H   0  0  0  0  0  0  0  0  0  0  0  0
    5.7933    9.8314    5.3536 H   0  0  0  0  0  0  0  0  0  0  0  0
    4.8557    9.8097    1.3023 H   0  0  0  0  0  0  0  0  0  0  0  0
  1  8  1  0  0  0  0
  1 17  1  0  0  0  0
  2  9  1  0  0  0  0
  2 16  1  0  0  0  0
  3 18  2  0  0  0  0
  4 10  1  0  0  0  0
  4 11  1  0  0  0  0
  5  6  1  0  0  0  0
  5 16  2  0  0  0  0
  6 19  1  0  0  0  0
  7 16  1  0  0  0  0
  7 19  1  0  0  0  0
  8 12  2  0  0  0  0
  9 18  1  0  0  0  0
 10 14  2  0  0  0  0
 11 15  2  0  0  0  0
 12 13  1  0  0  0  0
 13 17  2  0  0  0  0
 14 20  1  0  0  0  0
 15 20  1  0  0  0  0
 17 18  1  0  0  0  0
 19 20  2  0  0  0  0
 15 31  1  0  0  0  0
  6 21  1  0  0  0  0
  7 22  1  0  0  0  0
  8 23  1  0  0  0  0
  9 24  1  0  0  0  0
  9 25  1  0  0  0  0
 10 26  1  0  0  0  0
 11 27  1  0  0  0  0
 12 28  1  0  0  0  0
 13 29  1  0  0  0  0
 14 30  1  0  0  0  0
M  CHG  1   4  -1
M  END
$$$$
5M75_DMS_A_401
prProtoss 08192305023D 1   1.00000     0.00000     0
Protoss beta proteinsplus
 10  9  0  0  0  0            999 V2000
  -10.9760  -14.9970    3.3050 S   0  0  0  0  0  0  0  0  0  0  0  0
   -9.7820  -14.2600    2.7850 O   0  0  0  0  0  0  0  0  0  0  0  0
  -11.4310  -14.3270    4.9270 C   0  0  0  0  0  0  0  0  0  0  0  0
  -12.4450  -14.5640    2.3310 C   0  0  0  0  0  0  0  0  0  0  0  0
  -12.2289  -14.8170    5.2782 H   0  0  0  0  0  0  0  0  0  0  0  0
  -10.6655  -14.4391    5.5606 H   0  0  0  0  0  0  0  0  0  0  0  0
  -11.6496  -13.3554    4.8369 H   0  0  0  0  0  0  0  0  0  0  0  0
  -13.2377  -15.0604    2.6848 H   0  0  0  0  0  0  0  0  0  0  0  0
  -12.6109  -13.5801    2.3975 H   0  0  0  0  0  0  0  0  0  0  0  0
  -12.2957  -14.8129    1.3740 H   0  0  0  0  0  0  0  0  0  0  0  0
  1  2  2  0  0  0  0
  1  3  1  0  0  0  0
  1  4  1  0  0  0  0
  3  5  1  0  0  0  0
  3  6  1  0  0  0  0
  3  7  1  0  0  0  0
  4  8  1  0  0  0  0
  4  9  1  0  0  0  0
  4 10  1  0  0  0  0
M  END
$$$$
5M75_9K6_A_402
prProtoss 08192305023D 1   1.00000     0.00000     0
Protoss beta proteinsplus
 41 43  0  0  0  0            999 V2000
  -13.3930  -25.5980   27.2680 S   0  0  0  0  0  0  0  0  0  0  0  0
  -14.0570  -25.9830   28.4710 O   0  0  0  0  0  0  0  0  0  0  0  0
  -12.8080  -26.5910   26.4260 O   0  0  0  0  0  0  0  0  0  0  0  0
   -9.4060  -24.6820   28.7680 N   0  3  0  0  0  0  0  0  0  0  0  0
  -17.2640  -26.4370   23.5680 N   0  0  0  0  0  0  0  0  0  0  0  0
  -12.1920  -24.5820   27.6710 N   0  0  0  0  0  0  0  0  0  0  0  0
  -11.2500  -23.4680   25.6510 C   0  0  0  0  0  0  0  0  0  0  0  0
  -10.0420  -24.1090   29.9710 C   0  0  0  0  0  0  0  0  0  0  0  0
  -16.4840  -27.2000   24.3480 C   0  0  0  0  0  0  0  0  0  0  0  0
   -9.7510  -23.9750   27.5360 C   0  0  0  0  0  0  0  0  0  0  0  0
  -17.1850  -25.1230   23.7210 C   0  0  0  0  0  0  0  0  0  0  0  0
  -12.2960  -23.7380   28.8790 C   0  0  0  0  0  0  0  0  0  0  0  0
  -11.5340  -24.3060   30.0590 C   0  0  0  0  0  0  0  0  0  0  0  0
  -15.3450  -22.5120   25.6510 C   0  0  0  0  0  0  0  0  0  0  0  0
  -15.6090  -26.7090   25.2710 C   0  0  0  0  0  0  0  0  0  0  0  0
  -14.4900  -23.3050   26.4020 C   0  0  0  0  0  0  0  0  0  0  0  0
  -16.2390  -23.0740   24.7790 C   0  0  0  0  0  0  0  0  0  0  0  0
  -14.5450  -24.6700   26.3020 C   0  0  0  0  0  0  0  0  0  0  0  0
  -10.9970  -24.4300   26.7980 C   0  0  1  0  0  0  0  0  0  0  0  0
  -16.3170  -24.4820   24.6340 C   0  0  0  0  0  0  0  0  0  0  0  0
  -15.4800  -25.3130   25.4250 C   0  0  0  0  0  0  0  0  0  0  0  0
   -9.6970  -25.6346   28.6789 H   0  0  0  0  0  0  0  0  0  0  0  0
  -10.4255  -23.3940   25.0900 H   0  0  0  0  0  0  0  0  0  0  0  0
  -12.0050  -23.8086   25.0906 H   0  0  0  0  0  0  0  0  0  0  0  0
  -11.4862  -22.5678   26.0169 H   0  0  0  0  0  0  0  0  0  0  0  0
   -9.8579  -23.1261   29.9807 H   0  0  0  0  0  0  0  0  0  0  0  0
   -9.6252  -24.5342   30.7744 H   0  0  0  0  0  0  0  0  0  0  0  0
  -16.5484  -28.1927   24.2460 H   0  0  0  0  0  0  0  0  0  0  0  0
   -8.9784  -24.0706   26.9084 H   0  0  0  0  0  0  0  0  0  0  0  0
   -9.8747  -23.0102   27.7679 H   0  0  0  0  0  0  0  0  0  0  0  0
  -17.7766  -24.5489   23.1550 H   0  0  0  0  0  0  0  0  0  0  0  0
  -13.2605  -23.6573   29.1304 H   0  0  0  0  0  0  0  0  0  0  0  0
  -11.9295  -22.8318   28.6682 H   0  0  0  0  0  0  0  0  0  0  0  0
  -11.8625  -23.8592   30.8911 H   0  0  0  0  0  0  0  0  0  0  0  0
  -11.7200  -25.2871   30.1118 H   0  0  0  0  0  0  0  0  0  0  0  0
  -15.3082  -21.5174   25.7475 H   0  0  0  0  0  0  0  0  0  0  0  0
  -15.0645  -27.3319   25.8327 H   0  0  0  0  0  0  0  0  0  0  0  0
  -13.8298  -22.8779   27.0198 H   0  0  0  0  0  0  0  0  0  0  0  0
  -16.8420  -22.4860   24.2399 H   0  0  0  0  0  0  0  0  0  0  0  0
  -10.7999  -25.3261   26.4003 H   0  0  0  0  0  0  0  0  0  0  0  0
   -8.4137  -24.6463   28.8866 H   0  0  0  0  0  0  0  0  0  0  0  0
  1  2  2  0  0  0  0
  1  3  2  0  0  0  0
  1  6  1  0  0  0  0
  1 18  1  0  0  0  0
  4  8  1  0  0  0  0
  4 10  1  0  0  0  0
  5  9  2  0  0  0  0
  5 11  1  0  0  0  0
  6 12  1  0  0  0  0
  6 19  1  0  0  0  0
  7 19  1  0  0  0  0
  8 13  1  0  0  0  0
  9 15  1  0  0  0  0
 10 19  1  0  0  0  0
 11 20  2  0  0  0  0
 12 13  1  0  0  0  0
 14 16  1  0  0  0  0
 14 17  2  0  0  0  0
 15 21  2  0  0  0  0
 16 18  2  0  0  0  0
 17 20  1  0  0  0  0
 18 21  1  0  0  0  0
 20 21  1  0  0  0  0
  4 22  1  0  0  0  0
  7 23  1  0  0  0  0
  7 24  1  0  0  0  0
  7 25  1  0  0  0  0
  8 26  1  0  0  0  0
  8 27  1  0  0  0  0
  9 28  1  0  0  0  0
 10 29  1  0  0  0  0
 10 30  1  0  0  0  0
 11 31  1  0  0  0  0
 12 32  1  0  0  0  0
 12 33  1  0  0  0  0
 13 34  1  0  0  0  0
 13 35  1  0  0  0  0
 14 36  1  0  0  0  0
 15 37  1  0  0  0  0
 16 38  1  0  0  0  0
 17 39  1  0  0  0  0
 19 40  1  0  0  0  0
  4 41  1  0  0  0  0
M  CHG  1   4   1
M  END
$$$$
5M6Y_7KB_A_401
prProtoss 06132322593D 1   1.00000     0.00000     0
Protoss beta proteinsplus
 41 43  0  0  0  0            999 V2000
  -13.7370   24.5620  -27.3950 S   0  0  0  0  0  0  0  0  0  0  0  0
  -14.1420   24.9390  -28.7140 O   0  0  0  0  0  0  0  0  0  0  0  0
  -13.1110   25.5290  -26.5490 O   0  0  0  0  0  0  0  0  0  0  0  0
   -9.7440   22.4220  -27.0780 N   0  3  0  0  0  0  0  0  0  0  0  0
  -17.5230   26.0380  -23.7180 N   0  0  0  0  0  0  0  0  0  0  0  0
  -12.6550   23.3520  -27.5740 N   0  0  0  0  0  0  0  0  0  0  0  0
  -15.6600   26.9920  -26.8310 C   0  0  0  0  0  0  0  0  0  0  0  0
  -10.6280   23.1920  -26.1550 C   0  0  0  0  0  0  0  0  0  0  0  0
  -10.0670   22.6020  -28.5240 C   0  0  0  0  0  0  0  0  0  0  0  0
  -16.8850   26.7040  -24.6840 C   0  0  0  0  0  0  0  0  0  0  0  0
  -17.4740   24.7240  -23.7500 C   0  0  0  0  0  0  0  0  0  0  0  0
  -12.0660   22.7860  -26.3440 C   0  0  0  0  0  0  0  0  0  0  0  0
  -12.6070   22.5640  -28.8200 C   0  0  0  0  0  0  0  0  0  0  0  0
  -11.3000   21.8020  -28.9730 C   0  0  0  0  0  0  0  0  0  0  0  0
  -16.0190   21.8580  -25.6090 C   0  0  0  0  0  0  0  0  0  0  0  0
  -15.1880   22.5180  -26.5020 C   0  0  0  0  0  0  0  0  0  0  0  0
  -16.7580   22.5600  -24.7110 C   0  0  0  0  0  0  0  0  0  0  0  0
  -15.1070   23.8840  -26.5020 C   0  0  0  0  0  0  0  0  0  0  0  0
  -16.1560   26.1160  -25.7100 C   0  0  0  0  0  0  0  0  0  0  0  0
  -16.7450   23.9760  -24.7070 C   0  0  0  0  0  0  0  0  0  0  0  0
  -15.9450   24.6950  -25.6540 C   0  0  0  0  0  0  0  0  0  0  0  0
   -9.8286   21.4506  -26.8560 H   0  0  0  0  0  0  0  0  0  0  0  0
  -15.1557   26.4352  -27.4910 H   0  0  0  0  0  0  0  0  0  0  0  0
  -16.4387   27.4244  -27.2857 H   0  0  0  0  0  0  0  0  0  0  0  0
  -15.0564   27.6979  -26.4603 H   0  0  0  0  0  0  0  0  0  0  0  0
  -10.5336   24.1688  -26.3470 H   0  0  0  0  0  0  0  0  0  0  0  0
  -10.3558   23.0101  -25.2101 H   0  0  0  0  0  0  0  0  0  0  0  0
   -9.2805   22.3039  -29.0649 H   0  0  0  0  0  0  0  0  0  0  0  0
  -10.2391   23.5725  -28.6928 H   0  0  0  0  0  0  0  0  0  0  0  0
  -16.9360   27.7026  -24.6675 H   0  0  0  0  0  0  0  0  0  0  0  0
  -17.9847   24.2201  -23.0533 H   0  0  0  0  0  0  0  0  0  0  0  0
  -12.1138   21.7884  -26.3949 H   0  0  0  0  0  0  0  0  0  0  0  0
  -12.5956   23.1054  -25.5582 H   0  0  0  0  0  0  0  0  0  0  0  0
  -12.7097   23.1850  -29.5970 H   0  0  0  0  0  0  0  0  0  0  0  0
  -13.3623   21.9086  -28.8150 H   0  0  0  0  0  0  0  0  0  0  0  0
  -11.3536   20.9683  -28.4234 H   0  0  0  0  0  0  0  0  0  0  0  0
  -11.1861   21.5594  -29.9364 H   0  0  0  0  0  0  0  0  0  0  0  0
  -16.0745   20.8597  -25.6263 H   0  0  0  0  0  0  0  0  0  0  0  0
  -14.6423   21.9900  -27.1527 H   0  0  0  0  0  0  0  0  0  0  0  0
  -17.3189   22.0701  -24.0436 H   0  0  0  0  0  0  0  0  0  0  0  0
   -8.8004   22.7173  -26.9280 H   0  0  0  0  0  0  0  0  0  0  0  0
  1  2  2  0  0  0  0
  1  3  2  0  0  0  0
  1  6  1  0  0  0  0
  1 18  1  0  0  0  0
  4  8  1  0  0  0  0
  4  9  1  0  0  0  0
  5 10  2  0  0  0  0
  5 11  1  0  0  0  0
  6 12  1  0  0  0  0
  6 13  1  0  0  0  0
  7 19  1  0  0  0  0
  8 12  1  0  0  0  0
  9 14  1  0  0  0  0
 10 19  1  0  0  0  0
 11 20  2  0  0  0  0
 13 14  1  0  0  0  0
 15 16  1  0  0  0  0
 15 17  2  0  0  0  0
 16 18  2  0  0  0  0
 17 20  1  0  0  0  0
 18 21  1  0  0  0  0
 19 21  2  0  0  0  0
 20 21  1  0  0  0  0
  4 22  1  0  0  0  0
  7 23  1  0  0  0  0
  7 24  1  0  0  0  0
  7 25  1  0  0  0  0
  8 26  1  0  0  0  0
  8 27  1  0  0  0  0
  9 28  1  0  0  0  0
  9 29  1  0  0  0  0
 10 30  1  0  0  0  0
 11 31  1  0  0  0  0
 12 32  1  0  0  0  0
 12 33  1  0  0  0  0
 13 34  1  0  0  0  0
 13 35  1  0  0  0  0
 14 36  1  0  0  0  0
 14 37  1  0  0  0  0
 15 38  1  0  0  0  0
 16 39  1  0  0  0  0
 17 40  1  0  0  0  0
  4 41  1  0  0  0  0
M  CHG  1   4   1
M  END
$$$$
5M6Y_MPD_A_402
prProtoss 06132322593D 1   1.00000     0.00000     0
Protoss beta proteinsplus
 22 21  0  0  0  0            999 V2000
   -9.6110   13.4990   -6.6950 O   0  0  0  0  0  0  0  0  0  0  0  0
  -10.2600   14.0800   -2.5080 O   0  0  0  0  0  0  0  0  0  0  0  0
   -8.8160   13.2410   -4.4920 C   0  0  0  0  0  0  0  0  0  0  0  0
  -10.7640   16.1000   -3.5310 C   0  0  0  0  0  0  0  0  0  0  0  0
  -12.6550   14.5860   -2.8190 C   0  0  0  0  0  0  0  0  0  0  0  0
  -11.2270   14.0260   -4.8320 C   0  0  0  0  0  0  0  0  0  0  0  0
  -10.0340   13.1930   -5.3700 C   0  0  1  0  0  0  0  0  0  0  0  0
  -11.2380   14.6630   -3.4200 C   0  0  0  0  0  0  0  0  0  0  0  0
   -8.6249   13.6650   -6.7001 H   0  0  0  0  0  0  0  0  0  0  0  0
  -10.7274   13.7354   -1.6939 H   0  0  0  0  0  0  0  0  0  0  0  0
   -9.0759   13.0302   -3.5496 H   0  0  0  0  0  0  0  0  0  0  0  0
   -8.1479   12.5691   -4.8118 H   0  0  0  0  0  0  0  0  0  0  0  0
   -8.4134   14.1556   -4.5301 H   0  0  0  0  0  0  0  0  0  0  0  0
  -11.3718   16.6051   -4.1437 H   0  0  0  0  0  0  0  0  0  0  0  0
  -10.7745   16.5253   -2.6260 H   0  0  0  0  0  0  0  0  0  0  0  0
   -9.8333   16.1167   -3.8964 H   0  0  0  0  0  0  0  0  0  0  0  0
  -13.3103   14.9898   -3.4575 H   0  0  0  0  0  0  0  0  0  0  0  0
  -12.8958   13.6295   -2.6546 H   0  0  0  0  0  0  0  0  0  0  0  0
  -12.6784   15.0888   -1.9549 H   0  0  0  0  0  0  0  0  0  0  0  0
  -12.0239   13.4230   -4.8692 H   0  0  0  0  0  0  0  0  0  0  0  0
  -11.3497   14.7808   -5.4764 H   0  0  0  0  0  0  0  0  0  0  0  0
  -10.3368   12.2400   -5.3824 H   0  0  0  0  0  0  0  0  0  0  0  0
  1  7  1  0  0  0  0
  2  8  1  0  0  0  0
  3  7  1  0  0  0  0
  4  8  1  0  0  0  0
  5  8  1  0  0  0  0
  6  7  1  0  0  0  0
  6  8  1  0  0  0  0
  1  9  1  0  0  0  0
  2 10  1  0  0  0  0
  3 11  1  0  0  0  0
  3 12  1  0  0  0  0
  3 13  1  0  0  0  0
  4 14  1  0  0  0  0
  4 15  1  0  0  0  0
  4 16  1  0  0  0  0
  5 17  1  0  0  0  0
  5 18  1  0  0  0  0
  5 19  1  0  0  0  0
  6 20  1  0  0  0  0
  6 21  1  0  0  0  0
  7 22  1  0  0  0  0
M  END
$$$$
6YQK_7KB_A_401
prProtoss 06142302083D 1   1.00000     0.00000     0
Protoss beta proteinsplus
 41 43  0  0  0  0            999 V2000
  -13.3630   26.1450  -26.9790 S   0  0  0  0  0  0  0  0  0  0  0  0
  -13.8150   26.5340  -28.2800 O   0  0  0  0  0  0  0  0  0  0  0  0
  -12.8040   27.1170  -26.0900 O   0  0  0  0  0  0  0  0  0  0  0  0
   -9.1960   24.4410  -26.6750 N   0  3  0  0  0  0  0  0  0  0  0  0
  -17.1880   27.0530  -23.1850 N   0  0  0  0  0  0  0  0  0  0  0  0
  -12.2160   25.0000  -27.1950 N   0  0  0  0  0  0  0  0  0  0  0  0
  -15.4980   28.3130  -26.2900 C   0  0  0  0  0  0  0  0  0  0  0  0
  -10.2020   25.0390  -25.7510 C   0  0  0  0  0  0  0  0  0  0  0  0
   -9.4850   24.8050  -28.0950 C   0  0  0  0  0  0  0  0  0  0  0  0
  -16.5640   27.8200  -24.0800 C   0  0  0  0  0  0  0  0  0  0  0  0
  -17.0770   25.7480  -23.3220 C   0  0  0  0  0  0  0  0  0  0  0  0
  -11.5650   24.4290  -26.0010 C   0  0  0  0  0  0  0  0  0  0  0  0
  -11.9610   24.3950  -28.5190 C   0  0  0  0  0  0  0  0  0  0  0  0
  -10.5460   23.8600  -28.6670 C   0  0  0  0  0  0  0  0  0  0  0  0
  -15.3480   23.1360  -25.3210 C   0  0  0  0  0  0  0  0  0  0  0  0
  -14.5670   23.9160  -26.1590 C   0  0  0  0  0  0  0  0  0  0  0  0
  -16.1820   23.7110  -24.4140 C   0  0  0  0  0  0  0  0  0  0  0  0
  -14.6340   25.2800  -26.0990 C   0  0  0  0  0  0  0  0  0  0  0  0
  -15.8700   27.3550  -25.1860 C   0  0  0  0  0  0  0  0  0  0  0  0
  -16.2970   25.1160  -24.3280 C   0  0  0  0  0  0  0  0  0  0  0  0
  -15.5530   25.9520  -25.2210 C   0  0  0  0  0  0  0  0  0  0  0  0
   -9.2186   23.4456  -26.5821 H   0  0  0  0  0  0  0  0  0  0  0  0
  -15.0050   27.8201  -27.0069 H   0  0  0  0  0  0  0  0  0  0  0  0
  -16.3280   28.7176  -26.6740 H   0  0  0  0  0  0  0  0  0  0  0  0
  -14.9144   29.0364  -25.9210 H   0  0  0  0  0  0  0  0  0  0  0  0
  -10.2478   26.0259  -25.9058 H   0  0  0  0  0  0  0  0  0  0  0  0
   -9.9289   24.8622  -24.8054 H   0  0  0  0  0  0  0  0  0  0  0  0
   -8.6466   24.7284  -28.6346 H   0  0  0  0  0  0  0  0  0  0  0  0
   -9.8221   25.7456  -28.1346 H   0  0  0  0  0  0  0  0  0  0  0  0
  -16.5997   28.8098  -23.9421 H   0  0  0  0  0  0  0  0  0  0  0  0
  -17.5725   25.1652  -22.6779 H   0  0  0  0  0  0  0  0  0  0  0  0
  -11.4584   23.4433  -26.1318 H   0  0  0  0  0  0  0  0  0  0  0  0
  -12.1455   24.5987  -25.2046 H   0  0  0  0  0  0  0  0  0  0  0  0
  -12.1136   25.0902  -29.2214 H   0  0  0  0  0  0  0  0  0  0  0  0
  -12.6025   23.6397  -28.6527 H   0  0  0  0  0  0  0  0  0  0  0  0
  -10.4847   22.9846  -28.1874 H   0  0  0  0  0  0  0  0  0  0  0  0
  -10.3580   23.7213  -29.6393 H   0  0  0  0  0  0  0  0  0  0  0  0
  -15.2976   22.1393  -25.3841 H   0  0  0  0  0  0  0  0  0  0  0  0
  -13.9498   23.4777  -26.8125 H   0  0  0  0  0  0  0  0  0  0  0  0
  -16.7200   23.1325  -23.8009 H   0  0  0  0  0  0  0  0  0  0  0  0
   -8.2869   24.7781  -26.4302 H   0  0  0  0  0  0  0  0  0  0  0  0
  1  2  2  0  0  0  0
  1  3  2  0  0  0  0
  1  6  1  0  0  0  0
  1 18  1  0  0  0  0
  4  8  1  0  0  0  0
  4  9  1  0  0  0  0
  5 10  2  0  0  0  0
  5 11  1  0  0  0  0
  6 12  1  0  0  0  0
  6 13  1  0  0  0  0
  7 19  1  0  0  0  0
  8 12  1  0  0  0  0
  9 14  1  0  0  0  0
 10 19  1  0  0  0  0
 11 20  2  0  0  0  0
 13 14  1  0  0  0  0
 15 16  1  0  0  0  0
 15 17  2  0  0  0  0
 16 18  2  0  0  0  0
 17 20  1  0  0  0  0
 18 21  1  0  0  0  0
 19 21  2  0  0  0  0
 20 21  1  0  0  0  0
  4 22  1  0  0  0  0
  7 23  1  0  0  0  0
  7 24  1  0  0  0  0
  7 25  1  0  0  0  0
  8 26  1  0  0  0  0
  8 27  1  0  0  0  0
  9 28  1  0  0  0  0
  9 29  1  0  0  0  0
 10 30  1  0  0  0  0
 11 31  1  0  0  0  0
 12 32  1  0  0  0  0
 12 33  1  0  0  0  0
 13 34  1  0  0  0  0
 13 35  1  0  0  0  0
 14 36  1  0  0  0  0
 14 37  1  0  0  0  0
 15 38  1  0  0  0  0
 16 39  1  0  0  0  0
 17 40  1  0  0  0  0
  4 41  1  0  0  0  0
M  CHG  1   4   1
M  END
$$$$
6SQ1_MPD_A_401
prProtoss 08192303183D 1   1.00000     0.00000     0
Protoss beta proteinsplus
 22 21  0  0  0  0            999 V2000
   14.1560   -9.8270   30.8160 O   0  0  0  0  0  0  0  0  0  0  0  0
   11.7830   -8.9060   31.3380 O   0  0  0  0  0  0  0  0  0  0  0  0
   15.8300   -9.8030   32.5640 C   0  0  0  0  0  0  0  0  0  0  0  0
   11.6000  -10.4340   33.2390 C   0  0  0  0  0  0  0  0  0  0  0  0
   11.3050   -7.9510   33.5130 C   0  0  0  0  0  0  0  0  0  0  0  0
   13.5540   -8.8970   32.9820 C   0  0  0  0  0  0  0  0  0  0  0  0
   14.3510   -9.9490   32.2190 C   0  0  1  0  0  0  0  0  0  0  0  0
   12.0540   -9.0510   32.7640 C   0  0  0  0  0  0  0  0  0  0  0  0
   14.2248  -10.7292   30.3902 H   0  0  0  0  0  0  0  0  0  0  0  0
   12.5747   -9.2210   30.8145 H   0  0  0  0  0  0  0  0  0  0  0  0
   15.9519   -9.8909   33.5526 H   0  0  0  0  0  0  0  0  0  0  0  0
   16.3529  -10.5173   32.0989 H   0  0  0  0  0  0  0  0  0  0  0  0
   16.1546   -8.9051   32.2666 H   0  0  0  0  0  0  0  0  0  0  0  0
   11.7876  -10.5289   34.2166 H   0  0  0  0  0  0  0  0  0  0  0  0
   10.6187  -10.5367   33.0764 H   0  0  0  0  0  0  0  0  0  0  0  0
   12.0972  -11.1396   32.7341 H   0  0  0  0  0  0  0  0  0  0  0  0
   11.4806   -8.0365   34.4937 H   0  0  0  0  0  0  0  0  0  0  0  0
   11.6201   -7.0569   33.1946 H   0  0  0  0  0  0  0  0  0  0  0  0
   10.3238   -8.0393   33.3411 H   0  0  0  0  0  0  0  0  0  0  0  0
   13.8345   -7.9895   32.6694 H   0  0  0  0  0  0  0  0  0  0  0  0
   13.7497   -8.9885   33.9584 H   0  0  0  0  0  0  0  0  0  0  0  0
   14.0429  -10.8556   32.5074 H   0  0  0  0  0  0  0  0  0  0  0  0
  1  7  1  0  0  0  0
  2  8  1  0  0  0  0
  3  7  1  0  0  0  0
  4  8  1  0  0  0  0
  5  8  1  0  0  0  0
  6  7  1  0  0  0  0
  6  8  1  0  0  0  0
  1  9  1  0  0  0  0
  2 10  1  0  0  0  0
  3 11  1  0  0  0  0
  3 12  1  0  0  0  0
  3 13  1  0  0  0  0
  4 14  1  0  0  0  0
  4 15  1  0  0  0  0
  4 16  1  0  0  0  0
  5 17  1  0  0  0  0
  5 18  1  0  0  0  0
  5 19  1  0  0  0  0
  6 20  1  0  0  0  0
  6 21  1  0  0  0  0
  7 22  1  0  0  0  0
M  END
$$$$
6SQ1_MPD_A_402
prProtoss 08192303183D 1   1.00000     0.00000     0
Protoss beta proteinsplus
 22 21  0  0  0  0            999 V2000
   17.1170   19.4320   39.0460 O   0  0  0  0  0  0  0  0  0  0  0  0
   18.9690   18.5060   40.5630 O   0  0  0  0  0  0  0  0  0  0  0  0
   16.5700   18.4130   36.9530 C   0  0  0  0  0  0  0  0  0  0  0  0
   18.7020   16.1700   40.0420 C   0  0  0  0  0  0  0  0  0  0  0  0
   20.7870   17.3640   39.4400 C   0  0  0  0  0  0  0  0  0  0  0  0
   18.6910   17.8780   38.2160 C   0  0  0  0  0  0  0  0  0  0  0  0
   17.2190   18.2340   38.3210 C   0  0  1  0  0  0  0  0  0  0  0  0
   19.2780   17.4960   39.5700 C   0  0  0  0  0  0  0  0  0  0  0  0
   16.2669   19.4316   39.5727 H   0  0  0  0  0  0  0  0  0  0  0  0
   18.0901   18.9302   40.3447 H   0  0  0  0  0  0  0  0  0  0  0  0
   16.6421   17.5602   36.4357 H   0  0  0  0  0  0  0  0  0  0  0  0
   15.6059   18.6514   37.0701 H   0  0  0  0  0  0  0  0  0  0  0  0
   17.0363   19.1448   36.4560 H   0  0  0  0  0  0  0  0  0  0  0  0
   18.9056   15.4595   39.3684 H   0  0  0  0  0  0  0  0  0  0  0  0
   19.1104   15.9231   40.9208 H   0  0  0  0  0  0  0  0  0  0  0  0
   17.7112   16.2555   40.1472 H   0  0  0  0  0  0  0  0  0  0  0  0
   21.0030   16.6677   38.7555 H   0  0  0  0  0  0  0  0  0  0  0  0
   21.1752   18.2411   39.1573 H   0  0  0  0  0  0  0  0  0  0  0  0
   21.1754   17.0963   40.3218 H   0  0  0  0  0  0  0  0  0  0  0  0
   19.1902   18.6669   37.8575 H   0  0  0  0  0  0  0  0  0  0  0  0
   18.7935   17.1057   37.5891 H   0  0  0  0  0  0  0  0  0  0  0  0
   16.7415   17.5092   38.8176 H   0  0  0  0  0  0  0  0  0  0  0  0
  1  7  1  0  0  0  0
  2  8  1  0  0  0  0
  3  7  1  0  0  0  0
  4  8  1  0  0  0  0
  5  8  1  0  0  0  0
  6  7  1  0  0  0  0
  6  8  1  0  0  0  0
  1  9  1  0  0  0  0
  2 10  1  0  0  0  0
  3 11  1  0  0  0  0
  3 12  1  0  0  0  0
  3 13  1  0  0  0  0
  4 14  1  0  0  0  0
  4 15  1  0  0  0  0
  4 16  1  0  0  0  0
  5 17  1  0  0  0  0
  5 18  1  0  0  0  0
  5 19  1  0  0  0  0
  6 20  1  0  0  0  0
  6 21  1  0  0  0  0
  7 22  1  0  0  0  0
M  END
$$$$
6SQ1_LRT_A_403
prProtoss 08192303183D 1   1.00000     0.00000     0
Protoss beta proteinsplus
 40 42  0  0  0  0            999 V2000
   11.1280    1.5200   18.8150 S   0  0  0  0  0  0  0  0  0  0  0  0
   11.0870    1.1510   17.4350 O   0  0  0  0  0  0  0  0  0  0  0  0
   11.4280    0.5370   19.8070 O   0  0  0  0  0  0  0  0  0  0  0  0
   16.5090    4.9110   20.1690 N   0  0  0  0  0  0  0  0  0  0  0  0
    6.8460    2.0130   20.6000 N   0  3  0  0  0  0  0  0  0  0  0  0
   16.2710    2.6070   20.2830 N   0  0  0  0  0  0  0  0  0  0  0  0
    9.6630    2.1260   19.1760 N   0  0  0  0  0  0  0  0  0  0  0  0
    7.9290    3.0120   20.6740 C   0  0  0  0  0  0  0  0  0  0  0  0
    6.4060    1.6440   19.2360 C   0  0  0  0  0  0  0  0  0  0  0  0
   15.5060    1.5120   20.1220 C   0  0  0  0  0  0  0  0  0  0  0  0
    9.2530    2.2750   20.5860 C   0  0  0  0  0  0  0  0  0  0  0  0
    8.6510    1.8870   18.1270 C   0  0  0  0  0  0  0  0  0  0  0  0
    7.5320    0.9480   18.5170 C   0  0  0  0  0  0  0  0  0  0  0  0
   12.4390    5.2860   18.8880 C   0  0  0  0  0  0  0  0  0  0  0  0
   14.2130    1.5340   19.6960 C   0  0  0  0  0  0  0  0  0  0  0  0
   11.6770    4.1380   18.7510 C   0  0  0  0  0  0  0  0  0  0  0  0
   13.7450    5.2170   19.2660 C   0  0  0  0  0  0  0  0  0  0  0  0
   12.2230    2.9050   18.9970 C   0  0  0  0  0  0  0  0  0  0  0  0
   15.7290    3.8320   19.9930 C   0  0  0  0  0  0  0  0  0  0  0  0
   13.5910    2.7770   19.3970 C   0  0  0  0  0  0  0  0  0  0  0  0
   14.3640    3.9690   19.5380 C   0  0  0  0  0  0  0  0  0  0  0  0
   16.1525    5.8237   19.9692 H   0  0  0  0  0  0  0  0  0  0  0  0
   17.4463    4.8018   20.4999 H   0  0  0  0  0  0  0  0  0  0  0  0
    6.0550    2.3804   21.0892 H   0  0  0  0  0  0  0  0  0  0  0  0
    7.8740    3.5088   21.5401 H   0  0  0  0  0  0  0  0  0  0  0  0
    7.8484    3.6570   19.9141 H   0  0  0  0  0  0  0  0  0  0  0  0
    6.1495    2.4697   18.7336 H   0  0  0  0  0  0  0  0  0  0  0  0
    5.6181    1.0309   19.2942 H   0  0  0  0  0  0  0  0  0  0  0  0
   15.9142    0.6229   20.3290 H   0  0  0  0  0  0  0  0  0  0  0  0
    9.9520    2.7921   21.0800 H   0  0  0  0  0  0  0  0  0  0  0  0
    9.1546    1.3694   20.9985 H   0  0  0  0  0  0  0  0  0  0  0  0
    9.1159    1.5008   17.3303 H   0  0  0  0  0  0  0  0  0  0  0  0
    8.2452    2.7674   17.8818 H   0  0  0  0  0  0  0  0  0  0  0  0
    7.1674    0.5244   17.6878 H   0  0  0  0  0  0  0  0  0  0  0  0
    7.9043    0.2399   19.1170 H   0  0  0  0  0  0  0  0  0  0  0  0
   12.0244    6.1778   18.7068 H   0  0  0  0  0  0  0  0  0  0  0  0
   13.7032    0.6798   19.5939 H   0  0  0  0  0  0  0  0  0  0  0  0
   10.7199    4.2091   18.4701 H   0  0  0  0  0  0  0  0  0  0  0  0
   14.2769    6.0593   19.3535 H   0  0  0  0  0  0  0  0  0  0  0  0
    7.1632    1.1815   21.0561 H   0  0  0  0  0  0  0  0  0  0  0  0
  1  2  2  0  0  0  0
  1  3  2  0  0  0  0
  1  7  1  0  0  0  0
  1 18  1  0  0  0  0
  4 19  1  0  0  0  0
  5  8  1  0  0  0  0
  5  9  1  0  0  0  0
  6 10  1  0  0  0  0
  6 19  2  0  0  0  0
  7 11  1  0  0  0  0
  7 12  1  0  0  0  0
  8 11  1  0  0  0  0
  9 13  1  0  0  0  0
 10 15  2  0  0  0  0
 12 13  1  0  0  0  0
 14 16  2  0  0  0  0
 14 17  1  0  0  0  0
 15 20  1  0  0  0  0
 16 18  1  0  0  0  0
 17 21  2  0  0  0  0
 18 20  2  0  0  0  0
 19 21  1  0  0  0  0
 20 21  1  0  0  0  0
  4 22  1  0  0  0  0
  4 23  1  0  0  0  0
  5 24  1  0  0  0  0
  8 25  1  0  0  0  0
  8 26  1  0  0  0  0
  9 27  1  0  0  0  0
  9 28  1  0  0  0  0
 10 29  1  0  0  0  0
 11 30  1  0  0  0  0
 11 31  1  0  0  0  0
 12 32  1  0  0  0  0
 12 33  1  0  0  0  0
 13 34  1  0  0  0  0
 13 35  1  0  0  0  0
 14 36  1  0  0  0  0
 15 37  1  0  0  0  0
 16 38  1  0  0  0  0
 17 39  1  0  0  0  0
  5 40  1  0  0  0  0
M  CHG  1   5   1
M  END
$$$$
6SQ1_DMS_A_404
prProtoss 08192303183D 1   1.00000     0.00000     0
Protoss beta proteinsplus
 10  9  0  0  0  0            999 V2000
   -6.2740   10.6650   20.0440 S   0  0  0  0  0  0  0  0  0  0  0  0
   -5.1110   10.0200   19.3620 O   0  0  0  0  0  0  0  0  0  0  0  0
   -5.7030   12.1200   20.9660 C   0  0  0  0  0  0  0  0  0  0  0  0
   -7.3590   11.4220   18.8010 C   0  0  0  0  0  0  0  0  0  0  0  0
   -6.4810   12.5518   21.4224 H   0  0  0  0  0  0  0  0  0  0  0  0
   -5.0298   11.8383   21.6497 H   0  0  0  0  0  0  0  0  0  0  0  0
   -5.2836   12.7717   20.3340 H   0  0  0  0  0  0  0  0  0  0  0  0
   -8.1374   11.8538   19.2566 H   0  0  0  0  0  0  0  0  0  0  0  0
   -6.8480   12.1121   18.2884 H   0  0  0  0  0  0  0  0  0  0  0  0
   -7.6892   10.7172   18.1732 H   0  0  0  0  0  0  0  0  0  0  0  0
  1  2  2  0  0  0  0
  1  3  1  0  0  0  0
  1  4  1  0  0  0  0
  3  5  1  0  0  0  0
  3  6  1  0  0  0  0
  3  7  1  0  0  0  0
  4  8  1  0  0  0  0
  4  9  1  0  0  0  0
  4 10  1  0  0  0  0
M  END
$$$$
6SQ1_DMS_A_405
prProtoss 08192303183D 1   1.00000     0.00000     0
Protoss beta proteinsplus
 10  9  0  0  0  0            999 V2000
   -1.5030   -8.6600   36.3960 S   0  0  0  0  0  0  0  0  0  0  0  0
   -0.6980   -8.2160   37.5760 O   0  0  0  0  0  0  0  0  0  0  0  0
   -2.7280   -9.9000   36.8970 C   0  0  0  0  0  0  0  0  0  0  0  0
   -2.6000   -7.3250   35.8430 C   0  0  0  0  0  0  0  0  0  0  0  0
   -3.2577  -10.1868   36.0988 H   0  0  0  0  0  0  0  0  0  0  0  0
   -2.2596  -10.6921   37.2884 H   0  0  0  0  0  0  0  0  0  0  0  0
   -3.3421   -9.5048   37.5801 H   0  0  0  0  0  0  0  0  0  0  0  0
   -3.1314   -7.6352   35.0547 H   0  0  0  0  0  0  0  0  0  0  0  0
   -3.2208   -7.0745   36.5858 H   0  0  0  0  0  0  0  0  0  0  0  0
   -2.0524   -6.5295   35.5836 H   0  0  0  0  0  0  0  0  0  0  0  0
  1  2  2  0  0  0  0
  1  3  1  0  0  0  0
  1  4  1  0  0  0  0
  3  5  1  0  0  0  0
  3  6  1  0  0  0  0
  3  7  1  0  0  0  0
  4  8  1  0  0  0  0
  4  9  1  0  0  0  0
  4 10  1  0  0  0  0
M  END
$$$$
6Y2U_LRT_A_401
prProtoss 06142313253D 1   1.00000     0.00000     0
Protoss beta proteinsplus
 40 42  0  0  0  0            999 V2000
   13.6640  -24.2500  -27.7810 S   0  0  0  0  0  0  0  0  0  0  0  0
   13.2460  -25.3950  -27.0350 O   0  0  0  0  0  0  0  0  0  0  0  0
   14.2270  -24.4130  -29.0840 O   0  0  0  0  0  0  0  0  0  0  0  0
   18.0690  -22.8110  -23.2570 N   0  0  0  0  0  0  0  0  0  0  0  0
    9.8880  -21.4720  -26.9930 N   0  3  0  0  0  0  0  0  0  0  0  0
   17.4580  -24.9230  -23.9640 N   0  0  0  0  0  0  0  0  0  0  0  0
   12.3520  -23.2950  -27.9420 N   0  0  0  0  0  0  0  0  0  0  0  0
   10.7490  -22.4300  -26.2470 C   0  0  0  0  0  0  0  0  0  0  0  0
    9.8370  -21.6920  -28.4600 C   0  0  0  0  0  0  0  0  0  0  0  0
   16.7390  -25.7110  -24.7790 C   0  0  0  0  0  0  0  0  0  0  0  0
   11.1800  -23.6150  -27.1020 C   0  0  0  0  0  0  0  0  0  0  0  0
   12.0470  -22.6750  -29.2470 C   0  0  0  0  0  0  0  0  0  0  0  0
   11.1860  -21.4320  -29.1010 C   0  0  0  0  0  0  0  0  0  0  0  0
   15.3850  -21.0660  -26.1180 C   0  0  0  0  0  0  0  0  0  0  0  0
   15.8730  -25.2480  -25.7210 C   0  0  0  0  0  0  0  0  0  0  0  0
   14.6380  -21.9120  -26.9190 C   0  0  0  0  0  0  0  0  0  0  0  0
   16.2580  -21.5660  -25.1950 C   0  0  0  0  0  0  0  0  0  0  0  0
   14.7630  -23.2700  -26.8010 C   0  0  0  0  0  0  0  0  0  0  0  0
   17.3300  -23.5700  -24.0780 C   0  0  0  0  0  0  0  0  0  0  0  0
   15.6830  -23.8480  -25.8730 C   0  0  0  0  0  0  0  0  0  0  0  0
   16.4350  -22.9660  -25.0430 C   0  0  0  0  0  0  0  0  0  0  0  0
   18.0066  -21.8142  -23.3062 H   0  0  0  0  0  0  0  0  0  0  0  0
   18.6828  -23.2415  -22.5953 H   0  0  0  0  0  0  0  0  0  0  0  0
   10.2355  -20.5488  -26.8289 H   0  0  0  0  0  0  0  0  0  0  0  0
   10.2388  -22.7725  -25.4581 H   0  0  0  0  0  0  0  0  0  0  0  0
   11.5664  -21.9480  -25.9316 H   0  0  0  0  0  0  0  0  0  0  0  0
    9.1613  -21.0724  -28.8594 H   0  0  0  0  0  0  0  0  0  0  0  0
    9.5680  -22.6384  -28.6387 H   0  0  0  0  0  0  0  0  0  0  0  0
   16.8466  -26.7010  -24.6881 H   0  0  0  0  0  0  0  0  0  0  0  0
   11.4130  -24.3791  -26.5005 H   0  0  0  0  0  0  0  0  0  0  0  0
   10.4196  -23.8781  -27.6958 H   0  0  0  0  0  0  0  0  0  0  0  0
   11.5605  -23.3396  -29.8140 H   0  0  0  0  0  0  0  0  0  0  0  0
   12.9058  -22.4220  -29.6925 H   0  0  0  0  0  0  0  0  0  0  0  0
   11.6805  -20.7707  -28.5370 H   0  0  0  0  0  0  0  0  0  0  0  0
   11.0333  -21.0459  -30.0107 H   0  0  0  0  0  0  0  0  0  0  0  0
   15.2841  -20.0760  -26.2165 H   0  0  0  0  0  0  0  0  0  0  0  0
   15.3731  -25.8894  -26.3030 H   0  0  0  0  0  0  0  0  0  0  0  0
   14.0023  -21.5284  -27.5889 H   0  0  0  0  0  0  0  0  0  0  0  0
   16.7797  -20.9374  -24.6183 H   0  0  0  0  0  0  0  0  0  0  0  0
    8.9573  -21.5464  -26.6349 H   0  0  0  0  0  0  0  0  0  0  0  0
  1  2  2  0  0  0  0
  1  3  2  0  0  0  0
  1  7  1  0  0  0  0
  1 18  1  0  0  0  0
  4 19  1  0  0  0  0
  5  8  1  0  0  0  0
  5  9  1  0  0  0  0
  6 10  1  0  0  0  0
  6 19  2  0  0  0  0
  7 11  1  0  0  0  0
  7 12  1  0  0  0  0
  8 11  1  0  0  0  0
  9 13  1  0  0  0  0
 10 15  2  0  0  0  0
 12 13  1  0  0  0  0
 14 16  2  0  0  0  0
 14 17  1  0  0  0  0
 15 20  1  0  0  0  0
 16 18  1  0  0  0  0
 17 21  2  0  0  0  0
 18 20  2  0  0  0  0
 19 21  1  0  0  0  0
 20 21  1  0  0  0  0
  4 22  1  0  0  0  0
  4 23  1  0  0  0  0
  5 24  1  0  0  0  0
  8 25  1  0  0  0  0
  8 26  1  0  0  0  0
  9 27  1  0  0  0  0
  9 28  1  0  0  0  0
 10 29  1  0  0  0  0
 11 30  1  0  0  0  0
 11 31  1  0  0  0  0
 12 32  1  0  0  0  0
 12 33  1  0  0  0  0
 13 34  1  0  0  0  0
 13 35  1  0  0  0  0
 14 36  1  0  0  0  0
 15 37  1  0  0  0  0
 16 38  1  0  0  0  0
 17 39  1  0  0  0  0
  5 40  1  0  0  0  0
M  CHG  1   5   1
M  END
$$$$
6YNT_MPD_A_401
prProtoss 08182323023D 1   1.00000     0.00000     0
Protoss beta proteinsplus
 22 21  0  0  0  0            999 V2000
  -38.4830    9.5640    9.6760 O   0  0  0  0  0  0  0  0  0  0  0  0
  -40.6820   10.1290    8.9600 O   0  0  0  0  0  0  0  0  0  0  0  0
  -37.4790    7.4340    9.3780 C   0  0  0  0  0  0  0  0  0  0  0  0
  -40.9010    9.0570    6.8340 C   0  0  0  0  0  0  0  0  0  0  0  0
  -42.3720    8.4270    8.7300 C   0  0  0  0  0  0  0  0  0  0  0  0
  -39.9350    7.8360    8.8080 C   0  0  0  0  0  0  0  0  0  0  0  0
  -38.5200    8.4200    8.8560 C   0  0  1  0  0  0  0  0  0  0  0  0
  -40.9670    8.8560    8.3390 C   0  0  0  0  0  0  0  0  0  0  0  0
  -37.5707    9.9719    9.6382 H   0  0  0  0  0  0  0  0  0  0  0  0
  -39.8714   10.0432    9.5393 H   0  0  0  0  0  0  0  0  0  0  0  0
  -37.4858    6.6106    8.8106 H   0  0  0  0  0  0  0  0  0  0  0  0
  -36.5730    7.8559    9.3425 H   0  0  0  0  0  0  0  0  0  0  0  0
  -37.6960    7.1894   10.3230 H   0  0  0  0  0  0  0  0  0  0  0  0
  -41.0944    8.1908    6.3732 H   0  0  0  0  0  0  0  0  0  0  0  0
  -41.5782    9.7394    6.5588 H   0  0  0  0  0  0  0  0  0  0  0  0
  -39.9870    9.3730    6.5797 H   0  0  0  0  0  0  0  0  0  0  0  0
  -42.5817    7.5460    8.3059 H   0  0  0  0  0  0  0  0  0  0  0  0
  -42.4294    8.3403    9.7246 H   0  0  0  0  0  0  0  0  0  0  0  0
  -43.0292    9.1126    8.4167 H   0  0  0  0  0  0  0  0  0  0  0  0
  -40.1851    7.5237    9.7244 H   0  0  0  0  0  0  0  0  0  0  0  0
  -39.9411    7.0595    8.1779 H   0  0  0  0  0  0  0  0  0  0  0  0
  -38.2600    8.6897    7.9288 H   0  0  0  0  0  0  0  0  0  0  0  0
  1  7  1  0  0  0  0
  2  8  1  0  0  0  0
  3  7  1  0  0  0  0
  4  8  1  0  0  0  0
  5  8  1  0  0  0  0
  6  7  1  0  0  0  0
  6  8  1  0  0  0  0
  1  9  1  0  0  0  0
  2 10  1  0  0  0  0
  3 11  1  0  0  0  0
  3 12  1  0  0  0  0
  3 13  1  0  0  0  0
  4 14  1  0  0  0  0
  4 15  1  0  0  0  0
  4 16  1  0  0  0  0
  5 17  1  0  0  0  0
  5 18  1  0  0  0  0
  5 19  1  0  0  0  0
  6 20  1  0  0  0  0
  6 21  1  0  0  0  0
  7 22  1  0  0  0  0
M  END
$$$$
6YNT_MPD_A_402
prProtoss 08182323023D 1   1.00000     0.00000     0
Protoss beta proteinsplus
 22 21  0  0  0  0            999 V2000
  -20.3460   12.6960  -19.8760 O   0  0  0  0  0  0  0  0  0  0  0  0
  -20.6830   12.1660  -17.2270 O   0  0  0  0  0  0  0  0  0  0  0  0
  -19.3100   10.9790  -21.1950 C   0  0  0  0  0  0  0  0  0  0  0  0
  -22.4220   10.7940  -18.2250 C   0  0  0  0  0  0  0  0  0  0  0  0
  -20.7980    9.8330  -16.6000 C   0  0  0  0  0  0  0  0  0  0  0  0
  -20.0410   10.5090  -18.8750 C   0  0  0  0  0  0  0  0  0  0  0  0
  -20.3500   11.3050  -20.1350 C   0  0  1  0  0  0  0  0  0  0  0  0
  -20.9830   10.8400  -17.7320 C   0  0  0  0  0  0  0  0  0  0  0  0
  -21.2482   13.0757  -20.0804 H   0  0  0  0  0  0  0  0  0  0  0  0
  -20.3281   12.7333  -17.9701 H   0  0  0  0  0  0  0  0  0  0  0  0
  -19.3153    9.9955  -21.3758 H   0  0  0  0  0  0  0  0  0  0  0  0
  -19.5256   11.4738  -22.0368 H   0  0  0  0  0  0  0  0  0  0  0  0
  -18.4051   11.2533  -20.8696 H   0  0  0  0  0  0  0  0  0  0  0  0
  -22.6262    9.8788  -18.5726 H   0  0  0  0  0  0  0  0  0  0  0  0
  -23.0404   11.0091  -17.4691 H   0  0  0  0  0  0  0  0  0  0  0  0
  -22.5451   11.4638  -18.9573 H   0  0  0  0  0  0  0  0  0  0  0  0
  -21.0020    8.9133  -16.9354 H   0  0  0  0  0  0  0  0  0  0  0  0
  -19.8530    9.8672  -16.2746 H   0  0  0  0  0  0  0  0  0  0  0  0
  -21.4177   10.0588  -15.8484 H   0  0  0  0  0  0  0  0  0  0  0  0
  -19.1050   10.7131  -18.5883 H   0  0  0  0  0  0  0  0  0  0  0  0
  -20.1206    9.5343  -19.0840 H   0  0  0  0  0  0  0  0  0  0  0  0
  -21.2529   11.0401  -20.4734 H   0  0  0  0  0  0  0  0  0  0  0  0
  1  7  1  0  0  0  0
  2  8  1  0  0  0  0
  3  7  1  0  0  0  0
  4  8  1  0  0  0  0
  5  8  1  0  0  0  0
  6  7  1  0  0  0  0
  6  8  1  0  0  0  0
  1  9  1  0  0  0  0
  2 10  1  0  0  0  0
  3 11  1  0  0  0  0
  3 12  1  0  0  0  0
  3 13  1  0  0  0  0
  4 14  1  0  0  0  0
  4 15  1  0  0  0  0
  4 16  1  0  0  0  0
  5 17  1  0  0  0  0
  5 18  1  0  0  0  0
  5 19  1  0  0  0  0
  6 20  1  0  0  0  0
  6 21  1  0  0  0  0
  7 22  1  0  0  0  0
M  END
$$$$
6YNT_DMS_A_403
prProtoss 08182323023D 1   1.00000     0.00000     0
Protoss beta proteinsplus
 10  9  0  0  0  0            999 V2000
  -34.8510  -30.7390    4.5260 S   0  0  0  0  0  0  0  0  0  0  0  0
  -34.4130  -30.0420    3.2800 O   0  0  0  0  0  0  0  0  0  0  0  0
  -35.3180  -32.4560    4.1570 C   0  0  0  0  0  0  0  0  0  0  0  0
  -33.4200  -31.0350    5.6090 C   0  0  0  0  0  0  0  0  0  0  0  0
  -35.6089  -32.9106    4.9989 H   0  0  0  0  0  0  0  0  0  0  0  0
  -36.0699  -32.4626    3.4977 H   0  0  0  0  0  0  0  0  0  0  0  0
  -34.5323  -32.9396    3.7714 H   0  0  0  0  0  0  0  0  0  0  0  0
  -33.7220  -31.5017    6.4403 H   0  0  0  0  0  0  0  0  0  0  0  0
  -32.7521  -31.6051    5.1305 H   0  0  0  0  0  0  0  0  0  0  0  0
  -32.9991  -30.1609    5.8516 H   0  0  0  0  0  0  0  0  0  0  0  0
  1  2  2  0  0  0  0
  1  3  1  0  0  0  0
  1  4  1  0  0  0  0
  3  5  1  0  0  0  0
  3  6  1  0  0  0  0
  3  7  1  0  0  0  0
  4  8  1  0  0  0  0
  4  9  1  0  0  0  0
  4 10  1  0  0  0  0
M  END
$$$$
6YNT_DMS_A_404
prProtoss 08182323023D 1   1.00000     0.00000     0
Protoss beta proteinsplus
 10  9  0  0  0  0            999 V2000
  -39.9280  -25.7200   10.1310 S   0  0  0  0  0  0  0  0  0  0  0  0
  -40.0380  -24.2520   10.3860 O   0  0  0  0  0  0  0  0  0  0  0  0
  -40.5980  -26.0870    8.4960 C   0  0  0  0  0  0  0  0  0  0  0  0
  -38.2010  -26.2030    9.8690 C   0  0  0  0  0  0  0  0  0  0  0  0
  -40.5271  -27.0687    8.3194 H   0  0  0  0  0  0  0  0  0  0  0  0
  -41.5582  -25.8102    8.4594 H   0  0  0  0  0  0  0  0  0  0  0  0
  -40.0799  -25.5854    7.8032 H   0  0  0  0  0  0  0  0  0  0  0  0
  -38.1521  -27.1875    9.7006 H   0  0  0  0  0  0  0  0  0  0  0  0
  -37.8334  -25.7112    9.0797 H   0  0  0  0  0  0  0  0  0  0  0  0
  -37.6646  -25.9768   10.6821 H   0  0  0  0  0  0  0  0  0  0  0  0
  1  2  2  0  0  0  0
  1  3  1  0  0  0  0
  1  4  1  0  0  0  0
  3  5  1  0  0  0  0
  3  6  1  0  0  0  0
  3  7  1  0  0  0  0
  4  8  1  0  0  0  0
  4  9  1  0  0  0  0
  4 10  1  0  0  0  0
M  END
$$$$
6YNT_LRT_A_405
prProtoss 08182323023D 1   1.00000     0.00000     0
Protoss beta proteinsplus
 40 42  0  0  0  0            999 V2000
  -27.8880   -9.9290   -4.8950 S   0  0  0  0  0  0  0  0  0  0  0  0
  -27.5930  -11.2610   -5.3180 O   0  0  0  0  0  0  0  0  0  0  0  0
  -28.2160   -8.9260   -5.8600 O   0  0  0  0  0  0  0  0  0  0  0  0
  -33.6310   -9.7550   -1.9350 N   0  0  0  0  0  0  0  0  0  0  0  0
  -24.1870   -7.5220   -3.0110 N   0  3  0  0  0  0  0  0  0  0  0  0
  -33.3150   -9.9180   -4.2710 N   0  0  0  0  0  0  0  0  0  0  0  0
  -26.5790   -9.3890   -4.0860 N   0  0  0  0  0  0  0  0  0  0  0  0
  -25.6400   -7.4550   -2.7920 C   0  0  0  0  0  0  0  0  0  0  0  0
  -23.6420   -8.8920   -2.9410 C   0  0  0  0  0  0  0  0  0  0  0  0
  -32.4500   -9.9500   -5.2920 C   0  0  0  0  0  0  0  0  0  0  0  0
  -26.3620   -7.9270   -4.0730 C   0  0  0  0  0  0  0  0  0  0  0  0
  -25.4350  -10.3240   -4.0240 C   0  0  0  0  0  0  0  0  0  0  0  0
  -24.0580   -9.7020   -4.1500 C   0  0  0  0  0  0  0  0  0  0  0  0
  -29.4590  -10.0950   -1.2480 C   0  0  0  0  0  0  0  0  0  0  0  0
  -31.0930   -9.9860   -5.1510 C   0  0  0  0  0  0  0  0  0  0  0  0
  -28.6030  -10.0470   -2.3340 C   0  0  0  0  0  0  0  0  0  0  0  0
  -30.8100  -10.0800   -1.4220 C   0  0  0  0  0  0  0  0  0  0  0  0
  -29.0980  -10.0100   -3.6080 C   0  0  0  0  0  0  0  0  0  0  0  0
  -32.7980   -9.9280   -2.9650 C   0  0  0  0  0  0  0  0  0  0  0  0
  -30.5110  -10.0160   -3.8510 C   0  0  0  0  0  0  0  0  0  0  0  0
  -31.3760  -10.0200   -2.7200 C   0  0  0  0  0  0  0  0  0  0  0  0
  -33.2773   -9.7597   -0.9996 H   0  0  0  0  0  0  0  0  0  0  0  0
  -34.6082   -9.6208   -2.0994 H   0  0  0  0  0  0  0  0  0  0  0  0
  -23.7360   -6.9662   -2.3127 H   0  0  0  0  0  0  0  0  0  0  0  0
  -25.9051   -6.5132   -2.5850 H   0  0  0  0  0  0  0  0  0  0  0  0
  -25.8918   -8.0479   -2.0271 H   0  0  0  0  0  0  0  0  0  0  0  0
  -23.9843   -9.3386   -2.1143 H   0  0  0  0  0  0  0  0  0  0  0  0
  -22.6437   -8.8457   -2.9058 H   0  0  0  0  0  0  0  0  0  0  0  0
  -32.8229   -9.9474   -6.2199 H   0  0  0  0  0  0  0  0  0  0  0  0
  -27.2493   -7.4693   -4.1296 H   0  0  0  0  0  0  0  0  0  0  0  0
  -25.8068   -7.6769   -4.8662 H   0  0  0  0  0  0  0  0  0  0  0  0
  -25.5405  -10.9857   -4.7663 H   0  0  0  0  0  0  0  0  0  0  0  0
  -25.4763  -10.7995   -3.1453 H   0  0  0  0  0  0  0  0  0  0  0  0
  -23.3914  -10.4355   -4.2829 H   0  0  0  0  0  0  0  0  0  0  0  0
  -24.0554   -9.1005   -4.9489 H   0  0  0  0  0  0  0  0  0  0  0  0
  -29.0810  -10.1413   -0.3234 H   0  0  0  0  0  0  0  0  0  0  0  0
  -30.5066   -9.9913   -5.9610 H   0  0  0  0  0  0  0  0  0  0  0  0
  -27.6141  -10.0393   -2.1859 H   0  0  0  0  0  0  0  0  0  0  0  0
  -31.4106  -10.1118   -0.6231 H   0  0  0  0  0  0  0  0  0  0  0  0
  -23.9860   -7.1476   -3.9162 H   0  0  0  0  0  0  0  0  0  0  0  0
  1  2  2  0  0  0  0
  1  3  2  0  0  0  0
  1  7  1  0  0  0  0
  1 18  1  0  0  0  0
  4 19  1  0  0  0  0
  5  8  1  0  0  0  0
  5  9  1  0  0  0  0
  6 10  1  0  0  0  0
  6 19  2  0  0  0  0
  7 11  1  0  0  0  0
  7 12  1  0  0  0  0
  8 11  1  0  0  0  0
  9 13  1  0  0  0  0
 10 15  2  0  0  0  0
 12 13  1  0  0  0  0
 14 16  2  0  0  0  0
 14 17  1  0  0  0  0
 15 20  1  0  0  0  0
 16 18  1  0  0  0  0
 17 21  2  0  0  0  0
 18 20  2  0  0  0  0
 19 21  1  0  0  0  0
 20 21  1  0  0  0  0
  4 22  1  0  0  0  0
  4 23  1  0  0  0  0
  5 24  1  0  0  0  0
  8 25  1  0  0  0  0
  8 26  1  0  0  0  0
  9 27  1  0  0  0  0
  9 28  1  0  0  0  0
 10 29  1  0  0  0  0
 11 30  1  0  0  0  0
 11 31  1  0  0  0  0
 12 32  1  0  0  0  0
 12 33  1  0  0  0  0
 13 34  1  0  0  0  0
 13 35  1  0  0  0  0
 14 36  1  0  0  0  0
 15 37  1  0  0  0  0
 16 38  1  0  0  0  0
 17 39  1  0  0  0  0
  5 40  1  0  0  0  0
M  CHG  1   5   1
M  END
$$$$
6YNT_MRD_A_406
prProtoss 08182323023D 1   1.00000     0.00000     0
Protoss beta proteinsplus
 22 21  0  0  0  0            999 V2000
  -26.4000   -5.5610  -17.2350 O   0  0  0  0  0  0  0  0  0  0  0  0
  -28.3570   -2.8000  -16.1890 O   0  0  0  0  0  0  0  0  0  0  0  0
  -26.9840   -7.0310  -15.4410 C   0  0  0  0  0  0  0  0  0  0  0  0
  -28.3320   -3.9400  -18.2590 C   0  0  0  0  0  0  0  0  0  0  0  0
  -30.4380   -3.7700  -16.9250 C   0  0  0  0  0  0  0  0  0  0  0  0
  -28.5890   -5.2840  -16.1570 C   0  0  0  0  0  0  0  0  0  0  0  0
  -27.1010   -5.6300  -15.9910 C   0  0  2  0  0  0  0  0  0  0  0  0
  -28.9240   -3.9390  -16.8650 C   0  0  0  0  0  0  0  0  0  0  0  0
  -26.8006   -6.2119  -17.8799 H   0  0  0  0  0  0  0  0  0  0  0  0
  -27.4433   -2.6176  -16.5522 H   0  0  0  0  0  0  0  0  0  0  0  0
  -27.4718   -7.0890  -14.5700 H   0  0  0  0  0  0  0  0  0  0  0  0
  -27.3831   -7.6784  -16.0903 H   0  0  0  0  0  0  0  0  0  0  0  0
  -26.0196   -7.2537  -15.2984 H   0  0  0  0  0  0  0  0  0  0  0  0
  -28.6949   -4.7161  -18.7747 H   0  0  0  0  0  0  0  0  0  0  0  0
  -28.5734   -3.0884  -18.7243 H   0  0  0  0  0  0  0  0  0  0  0  0
  -27.3367   -4.0162  -18.1984 H   0  0  0  0  0  0  0  0  0  0  0  0
  -30.8428   -4.5557  -17.3927 H   0  0  0  0  0  0  0  0  0  0  0  0
  -30.8038   -3.7101  -15.9962 H   0  0  0  0  0  0  0  0  0  0  0  0
  -30.6604   -2.9333  -17.4254 H   0  0  0  0  0  0  0  0  0  0  0  0
  -28.9961   -5.2545  -15.2441 H   0  0  0  0  0  0  0  0  0  0  0  0
  -29.0127   -6.0184  -16.6873 H   0  0  0  0  0  0  0  0  0  0  0  0
  -26.6859   -4.9891  -15.3453 H   0  0  0  0  0  0  0  0  0  0  0  0
  1  7  1  0  0  0  0
  2  8  1  0  0  0  0
  3  7  1  0  0  0  0
  4  8  1  0  0  0  0
  5  8  1  0  0  0  0
  6  7  1  0  0  0  0
  6  8  1  0  0  0  0
  1  9  1  0  0  0  0
  2 10  1  0  0  0  0
  3 11  1  0  0  0  0
  3 12  1  0  0  0  0
  3 13  1  0  0  0  0
  4 14  1  0  0  0  0
  4 15  1  0  0  0  0
  4 16  1  0  0  0  0
  5 17  1  0  0  0  0
  5 18  1  0  0  0  0
  5 19  1  0  0  0  0
  6 20  1  0  0  0  0
  6 21  1  0  0  0  0
  7 22  1  0  0  0  0
M  END
$$$$
5M71_7K7_A_401
prProtoss 06132322593D 1   1.00000     0.00000     0
Protoss beta proteinsplus
 41 43  0  0  0  0            999 V2000
  -13.7900   24.9810  -27.4940 S   0  0  0  0  0  0  0  0  0  0  0  0
  -13.1450   26.0150  -26.7460 O   0  0  0  0  0  0  0  0  0  0  0  0
  -14.4310   25.2910  -28.7290 O   0  0  0  0  0  0  0  0  0  0  0  0
   -9.9800   23.7300  -29.0530 N   0  3  0  0  0  0  0  0  0  0  0  0
  -17.4240   26.3930  -23.7390 N   0  0  0  0  0  0  0  0  0  0  0  0
  -12.6460   23.8400  -27.7990 N   0  0  0  0  0  0  0  0  0  0  0  0
  -13.2470   21.8080  -29.1030 C   0  0  0  0  0  0  0  0  0  0  0  0
   -9.4660   23.6790  -27.6510 C   0  0  0  0  0  0  0  0  0  0  0  0
  -16.6660   27.0390  -24.6410 C   0  0  0  0  0  0  0  0  0  0  0  0
  -11.0130   22.7190  -29.4150 C   0  0  0  0  0  0  0  0  0  0  0  0
  -17.4150   25.0680  -23.7690 C   0  0  0  0  0  0  0  0  0  0  0  0
  -11.7700   23.4200  -26.6880 C   0  0  0  0  0  0  0  0  0  0  0  0
  -10.4720   24.1960  -26.6440 C   0  0  0  0  0  0  0  0  0  0  0  0
  -15.8570   22.1910  -25.5600 C   0  0  0  0  0  0  0  0  0  0  0  0
  -15.8750   26.4190  -25.5590 C   0  0  0  0  0  0  0  0  0  0  0  0
  -15.0100   22.8620  -26.4270 C   0  0  0  0  0  0  0  0  0  0  0  0
  -16.6540   22.8810  -24.6940 C   0  0  0  0  0  0  0  0  0  0  0  0
  -14.9790   24.2290  -26.4420 C   0  0  0  0  0  0  0  0  0  0  0  0
  -12.4910   23.1250  -29.0910 C   0  0  2  0  0  0  0  0  0  0  0  0
  -16.6480   24.2980  -24.6720 C   0  0  0  0  0  0  0  0  0  0  0  0
  -15.8220   25.0050  -25.5880 C   0  0  0  0  0  0  0  0  0  0  0  0
   -9.2014   23.6035  -29.6677 H   0  0  0  0  0  0  0  0  0  0  0  0
  -13.1185   21.3579  -29.9867 H   0  0  0  0  0  0  0  0  0  0  0  0
  -12.8996   21.2176  -28.3745 H   0  0  0  0  0  0  0  0  0  0  0  0
  -14.2208   21.9813  -28.9557 H   0  0  0  0  0  0  0  0  0  0  0  0
   -8.6383   24.2371  -27.5926 H   0  0  0  0  0  0  0  0  0  0  0  0
   -9.2449   22.7303  -27.4250 H   0  0  0  0  0  0  0  0  0  0  0  0
  -16.6841   28.0388  -24.6377 H   0  0  0  0  0  0  0  0  0  0  0  0
  -10.8081   21.8763  -28.9172 H   0  0  0  0  0  0  0  0  0  0  0  0
  -10.9479   22.5495  -30.3984 H   0  0  0  0  0  0  0  0  0  0  0  0
  -17.9883   24.5816  -23.1097 H   0  0  0  0  0  0  0  0  0  0  0  0
  -11.5587   22.4486  -26.7966 H   0  0  0  0  0  0  0  0  0  0  0  0
  -12.2566   23.5609  -25.8258 H   0  0  0  0  0  0  0  0  0  0  0  0
  -10.6637   25.1569  -26.8437 H   0  0  0  0  0  0  0  0  0  0  0  0
  -10.0802   24.1177  -25.7273 H   0  0  0  0  0  0  0  0  0  0  0  0
  -15.8844   21.1914  -25.5690 H   0  0  0  0  0  0  0  0  0  0  0  0
  -15.3363   26.9576  -26.2069 H   0  0  0  0  0  0  0  0  0  0  0  0
  -14.4184   22.3441  -27.0449 H   0  0  0  0  0  0  0  0  0  0  0  0
  -17.2503   22.3803  -24.0665 H   0  0  0  0  0  0  0  0  0  0  0  0
  -12.8377   23.7057  -29.8276 H   0  0  0  0  0  0  0  0  0  0  0  0
  -10.3764   24.6363  -29.1993 H   0  0  0  0  0  0  0  0  0  0  0  0
  1  2  2  0  0  0  0
  1  3  2  0  0  0  0
  1  6  1  0  0  0  0
  1 18  1  0  0  0  0
  4  8  1  0  0  0  0
  4 10  1  0  0  0  0
  5  9  2  0  0  0  0
  5 11  1  0  0  0  0
  6 12  1  0  0  0  0
  6 19  1  0  0  0  0
  7 19  1  0  0  0  0
  8 13  1  0  0  0  0
  9 15  1  0  0  0  0
 10 19  1  0  0  0  0
 11 20  2  0  0  0  0
 12 13  1  0  0  0  0
 14 16  1  0  0  0  0
 14 17  2  0  0  0  0
 15 21  2  0  0  0  0
 16 18  2  0  0  0  0
 17 20  1  0  0  0  0
 18 21  1  0  0  0  0
 20 21  1  0  0  0  0
  4 22  1  0  0  0  0
  7 23  1  0  0  0  0
  7 24  1  0  0  0  0
  7 25  1  0  0  0  0
  8 26  1  0  0  0  0
  8 27  1  0  0  0  0
  9 28  1  0  0  0  0
 10 29  1  0  0  0  0
 10 30  1  0  0  0  0
 11 31  1  0  0  0  0
 12 32  1  0  0  0  0
 12 33  1  0  0  0  0
 13 34  1  0  0  0  0
 13 35  1  0  0  0  0
 14 36  1  0  0  0  0
 15 37  1  0  0  0  0
 16 38  1  0  0  0  0
 17 39  1  0  0  0  0
 19 40  1  0  0  0  0
  4 41  1  0  0  0  0
M  CHG  1   4   1
M  END
$$$$
5M71_MOH_A_402
prProtoss 06132322593D 1   1.00000     0.00000     0
Protoss beta proteinsplus
  6  5  0  0  0  0            999 V2000
    2.1000   -5.3960  -21.8330 O   0  0  0  0  0  0  0  0  0  0  0  0
    3.2920   -5.6420  -22.5940 C   0  0  0  0  0  0  0  0  0  0  0  0
    1.3040   -5.7131  -22.3486 H   0  0  0  0  0  0  0  0  0  0  0  0
    3.0793   -5.5981  -23.5701 H   0  0  0  0  0  0  0  0  0  0  0  0
    3.9786   -4.9500  -22.3710 H   0  0  0  0  0  0  0  0  0  0  0  0
    3.6485   -6.5493  -22.3710 H   0  0  0  0  0  0  0  0  0  0  0  0
  1  2  1  0  0  0  0
  1  3  1  0  0  0  0
  2  4  1  0  0  0  0
  2  5  1  0  0  0  0
  2  6  1  0  0  0  0
M  END
$$$$
7PIF_7QL_A_401
prProtoss 08172315453D 1   1.00000     0.00000     0
Protoss beta proteinsplus
 45 47  0  0  0  0            999 V2000
  -12.2780   21.1540  -31.5870 O   0  0  0  0  0  0  0  0  0  0  0  0
  -17.5040   26.5270  -23.5880 N   0  0  0  0  0  0  0  0  0  0  0  0
   -9.4960   22.5080  -27.5050 N   0  3  0  0  0  0  0  0  0  0  0  0
  -17.6420   22.9360  -23.7060 N   0  0  0  0  0  0  0  0  0  0  0  0
  -11.9130   22.5170  -31.8500 C   0  0  0  0  0  0  0  0  0  0  0  0
  -12.5400   20.9480  -30.1970 C   0  0  0  0  0  0  0  0  0  0  0  0
  -17.0110   25.6750  -24.1620 C   0  0  0  0  0  0  0  0  0  0  0  0
  -12.3510   26.0440  -28.6760 C   0  0  0  0  0  0  0  0  0  0  0  0
   -9.4420   22.8650  -28.9180 C   0  0  0  0  0  0  0  0  0  0  0  0
  -13.3530   25.6880  -27.7920 C   0  0  0  0  0  0  0  0  0  0  0  0
  -11.5740   25.0700  -29.2760 C   0  0  0  0  0  0  0  0  0  0  0  0
  -15.9940   22.3070  -25.3800 C   0  0  0  0  0  0  0  0  0  0  0  0
  -14.9950   22.6440  -26.2810 C   0  0  0  0  0  0  0  0  0  0  0  0
  -15.3690   24.9690  -25.8400 C   0  0  0  0  0  0  0  0  0  0  0  0
  -12.7930   23.3720  -28.1000 C   0  0  0  0  0  0  0  0  0  0  0  0
  -10.6570   22.9180  -31.1000 C   0  0  0  0  0  0  0  0  0  0  0  0
  -11.3240   21.2440  -29.3410 C   0  0  0  0  0  0  0  0  0  0  0  0
  -16.6890   23.2860  -24.6580 C   0  0  0  0  0  0  0  0  0  0  0  0
  -16.3540   24.6340  -24.9070 C   0  0  0  0  0  0  0  0  0  0  0  0
  -13.5980   24.3480  -27.4930 C   0  0  0  0  0  0  0  0  0  0  0  0
  -14.6670   23.9780  -26.5320 C   0  0  0  0  0  0  0  0  0  0  0  0
  -11.7720   23.7270  -28.9840 C   0  0  0  0  0  0  0  0  0  0  0  0
  -10.8190   22.6790  -29.5850 C   0  0  0  0  0  0  0  0  0  0  0  0
   -8.5934   22.6363  -27.0940 H   0  0  0  0  0  0  0  0  0  0  0  0
  -10.1606   23.0920  -27.0388 H   0  0  0  0  0  0  0  0  0  0  0  0
  -18.1284   23.6483  -23.2001 H   0  0  0  0  0  0  0  0  0  0  0  0
  -17.8403   21.9722  -23.5279 H   0  0  0  0  0  0  0  0  0  0  0  0
  -12.6638   23.1137  -31.5666 H   0  0  0  0  0  0  0  0  0  0  0  0
  -11.7529   22.6258  -32.8311 H   0  0  0  0  0  0  0  0  0  0  0  0
  -12.8096   19.9953  -30.0568 H   0  0  0  0  0  0  0  0  0  0  0  0
  -13.2871   21.5506  -29.9163 H   0  0  0  0  0  0  0  0  0  0  0  0
  -12.1877   27.0088  -28.8821 H   0  0  0  0  0  0  0  0  0  0  0  0
   -8.7737   22.2805  -29.3781 H   0  0  0  0  0  0  0  0  0  0  0  0
   -9.1632   23.8215  -29.0036 H   0  0  0  0  0  0  0  0  0  0  0  0
  -13.9085   26.3998  -27.3621 H   0  0  0  0  0  0  0  0  0  0  0  0
  -10.8625   25.3355  -29.9266 H   0  0  0  0  0  0  0  0  0  0  0  0
  -16.2234   21.3434  -25.2426 H   0  0  0  0  0  0  0  0  0  0  0  0
  -14.5005   21.9185  -26.7597 H   0  0  0  0  0  0  0  0  0  0  0  0
  -15.1634   25.9318  -26.0151 H   0  0  0  0  0  0  0  0  0  0  0  0
  -12.9532   22.4062  -27.8961 H   0  0  0  0  0  0  0  0  0  0  0  0
  -10.4757   23.8882  -31.2606 H   0  0  0  0  0  0  0  0  0  0  0  0
   -9.8876   22.3750  -31.4364 H   0  0  0  0  0  0  0  0  0  0  0  0
  -10.5966   20.5971  -29.5700 H   0  0  0  0  0  0  0  0  0  0  0  0
  -11.5692   21.1423  -28.3769 H   0  0  0  0  0  0  0  0  0  0  0  0
   -9.7710   21.5510  -27.4133 H   0  0  0  0  0  0  0  0  0  0  0  0
  1  5  1  0  0  0  0
  1  6  1  0  0  0  0
  2  7  3  0  0  0  0
  3  9  1  0  0  0  0
  4 18  1  0  0  0  0
  5 16  1  0  0  0  0
  6 17  1  0  0  0  0
  7 19  1  0  0  0  0
  8 10  1  0  0  0  0
  8 11  2  0  0  0  0
  9 23  1  0  0  0  0
 10 20  2  0  0  0  0
 11 22  1  0  0  0  0
 12 13  1  0  0  0  0
 12 18  2  0  0  0  0
 13 21  2  0  0  0  0
 14 19  2  0  0  0  0
 14 21  1  0  0  0  0
 15 20  1  0  0  0  0
 15 22  2  0  0  0  0
 16 23  1  0  0  0  0
 17 23  1  0  0  0  0
 18 19  1  0  0  0  0
 20 21  1  0  0  0  0
 22 23  1  0  0  0  0
  3 24  1  0  0  0  0
  3 25  1  0  0  0  0
  4 26  1  0  0  0  0
  4 27  1  0  0  0  0
  5 28  1  0  0  0  0
  5 29  1  0  0  0  0
  6 30  1  0  0  0  0
  6 31  1  0  0  0  0
  8 32  1  0  0  0  0
  9 33  1  0  0  0  0
  9 34  1  0  0  0  0
 10 35  1  0  0  0  0
 11 36  1  0  0  0  0
 12 37  1  0  0  0  0
 13 38  1  0  0  0  0
 14 39  1  0  0  0  0
 15 40  1  0  0  0  0
 16 41  1  0  0  0  0
 16 42  1  0  0  0  0
 17 43  1  0  0  0  0
 17 44  1  0  0  0  0
  3 45  1  0  0  0  0
M  CHG  1   3   1
M  END
$$$$
7PIF_MPD_A_402
prProtoss 08172315453D 1   1.00000     0.00000     0
Protoss beta proteinsplus
 22 21  0  0  0  0            999 V2000
   -8.6940   13.3600   -4.6540 O   0  0  0  0  0  0  0  0  0  0  0  0
   -9.9800   14.1840   -2.5550 O   0  0  0  0  0  0  0  0  0  0  0  0
   -9.6900   13.1120   -6.7510 C   0  0  0  0  0  0  0  0  0  0  0  0
  -10.5540   16.2400   -3.5380 C   0  0  0  0  0  0  0  0  0  0  0  0
  -12.3500   14.6870   -2.6910 C   0  0  0  0  0  0  0  0  0  0  0  0
  -11.0290   13.9840   -4.7020 C   0  0  0  0  0  0  0  0  0  0  0  0
   -9.6940   13.9220   -5.4630 C   0  0  1  0  0  0  0  0  0  0  0  0
  -10.9930   14.7850   -3.3880 C   0  0  0  0  0  0  0  0  0  0  0  0
   -8.9402   13.4748   -3.6916 H   0  0  0  0  0  0  0  0  0  0  0  0
  -10.4017   13.8304   -1.7201 H   0  0  0  0  0  0  0  0  0  0  0  0
  -10.3880   13.4693   -7.3716 H   0  0  0  0  0  0  0  0  0  0  0  0
   -8.7916   13.1803   -7.1849 H   0  0  0  0  0  0  0  0  0  0  0  0
   -9.8877   12.1541   -6.5430 H   0  0  0  0  0  0  0  0  0  0  0  0
  -11.2127   16.7297   -4.1092 H   0  0  0  0  0  0  0  0  0  0  0  0
  -10.5105   16.6697   -2.6361 H   0  0  0  0  0  0  0  0  0  0  0  0
   -9.6513   16.2733   -3.9670 H   0  0  0  0  0  0  0  0  0  0  0  0
  -13.0522   15.1036   -3.2684 H   0  0  0  0  0  0  0  0  0  0  0  0
  -12.5752   13.7255   -2.5336 H   0  0  0  0  0  0  0  0  0  0  0  0
  -12.3103   15.1678   -1.8151 H   0  0  0  0  0  0  0  0  0  0  0  0
  -11.3071   13.0478   -4.4870 H   0  0  0  0  0  0  0  0  0  0  0  0
  -11.7092   14.4041   -5.3027 H   0  0  0  0  0  0  0  0  0  0  0  0
   -9.4215   14.8580   -5.6858 H   0  0  0  0  0  0  0  0  0  0  0  0
  1  7  1  0  0  0  0
  2  8  1  0  0  0  0
  3  7  1  0  0  0  0
  4  8  1  0  0  0  0
  5  8  1  0  0  0  0
  6  7  1  0  0  0  0
  6  8  1  0  0  0  0
  1  9  1  0  0  0  0
  2 10  1  0  0  0  0
  3 11  1  0  0  0  0
  3 12  1  0  0  0  0
  3 13  1  0  0  0  0
  4 14  1  0  0  0  0
  4 15  1  0  0  0  0
  4 16  1  0  0  0  0
  5 17  1  0  0  0  0
  5 18  1  0  0  0  0
  5 19  1  0  0  0  0
  6 20  1  0  0  0  0
  6 21  1  0  0  0  0
  7 22  1  0  0  0  0
M  END
$$$$
7PIF_CL_B_101
prProtoss 08172315453D 1   1.00000     0.00000     0
Protoss beta proteinsplus
  1  0  0  0  0  0            999 V2000
   -3.1470   31.1930  -32.1800 Cl  0  5  0  0  0  0  0  0  0  0  0  0
M  CHG  1   1  -1
M  END
$$$$
7PNS_MPD_A_401
prProtoss 08172315463D 1   1.00000     0.00000     0
Protoss beta proteinsplus
 22 21  0  0  0  0            999 V2000
  -22.7410   22.5590  -23.2330 O   0  0  0  0  0  0  0  0  0  0  0  0
  -26.3300   21.5910  -25.0800 O   0  0  0  0  0  0  0  0  0  0  0  0
  -24.3790   23.8360  -24.3790 C   0  0  0  0  0  0  0  0  0  0  0  0
  -27.2800   20.6500  -23.1110 C   0  0  0  0  0  0  0  0  0  0  0  0
  -27.1490   23.1320  -23.3960 C   0  0  0  0  0  0  0  0  0  0  0  0
  -25.0300   21.7140  -23.0330 C   0  0  0  0  0  0  0  0  0  0  0  0
  -24.1070   22.9400  -23.1810 C   0  0  1  0  0  0  0  0  0  0  0  0
  -26.4390   21.8000  -23.6440 C   0  0  0  0  0  0  0  0  0  0  0  0
  -22.5303   21.9669  -22.4552 H   0  0  0  0  0  0  0  0  0  0  0  0
  -26.2436   22.4748  -25.5399 H   0  0  0  0  0  0  0  0  0  0  0  0
  -25.3371   24.1222  -24.3705 H   0  0  0  0  0  0  0  0  0  0  0  0
  -23.7897   24.6426  -24.3326 H   0  0  0  0  0  0  0  0  0  0  0  0
  -24.1890   23.3325  -25.2218 H   0  0  0  0  0  0  0  0  0  0  0  0
  -27.3866   20.7458  -22.1213 H   0  0  0  0  0  0  0  0  0  0  0  0
  -28.1802   20.6656  -23.5463 H   0  0  0  0  0  0  0  0  0  0  0  0
  -26.8261   19.7826  -23.3150 H   0  0  0  0  0  0  0  0  0  0  0  0
  -27.2305   23.2881  -22.4116 H   0  0  0  0  0  0  0  0  0  0  0  0
  -26.6199   23.8736  -23.8084 H   0  0  0  0  0  0  0  0  0  0  0  0
  -28.0607   23.1051  -23.8059 H   0  0  0  0  0  0  0  0  0  0  0  0
  -25.1393   21.5392  -22.0545 H   0  0  0  0  0  0  0  0  0  0  0  0
  -24.5662   20.9380  -23.4605 H   0  0  0  0  0  0  0  0  0  0  0  0
  -24.2262   23.4997  -22.3609 H   0  0  0  0  0  0  0  0  0  0  0  0
  1  7  1  0  0  0  0
  2  8  1  0  0  0  0
  3  7  1  0  0  0  0
  4  8  1  0  0  0  0
  5  8  1  0  0  0  0
  6  7  1  0  0  0  0
  6  8  1  0  0  0  0
  1  9  1  0  0  0  0
  2 10  1  0  0  0  0
  3 11  1  0  0  0  0
  3 12  1  0  0  0  0
  3 13  1  0  0  0  0
  4 14  1  0  0  0  0
  4 15  1  0  0  0  0
  4 16  1  0  0  0  0
  5 17  1  0  0  0  0
  5 18  1  0  0  0  0
  5 19  1  0  0  0  0
  6 20  1  0  0  0  0
  6 21  1  0  0  0  0
  7 22  1  0  0  0  0
M  END
$$$$
7PNS_7W8_A_402
prProtoss 08172315463D 1   1.00000     0.00000     0
Protoss beta proteinsplus
 32 34  0  0  0  0            999 V2000
   -5.0670    9.1730   -8.9350 F   0  0  0  0  0  0  0  0  0  0  0  0
  -12.7110    9.5050   -6.9850 N   0  0  0  0  0  0  0  0  0  0  0  0
  -12.2740   13.3930   -7.1860 N   0  0  0  0  0  0  0  0  0  0  0  0
   -9.8670   13.3090   -7.4880 N   0  0  0  0  0  0  0  0  0  0  0  0
   -2.4990   13.8240   -7.0770 C   0  0  0  0  0  0  0  0  0  0  0  0
  -11.9590   10.3530   -7.0820 C   0  0  0  0  0  0  0  0  0  0  0  0
   -3.1010   10.3820   -8.5630 C   0  0  0  0  0  0  0  0  0  0  0  0
   -2.4660   11.5210   -8.0980 C   0  0  0  0  0  0  0  0  0  0  0  0
   -7.3860    9.9920   -7.5290 C   0  0  0  0  0  0  0  0  0  0  0  0
   -8.7580    9.9110   -7.3510 C   0  0  0  0  0  0  0  0  0  0  0  0
   -7.5020   12.3950   -7.7050 C   0  0  0  0  0  0  0  0  0  0  0  0
   -4.5600   12.3950   -7.3540 C   0  0  0  0  0  0  0  0  0  0  0  0
  -11.1040   12.7190   -7.2860 C   0  0  0  0  0  0  0  0  0  0  0  0
   -4.4660   10.2860   -8.4300 C   0  0  0  0  0  0  0  0  0  0  0  0
   -8.8880   12.3050   -7.5320 C   0  0  0  0  0  0  0  0  0  0  0  0
   -3.1820   12.5450   -7.4990 C   0  0  0  0  0  0  0  0  0  0  0  0
   -6.7360   11.2190   -7.7000 C   0  0  0  0  0  0  0  0  0  0  0  0
  -10.9360   11.3460   -7.1930 C   0  0  0  0  0  0  0  0  0  0  0  0
   -5.2460   11.2740   -7.8280 C   0  0  0  0  0  0  0  0  0  0  0  0
   -9.5290   11.0670   -7.3500 C   0  0  0  0  0  0  0  0  0  0  0  0
  -13.1279   12.8935   -7.0397 H   0  0  0  0  0  0  0  0  0  0  0  0
  -12.2843   14.3903   -7.2584 H   0  0  0  0  0  0  0  0  0  0  0  0
   -9.6993   14.2899   -7.5864 H   0  0  0  0  0  0  0  0  0  0  0  0
   -3.1706   14.4408   -6.6665 H   0  0  0  0  0  0  0  0  0  0  0  0
   -1.7852   13.6158   -6.4083 H   0  0  0  0  0  0  0  0  0  0  0  0
   -2.0889   14.2624   -7.8767 H   0  0  0  0  0  0  0  0  0  0  0  0
   -2.5770    9.6435   -8.9873 H   0  0  0  0  0  0  0  0  0  0  0  0
   -1.4745   11.6061   -8.1960 H   0  0  0  0  0  0  0  0  0  0  0  0
   -6.8459    9.1504   -7.5354 H   0  0  0  0  0  0  0  0  0  0  0  0
   -9.1935    9.0199   -7.2232 H   0  0  0  0  0  0  0  0  0  0  0  0
   -7.0636   13.2850   -7.8304 H   0  0  0  0  0  0  0  0  0  0  0  0
   -5.0770   13.1166   -6.8935 H   0  0  0  0  0  0  0  0  0  0  0  0
  1 14  1  0  0  0  0
  2  6  3  0  0  0  0
  3 13  1  0  0  0  0
  4 13  1  0  0  0  0
  4 15  1  0  0  0  0
  5 16  1  0  0  0  0
  6 18  1  0  0  0  0
  7  8  1  0  0  0  0
  7 14  2  0  0  0  0
  8 16  2  0  0  0  0
  9 10  1  0  0  0  0
  9 17  2  0  0  0  0
 10 20  2  0  0  0  0
 11 15  2  0  0  0  0
 11 17  1  0  0  0  0
 12 16  1  0  0  0  0
 12 19  2  0  0  0  0
 13 18  2  0  0  0  0
 14 19  1  0  0  0  0
 15 20  1  0  0  0  0
 17 19  1  0  0  0  0
 18 20  1  0  0  0  0
  3 21  1  0  0  0  0
  3 22  1  0  0  0  0
  4 23  1  0  0  0  0
  5 24  1  0  0  0  0
  5 25  1  0  0  0  0
  5 26  1  0  0  0  0
  7 27  1  0  0  0  0
  8 28  1  0  0  0  0
  9 29  1  0  0  0  0
 10 30  1  0  0  0  0
 11 31  1  0  0  0  0
 12 32  1  0  0  0  0
M  END
$$$$
4C37_Z21_A_1351
prProtoss 05262315423D 1   1.00000     0.00000     0
Protoss beta proteinsplus
 27 29  0  0  0  0            999 V2000
   24.0650   -9.6280   -0.0460 Br  0  0  0  0  0  0  0  0  0  0  0  0
   32.0490  -10.3420    5.3790 O   0  0  0  0  0  0  0  0  0  0  0  0
   32.6690   -9.7780    2.0520 N   0  0  0  0  0  0  0  0  0  0  0  0
   32.9270  -10.1560    4.3370 N   0  0  0  0  0  0  0  0  0  0  0  0
   30.7140  -10.2640    4.9530 N   0  0  0  0  0  0  0  0  0  0  0  0
   26.7170   -9.9270   -0.6230 N   0  0  0  0  0  0  0  0  0  0  0  0
   29.8140  -10.0060    1.4480 N   0  0  0  0  0  0  0  0  0  0  0  0
   28.3630   -9.6860    3.1550 N   0  0  0  0  0  0  0  0  0  0  0  0
   27.3510  -10.7320    5.1440 C   0  0  0  0  0  0  0  0  0  0  0  0
   28.0290  -10.0350   -0.3850 C   0  0  0  0  0  0  0  0  0  0  0  0
   27.8030   -9.4490    4.4990 C   0  0  0  0  0  0  0  0  0  0  0  0
   26.2340   -9.6060    1.7810 C   0  0  0  0  0  0  0  0  0  0  0  0
   25.8970   -9.7290    0.4430 C   0  0  0  0  0  0  0  0  0  0  0  0
   32.1790   -9.9770    3.2820 C   0  0  0  0  0  0  0  0  0  0  0  0
   29.6670   -9.8760    2.7530 C   0  0  0  0  0  0  0  0  0  0  0  0
   28.5180   -9.9350    0.9490 C   0  0  0  0  0  0  0  0  0  0  0  0
   30.7890  -10.0370    3.6620 C   0  0  0  0  0  0  0  0  0  0  0  0
   27.6040   -9.7290    1.9920 C   0  0  0  0  0  0  0  0  0  0  0  0
   32.0461   -9.6466    1.2808 H   0  0  0  0  0  0  0  0  0  0  0  0
   33.6579   -9.7608    1.9045 H   0  0  0  0  0  0  0  0  0  0  0  0
   26.9779  -10.5358    6.0508 H   0  0  0  0  0  0  0  0  0  0  0  0
   26.6453  -11.1589    4.5784 H   0  0  0  0  0  0  0  0  0  0  0  0
   28.1295  -11.3536    5.2312 H   0  0  0  0  0  0  0  0  0  0  0  0
   28.6649  -10.1856   -1.1419 H   0  0  0  0  0  0  0  0  0  0  0  0
   27.0202   -8.8317    4.4204 H   0  0  0  0  0  0  0  0  0  0  0  0
   28.5043   -9.0265    5.0731 H   0  0  0  0  0  0  0  0  0  0  0  0
   25.5694   -9.4471    2.5111 H   0  0  0  0  0  0  0  0  0  0  0  0
  1 13  1  0  0  0  0
  2  4  1  0  0  0  0
  2  5  1  0  0  0  0
  3 14  1  0  0  0  0
  4 14  2  0  0  0  0
  5 17  2  0  0  0  0
  6 10  1  0  0  0  0
  6 13  2  0  0  0  0
  7 15  2  0  0  0  0
  7 16  1  0  0  0  0
  8 11  1  0  0  0  0
  8 15  1  0  0  0  0
  8 18  1  0  0  0  0
  9 11  1  0  0  0  0
 10 16  2  0  0  0  0
 12 13  1  0  0  0  0
 12 18  2  0  0  0  0
 14 17  1  0  0  0  0
 15 17  1  0  0  0  0
 16 18  1  0  0  0  0
  3 19  1  0  0  0  0
  3 20  1  0  0  0  0
  9 21  1  0  0  0  0
  9 22  1  0  0  0  0
  9 23  1  0  0  0  0
 10 24  1  0  0  0  0
 11 25  1  0  0  0  0
 11 26  1  0  0  0  0
 12 27  1  0  0  0  0
M  END
$$$$
4C37_MPD_A_1352
prProtoss 05262315423D 1   1.00000     0.00000     0
Protoss beta proteinsplus
 22 21  0  0  0  0            999 V2000
   38.1270    6.9910   -9.6400 O   0  0  0  0  0  0  0  0  0  0  0  0
   42.0620    9.1610   -8.1920 O   0  0  0  0  0  0  0  0  0  0  0  0
   38.9250    9.2400   -9.9570 C   0  0  0  0  0  0  0  0  0  0  0  0
   42.0470    9.0640  -10.5760 C   0  0  0  0  0  0  0  0  0  0  0  0
   42.9940    7.2100   -9.2030 C   0  0  0  0  0  0  0  0  0  0  0  0
   40.5050    7.4720   -9.0980 C   0  0  0  0  0  0  0  0  0  0  0  0
   39.2750    7.7720  -10.0120 C   0  0  1  0  0  0  0  0  0  0  0  0
   41.8890    8.2450   -9.2910 C   0  0  0  0  0  0  0  0  0  0  0  0
   37.3625    7.6008   -9.4310 H   0  0  0  0  0  0  0  0  0  0  0  0
   41.9665    8.6668   -7.3279 H   0  0  0  0  0  0  0  0  0  0  0  0
   39.7238    9.7831  -10.2158 H   0  0  0  0  0  0  0  0  0  0  0  0
   38.1747    9.4278  -10.5909 H   0  0  0  0  0  0  0  0  0  0  0  0
   38.6447    9.4813   -9.0279 H   0  0  0  0  0  0  0  0  0  0  0  0
   41.9340    8.4652  -11.3689 H   0  0  0  0  0  0  0  0  0  0  0  0
   41.3530    9.7836  -10.6001 H   0  0  0  0  0  0  0  0  0  0  0  0
   42.9571    9.4778  -10.5978 H   0  0  0  0  0  0  0  0  0  0  0  0
   42.9005    6.5578   -9.9552 H   0  0  0  0  0  0  0  0  0  0  0  0
   43.8824    7.6648   -9.2647 H   0  0  0  0  0  0  0  0  0  0  0  0
   42.9277    6.7249   -8.3310 H   0  0  0  0  0  0  0  0  0  0  0  0
   40.7070    6.4985   -9.2056 H   0  0  0  0  0  0  0  0  0  0  0  0
   40.2101    7.6495   -8.1591 H   0  0  0  0  0  0  0  0  0  0  0  0
   39.5198    7.5422  -10.9540 H   0  0  0  0  0  0  0  0  0  0  0  0
  1  7  1  0  0  0  0
  2  8  1  0  0  0  0
  3  7  1  0  0  0  0
  4  8  1  0  0  0  0
  5  8  1  0  0  0  0
  6  7  1  0  0  0  0
  6  8  1  0  0  0  0
  1  9  1  0  0  0  0
  2 10  1  0  0  0  0
  3 11  1  0  0  0  0
  3 12  1  0  0  0  0
  3 13  1  0  0  0  0
  4 14  1  0  0  0  0
  4 15  1  0  0  0  0
  4 16  1  0  0  0  0
  5 17  1  0  0  0  0
  5 18  1  0  0  0  0
  5 19  1  0  0  0  0
  6 20  1  0  0  0  0
  6 21  1  0  0  0  0
  7 22  1  0  0  0  0
M  END
$$$$
3POO_S69_A_2001
prProtoss 08192303273D 1   1.00000     0.00000     0
Protoss beta proteinsplus
 43 44  0  0  0  0            999 V2000
   26.1940   10.2740    1.0600 O   0  0  0  0  0  0  0  0  0  0  0  0
   33.7000   10.3120   -3.3940 O   0  0  0  0  0  0  0  0  0  0  0  0
   29.9980   10.1310   -0.3350 O   0  0  0  0  0  0  0  0  0  0  0  0
   20.9410   13.3370    2.1260 O   0  0  0  0  0  0  0  0  0  0  0  0
   27.6400   10.1180   -1.1960 N   0  0  0  0  0  0  0  0  0  0  0  0
   26.3080   10.1600   -1.2730 N   0  0  0  0  0  0  0  0  0  0  0  0
   20.3780   12.2360    2.8210 C   0  0  0  0  0  0  0  0  0  0  0  0
   29.1330   10.4750   -5.2050 C   0  0  0  0  0  0  0  0  0  0  0  0
   28.0940   10.2890   -2.5200 C   0  0  0  0  0  0  0  0  0  0  0  0
   23.4950   13.9830   -0.3340 C   0  0  0  0  0  0  0  0  0  0  0  0
   22.4730   14.1730    0.5650 C   0  0  0  0  0  0  0  0  0  0  0  0
   24.0130   12.6970   -0.5450 C   0  0  0  0  0  0  0  0  0  0  0  0
   31.8720   10.2150   -1.8340 C   0  0  0  0  0  0  0  0  0  0  0  0
   24.0610   10.2920   -0.1000 C   0  0  0  0  0  0  0  0  0  0  0  0
   31.4940   10.3900   -4.2370 C   0  0  0  0  0  0  0  0  0  0  0  0
   22.4850   11.8040    1.0420 C   0  0  0  0  0  0  0  0  0  0  0  0
   25.5660   10.2430   -0.0310 C   0  0  0  0  0  0  0  0  0  0  0  0
   32.3540   10.3070   -3.1550 C   0  0  0  0  0  0  0  0  0  0  0  0
   30.4540   10.2050   -1.6120 C   0  0  0  0  0  0  0  0  0  0  0  0
   21.9720   13.1080    1.2370 C   0  0  0  0  0  0  0  0  0  0  0  0
   30.1030   10.3780   -4.0140 C   0  0  0  0  0  0  0  0  0  0  0  0
   23.4970   11.6240    0.1410 C   0  0  0  0  0  0  0  0  0  0  0  0
   29.6080   10.2830   -2.6850 C   0  0  0  0  0  0  0  0  0  0  0  0
   34.3435   10.2503   -2.6311 H   0  0  0  0  0  0  0  0  0  0  0  0
   30.6458   10.0850    0.4254 H   0  0  0  0  0  0  0  0  0  0  0  0
   27.9806   10.8540   -0.6110 H   0  0  0  0  0  0  0  0  0  0  0  0
   25.8391   10.1351   -2.1559 H   0  0  0  0  0  0  0  0  0  0  0  0
   19.6480   12.5598    3.4229 H   0  0  0  0  0  0  0  0  0  0  0  0
   20.0026   11.5832    2.1631 H   0  0  0  0  0  0  0  0  0  0  0  0
   21.0865   11.7889    3.3670 H   0  0  0  0  0  0  0  0  0  0  0  0
   28.1909   10.4525   -4.8703 H   0  0  0  0  0  0  0  0  0  0  0  0
   29.2921   11.3318   -5.6956 H   0  0  0  0  0  0  0  0  0  0  0  0
   29.2857    9.7038   -5.8230 H   0  0  0  0  0  0  0  0  0  0  0  0
   27.7484   11.1652   -2.8561 H   0  0  0  0  0  0  0  0  0  0  0  0
   27.7181    9.5472   -3.0754 H   0  0  0  0  0  0  0  0  0  0  0  0
   23.8692   14.7617   -0.8376 H   0  0  0  0  0  0  0  0  0  0  0  0
   22.1025   15.0885    0.7218 H   0  0  0  0  0  0  0  0  0  0  0  0
   24.7596   12.5605   -1.1962 H   0  0  0  0  0  0  0  0  0  0  0  0
   32.5074   10.1576   -1.0640 H   0  0  0  0  0  0  0  0  0  0  0  0
   23.6939    9.6657    0.5878 H   0  0  0  0  0  0  0  0  0  0  0  0
   23.7778    9.9904   -1.0104 H   0  0  0  0  0  0  0  0  0  0  0  0
   31.8563   10.4577   -5.1666 H   0  0  0  0  0  0  0  0  0  0  0  0
   22.1143   11.0288    1.5536 H   0  0  0  0  0  0  0  0  0  0  0  0
  1 17  2  0  0  0  0
  2 18  1  0  0  0  0
  3 19  1  0  0  0  0
  4  7  1  0  0  0  0
  4 20  1  0  0  0  0
  5  6  1  0  0  0  0
  5  9  1  0  0  0  0
  6 17  1  0  0  0  0
  8 21  1  0  0  0  0
  9 23  1  0  0  0  0
 10 11  2  0  0  0  0
 10 12  1  0  0  0  0
 11 20  1  0  0  0  0
 12 22  2  0  0  0  0
 13 18  2  0  0  0  0
 13 19  1  0  0  0  0
 14 17  1  0  0  0  0
 14 22  1  0  0  0  0
 15 18  1  0  0  0  0
 15 21  2  0  0  0  0
 16 20  2  0  0  0  0
 16 22  1  0  0  0  0
 19 23  2  0  0  0  0
 21 23  1  0  0  0  0
  2 24  1  0  0  0  0
  3 25  1  0  0  0  0
  5 26  1  0  0  0  0
  6 27  1  0  0  0  0
  7 28  1  0  0  0  0
  7 29  1  0  0  0  0
  7 30  1  0  0  0  0
  8 31  1  0  0  0  0
  8 32  1  0  0  0  0
  8 33  1  0  0  0  0
  9 34  1  0  0  0  0
  9 35  1  0  0  0  0
 10 36  1  0  0  0  0
 11 37  1  0  0  0  0
 12 38  1  0  0  0  0
 13 39  1  0  0  0  0
 14 40  1  0  0  0  0
 14 41  1  0  0  0  0
 15 42  1  0  0  0  0
 16 43  1  0  0  0  0
M  END
$$$$
3POO_BUD_A_3001
prProtoss 08192303273D 1   1.00000     0.00000     0
Protoss beta proteinsplus
 16 15  0  0  0  0            999 V2000
   18.6490   10.2990   -3.8120 O   0  0  0  0  0  0  0  0  0  0  0  0
   20.8380    9.2360   -2.3940 O   0  0  0  0  0  0  0  0  0  0  0  0
   17.9860    8.1840   -4.5290 C   0  0  0  0  0  0  0  0  0  0  0  0
   20.1240    7.0540   -2.9160 C   0  0  0  0  0  0  0  0  0  0  0  0
   18.7110    8.9610   -3.4630 C   0  0  1  0  0  0  0  0  0  0  0  0
   20.1300    8.4890   -3.3370 C   0  0  1  0  0  0  0  0  0  0  0  0
   19.0866   10.4322   -4.7012 H   0  0  0  0  0  0  0  0  0  0  0  0
   21.2663   10.0201   -2.8432 H   0  0  0  0  0  0  0  0  0  0  0  0
   18.0119    7.2093   -4.3069 H   0  0  0  0  0  0  0  0  0  0  0  0
   17.0351    8.4900   -4.5760 H   0  0  0  0  0  0  0  0  0  0  0  0
   18.4293    8.3365   -5.4123 H   0  0  0  0  0  0  0  0  0  0  0  0
   19.6183    6.5119   -3.5870 H   0  0  0  0  0  0  0  0  0  0  0  0
   21.0647    6.7197   -2.8581 H   0  0  0  0  0  0  0  0  0  0  0  0
   19.6851    6.9709   -2.0213 H   0  0  0  0  0  0  0  0  0  0  0  0
   18.2442    8.8296   -2.5885 H   0  0  0  0  0  0  0  0  0  0  0  0
   20.5823    8.5685   -4.2253 H   0  0  0  0  0  0  0  0  0  0  0  0
  1  5  1  0  0  0  0
  2  6  1  0  0  0  0
  3  5  1  0  0  0  0
  4  6  1  0  0  0  0
  5  6  1  0  0  0  0
  1  7  1  0  0  0  0
  2  8  1  0  0  0  0
  3  9  1  0  0  0  0
  3 10  1  0  0  0  0
  3 11  1  0  0  0  0
  4 12  1  0  0  0  0
  4 13  1  0  0  0  0
  4 14  1  0  0  0  0
  5 15  1  0  0  0  0
  6 16  1  0  0  0  0
M  END
$$$$
4AXA_RKD_A_1351
prProtoss 05262315353D 1   1.00000     0.00000     0
Protoss beta proteinsplus
 39 41  0  0  0  0            999 V2000
   13.4240   13.3150   -0.7320 Cl  0  0  0  0  0  0  0  0  0  0  0  0
   11.2700    9.9320    4.5830 O   0  0  0  0  0  0  0  0  0  0  0  0
   10.3670    7.2050    3.8540 N   0  3  0  0  0  0  0  0  0  0  0  0
    2.8350   10.0770    3.9340 N   0  0  0  0  0  0  0  0  0  0  0  0
    2.8710   10.0410    2.5840 N   0  0  0  0  0  0  0  0  0  0  0  0
   11.0950    8.1630    2.9800 C   0  0  0  0  0  0  0  0  0  0  0  0
    4.1100   10.0260    4.3000 C   0  0  0  0  0  0  0  0  0  0  0  0
    4.1250    9.9700    2.1200 C   0  0  0  0  0  0  0  0  0  0  0  0
   12.4950   12.6720    1.7070 C   0  0  0  0  0  0  0  0  0  0  0  0
   12.2360   11.0150    0.0160 C   0  0  0  0  0  0  0  0  0  0  0  0
    7.1470    9.5100    2.0910 C   0  0  0  0  0  0  0  0  0  0  0  0
    7.1570   10.1890    4.3810 C   0  0  0  0  0  0  0  0  0  0  0  0
   11.8940   11.8410    2.6190 C   0  0  0  0  0  0  0  0  0  0  0  0
   11.6300   10.1750    0.9290 C   0  0  0  0  0  0  0  0  0  0  0  0
    8.5300    9.4390    2.1050 C   0  0  0  0  0  0  0  0  0  0  0  0
    8.5360   10.1170    4.3920 C   0  0  0  0  0  0  0  0  0  0  0  0
   12.6610   12.2550    0.4180 C   0  0  0  0  0  0  0  0  0  0  0  0
    4.9570    9.9600    3.2070 C   0  0  0  0  0  0  0  0  0  0  0  0
    6.4360    9.8880    3.2290 C   0  0  0  0  0  0  0  0  0  0  0  0
   11.4510   10.5790    2.2470 C   0  0  0  0  0  0  0  0  0  0  0  0
    9.2450    9.7410    3.2550 C   0  0  0  0  0  0  0  0  0  0  0  0
   10.7820    9.6600    3.2710 C   0  0  2  0  0  0  0  0  0  0  0  0
   12.0568    9.3452    4.7743 H   0  0  0  0  0  0  0  0  0  0  0  0
    9.4948    6.9627    3.4291 H   0  0  0  0  0  0  0  0  0  0  0  0
   10.9187    6.3800    3.9764 H   0  0  0  0  0  0  0  0  0  0  0  0
   10.8484    7.9703    2.0303 H   0  0  0  0  0  0  0  0  0  0  0  0
   12.0764    8.0180    3.1055 H   0  0  0  0  0  0  0  0  0  0  0  0
    4.4210   10.0343    5.2504 H   0  0  0  0  0  0  0  0  0  0  0  0
    4.4017    9.9315    1.1598 H   0  0  0  0  0  0  0  0  0  0  0  0
   12.8100   13.5793    1.9857 H   0  0  0  0  0  0  0  0  0  0  0  0
   12.3640   10.7212   -0.9313 H   0  0  0  0  0  0  0  0  0  0  0  0
    6.6509    9.2868    1.2519 H   0  0  0  0  0  0  0  0  0  0  0  0
    6.6702   10.4608    5.2111 H   0  0  0  0  0  0  0  0  0  0  0  0
   11.7737   12.1483    3.5630 H   0  0  0  0  0  0  0  0  0  0  0  0
   11.3178    9.2700    0.6402 H   0  0  0  0  0  0  0  0  0  0  0  0
    9.0191    9.1668    1.2763 H   0  0  0  0  0  0  0  0  0  0  0  0
    9.0333   10.3387    5.2308 H   0  0  0  0  0  0  0  0  0  0  0  0
   10.1980    7.6281    4.7442 H   0  0  0  0  0  0  0  0  0  0  0  0
    2.0587   10.0645    2.0012 H   0  0  0  0  0  0  0  0  0  0  0  0
  1 17  1  0  0  0  0
  2 22  1  0  0  0  0
  3  6  1  0  0  0  0
  4  5  1  0  0  0  0
  4  7  2  0  0  0  0
  5  8  1  0  0  0  0
  6 22  1  0  0  0  0
  7 18  1  0  0  0  0
  8 18  2  0  0  0  0
  9 13  2  0  0  0  0
  9 17  1  0  0  0  0
 10 14  1  0  0  0  0
 10 17  2  0  0  0  0
 11 15  1  0  0  0  0
 11 19  2  0  0  0  0
 12 16  2  0  0  0  0
 12 19  1  0  0  0  0
 13 20  1  0  0  0  0
 14 20  2  0  0  0  0
 15 21  2  0  0  0  0
 16 21  1  0  0  0  0
 18 19  1  0  0  0  0
 20 22  1  0  0  0  0
 21 22  1  0  0  0  0
  2 23  1  0  0  0  0
  3 24  1  0  0  0  0
  3 25  1  0  0  0  0
  3 38  1  0  0  0  0
  6 26  1  0  0  0  0
  6 27  1  0  0  0  0
  7 28  1  0  0  0  0
  8 29  1  0  0  0  0
  9 30  1  0  0  0  0
 10 31  1  0  0  0  0
 11 32  1  0  0  0  0
 12 33  1  0  0  0  0
 13 34  1  0  0  0  0
 14 35  1  0  0  0  0
 15 36  1  0  0  0  0
 16 37  1  0  0  0  0
  5 39  1  0  0  0  0
M  CHG  1   3   1
M  END
$$$$
7PIH_7QW_A_401
prProtoss 08172315453D 1   1.00000     0.00000     0
Protoss beta proteinsplus
 47 50  0  0  0  0            999 V2000
   17.5660  -26.6900  -23.7090 O   0  0  0  0  0  0  0  0  0  0  0  0
    7.8950  -20.2230  -28.6230 N   0  3  0  0  0  0  0  0  0  0  0  0
   17.4530  -24.4440  -23.5290 N   0  0  0  0  0  0  0  0  0  0  0  0
   10.1150  -22.6600  -29.4570 N   0  3  0  0  0  0  0  0  0  0  0  0
   16.9060  -23.2910  -23.9800 C   0  0  0  0  0  0  0  0  0  0  0  0
    8.9420  -23.5340  -29.3300 C   0  0  0  0  0  0  0  0  0  0  0  0
    9.5820  -21.3770  -29.9290 C   0  0  0  0  0  0  0  0  0  0  0  0
   11.1520  -23.2220  -30.3370 C   0  0  0  0  0  0  0  0  0  0  0  0
   11.2630  -26.8560  -29.3120 C   0  0  0  0  0  0  0  0  0  0  0  0
   15.9580  -23.2280  -24.9640 C   0  0  0  0  0  0  0  0  0  0  0  0
    7.8270  -22.6430  -28.8290 C   0  0  0  0  0  0  0  0  0  0  0  0
   10.9590  -25.7110  -30.0260 C   0  0  0  0  0  0  0  0  0  0  0  0
   12.2840  -26.8360  -28.3770 C   0  0  0  0  0  0  0  0  0  0  0  0
   14.7410  -26.8350  -26.7700 C   0  0  0  0  0  0  0  0  0  0  0  0
   15.7000  -26.8470  -25.8050 C   0  0  0  0  0  0  0  0  0  0  0  0
   12.7070  -24.5380  -28.8950 C   0  0  0  0  0  0  0  0  0  0  0  0
   14.5240  -24.4580  -26.5800 C   0  0  0  0  0  0  0  0  0  0  0  0
   17.0680  -25.5800  -24.1090 C   0  0  0  0  0  0  0  0  0  0  0  0
    8.1010  -21.3290  -29.5560 C   0  0  1  0  0  0  0  0  0  0  0  0
   11.6570  -24.5340  -29.8020 C   0  0  0  0  0  0  0  0  0  0  0  0
   13.0240  -25.6730  -28.1570 C   0  0  0  0  0  0  0  0  0  0  0  0
   14.1210  -25.6480  -27.1640 C   0  0  0  0  0  0  0  0  0  0  0  0
   15.5270  -24.4280  -25.5820 C   0  0  0  0  0  0  0  0  0  0  0  0
   16.1170  -25.6530  -25.1700 C   0  0  0  0  0  0  0  0  0  0  0  0
    6.9704  -19.8593  -28.7361 H   0  0  0  0  0  0  0  0  0  0  0  0
    8.0117  -20.5515  -27.6857 H   0  0  0  0  0  0  0  0  0  0  0  0
   18.1227  -24.4432  -22.7864 H   0  0  0  0  0  0  0  0  0  0  0  0
   17.2137  -22.4330  -23.5688 H   0  0  0  0  0  0  0  0  0  0  0  0
    9.1227  -24.2688  -28.6763 H   0  0  0  0  0  0  0  0  0  0  0  0
    8.7024  -23.9285  -30.2171 H   0  0  0  0  0  0  0  0  0  0  0  0
    9.6865  -21.3082  -30.9211 H   0  0  0  0  0  0  0  0  0  0  0  0
   10.0693  -20.6225  -29.4894 H   0  0  0  0  0  0  0  0  0  0  0  0
   11.9145  -22.5778  -30.3973 H   0  0  0  0  0  0  0  0  0  0  0  0
   10.7652  -23.3669  -31.2477 H   0  0  0  0  0  0  0  0  0  0  0  0
   10.7460  -27.6971  -29.4709 H   0  0  0  0  0  0  0  0  0  0  0  0
   15.5746  -22.3476  -25.2432 H   0  0  0  0  0  0  0  0  0  0  0  0
    7.8772  -22.5245  -27.8373 H   0  0  0  0  0  0  0  0  0  0  0  0
    6.9310  -23.0123  -29.0756 H   0  0  0  0  0  0  0  0  0  0  0  0
   10.2295  -25.7322  -30.7097 H   0  0  0  0  0  0  0  0  0  0  0  0
   12.4933  -27.6625  -27.8544 H   0  0  0  0  0  0  0  0  0  0  0  0
   14.4747  -27.6945  -27.2062 H   0  0  0  0  0  0  0  0  0  0  0  0
   16.1180  -27.7158  -25.5395 H   0  0  0  0  0  0  0  0  0  0  0  0
   13.2477  -23.7062  -28.7693 H   0  0  0  0  0  0  0  0  0  0  0  0
   14.0968  -23.6016  -26.8700 H   0  0  0  0  0  0  0  0  0  0  0  0
    7.5238  -21.2340  -30.3670 H   0  0  0  0  0  0  0  0  0  0  0  0
    8.5620  -19.5015  -28.8088 H   0  0  0  0  0  0  0  0  0  0  0  0
   10.5095  -22.5245  -28.5482 H   0  0  0  0  0  0  0  0  0  0  0  0
  1 18  2  0  0  0  0
  2 19  1  0  0  0  0
  3  5  1  0  0  0  0
  3 18  1  0  0  0  0
  4  6  1  0  0  0  0
  4  7  1  0  0  0  0
  4  8  1  0  0  0  0
  5 10  2  0  0  0  0
  6 11  1  0  0  0  0
  7 19  1  0  0  0  0
  8 20  1  0  0  0  0
  9 12  2  0  0  0  0
  9 13  1  0  0  0  0
 10 23  1  0  0  0  0
 11 19  1  0  0  0  0
 12 20  1  0  0  0  0
 13 21  2  0  0  0  0
 14 15  1  0  0  0  0
 14 22  2  0  0  0  0
 15 24  2  0  0  0  0
 16 20  2  0  0  0  0
 16 21  1  0  0  0  0
 17 22  1  0  0  0  0
 17 23  2  0  0  0  0
 18 24  1  0  0  0  0
 21 22  1  0  0  0  0
 23 24  1  0  0  0  0
  2 25  1  0  0  0  0
  2 26  1  0  0  0  0
  3 27  1  0  0  0  0
  5 28  1  0  0  0  0
  6 29  1  0  0  0  0
  6 30  1  0  0  0  0
  7 31  1  0  0  0  0
  7 32  1  0  0  0  0
  8 33  1  0  0  0  0
  8 34  1  0  0  0  0
  9 35  1  0  0  0  0
 10 36  1  0  0  0  0
 11 37  1  0  0  0  0
 11 38  1  0  0  0  0
 12 39  1  0  0  0  0
 13 40  1  0  0  0  0
 14 41  1  0  0  0  0
 15 42  1  0  0  0  0
 16 43  1  0  0  0  0
 17 44  1  0  0  0  0
 19 45  1  0  0  0  0
  2 46  1  0  0  0  0
  4 47  1  0  0  0  0
M  CHG  2   2   1   4   1
M  END
$$$$
7PIH_MPD_A_402
prProtoss 08172315453D 1   1.00000     0.00000     0
Protoss beta proteinsplus
 22 21  0  0  0  0            999 V2000
    8.7050  -13.4150   -4.7360 O   0  0  0  0  0  0  0  0  0  0  0  0
    9.9290  -14.2650   -2.5630 O   0  0  0  0  0  0  0  0  0  0  0  0
    9.6560  -13.2870   -6.7670 C   0  0  0  0  0  0  0  0  0  0  0  0
   10.5480  -16.3480   -3.4930 C   0  0  0  0  0  0  0  0  0  0  0  0
   12.2860  -14.7290   -2.6000 C   0  0  0  0  0  0  0  0  0  0  0  0
   11.0010  -14.0770   -4.6640 C   0  0  0  0  0  0  0  0  0  0  0  0
    9.6900  -14.0530   -5.4710 C   0  0  1  0  0  0  0  0  0  0  0  0
   10.9600  -14.8850   -3.3480 C   0  0  0  0  0  0  0  0  0  0  0  0
    7.8301  -13.4914   -5.2142 H   0  0  0  0  0  0  0  0  0  0  0  0
    9.2169  -13.9099   -3.1687 H   0  0  0  0  0  0  0  0  0  0  0  0
   10.3384  -13.6625   -7.3942 H   0  0  0  0  0  0  0  0  0  0  0  0
    8.7473  -13.3657   -7.1770 H   0  0  0  0  0  0  0  0  0  0  0  0
    9.8597  -12.3240   -6.5905 H   0  0  0  0  0  0  0  0  0  0  0  0
   11.2330  -16.8351   -4.0347 H   0  0  0  0  0  0  0  0  0  0  0  0
   10.4800  -16.7665   -2.5873 H   0  0  0  0  0  0  0  0  0  0  0  0
    9.6611  -16.4006   -3.9519 H   0  0  0  0  0  0  0  0  0  0  0  0
   13.0196  -15.1546   -3.1298 H   0  0  0  0  0  0  0  0  0  0  0  0
   12.4858  -13.7572   -2.4748 H   0  0  0  0  0  0  0  0  0  0  0  0
   12.2190  -15.1733   -1.7066 H   0  0  0  0  0  0  0  0  0  0  0  0
   11.2405  -13.1328   -4.4380 H   0  0  0  0  0  0  0  0  0  0  0  0
   11.7128  -14.4714   -5.2451 H   0  0  0  0  0  0  0  0  0  0  0  0
    9.4023  -14.9946   -5.6459 H   0  0  0  0  0  0  0  0  0  0  0  0
  1  7  1  0  0  0  0
  2  8  1  0  0  0  0
  3  7  1  0  0  0  0
  4  8  1  0  0  0  0
  5  8  1  0  0  0  0
  6  7  1  0  0  0  0
  6  8  1  0  0  0  0
  1  9  1  0  0  0  0
  2 10  1  0  0  0  0
  3 11  1  0  0  0  0
  3 12  1  0  0  0  0
  3 13  1  0  0  0  0
  4 14  1  0  0  0  0
  4 15  1  0  0  0  0
  4 16  1  0  0  0  0
  5 17  1  0  0  0  0
  5 18  1  0  0  0  0
  5 19  1  0  0  0  0
  6 20  1  0  0  0  0
  6 21  1  0  0  0  0
  7 22  1  0  0  0  0
M  END
$$$$
7PIH_CL_A_403
prProtoss 08172315453D 1   1.00000     0.00000     0
Protoss beta proteinsplus
  1  0  0  0  0  0            999 V2000
   -3.2530    5.2900  -22.3140 Cl  0  5  0  0  0  0  0  0  0  0  0  0
M  CHG  1   1  -1
M  END
$$$$
2GNH_H52_A_501
prProtoss 05262315323D 1   1.00000     0.00000     0
Protoss beta proteinsplus
 44 46  0  0  0  0            999 V2000
    8.9860    9.7260    4.0600 S   0  0  0  0  0  0  0  0  0  0  0  0
    9.3410   11.0100    4.5490 O   0  0  0  0  0  0  0  0  0  0  0  0
    8.8110    8.7120    5.0260 O   0  0  0  0  0  0  0  0  0  0  0  0
   12.8430    8.3610    3.3140 N   0  3  0  0  0  0  0  0  0  0  0  0
    3.5130    9.9720    4.8060 N   0  0  0  0  0  0  0  0  0  0  0  0
   10.1230    9.2010    3.0980 N   0  0  0  0  0  0  0  0  0  0  0  0
    9.5580    6.9980    2.0900 C   0  0  0  0  0  0  0  0  0  0  0  0
    6.8080   10.0190    6.4410 C   0  0  0  0  0  0  0  0  0  0  0  0
   13.2400    9.6450    2.7600 C   0  0  0  0  0  0  0  0  0  0  0  0
   11.9370    7.5230    2.5640 C   0  0  0  0  0  0  0  0  0  0  0  0
    4.5040    9.9940    5.7070 C   0  0  0  0  0  0  0  0  0  0  0  0
    3.7720    9.8980    3.5020 C   0  0  0  0  0  0  0  0  0  0  0  0
   10.8370   10.0940    2.1760 C   0  0  0  0  0  0  0  0  0  0  0  0
   12.0870   10.6390    2.8720 C   0  0  0  0  0  0  0  0  0  0  0  0
    6.4430    9.7240    1.0570 C   0  0  0  0  0  0  0  0  0  0  0  0
    7.5750    9.7250    1.8830 C   0  0  0  0  0  0  0  0  0  0  0  0
    5.1980    9.7680    1.6290 C   0  0  0  0  0  0  0  0  0  0  0  0
    7.5130    9.7830    3.2950 C   0  0  0  0  0  0  0  0  0  0  0  0
   10.4910    7.7530    3.0200 C   0  0  1  0  0  0  0  0  0  0  0  0
    5.8420    9.9820    5.2660 C   0  0  0  0  0  0  0  0  0  0  0  0
    5.0850    9.8670    3.0180 C   0  0  0  0  0  0  0  0  0  0  0  0
    6.1920    9.8920    3.8840 C   0  0  0  0  0  0  0  0  0  0  0  0
   12.4096    8.5443    4.1963 H   0  0  0  0  0  0  0  0  0  0  0  0
    9.8270    6.0354    2.0574 H   0  0  0  0  0  0  0  0  0  0  0  0
    8.6197    7.0706    2.4281 H   0  0  0  0  0  0  0  0  0  0  0  0
    9.6128    7.3907    1.1720 H   0  0  0  0  0  0  0  0  0  0  0  0
    7.7481   10.0096    6.1001 H   0  0  0  0  0  0  0  0  0  0  0  0
    6.6545   10.8520    6.9726 H   0  0  0  0  0  0  0  0  0  0  0  0
    6.6563    9.2197    7.0225 H   0  0  0  0  0  0  0  0  0  0  0  0
   13.4854    9.5291    1.7975 H   0  0  0  0  0  0  0  0  0  0  0  0
   14.0290    9.9943    3.2654 H   0  0  0  0  0  0  0  0  0  0  0  0
   12.1793    6.5638    2.7094 H   0  0  0  0  0  0  0  0  0  0  0  0
   12.0143    7.7426    1.5915 H   0  0  0  0  0  0  0  0  0  0  0  0
    4.2958   10.0187    6.6848 H   0  0  0  0  0  0  0  0  0  0  0  0
    3.0113    9.8638    2.8538 H   0  0  0  0  0  0  0  0  0  0  0  0
   10.2405   10.8535    1.9165 H   0  0  0  0  0  0  0  0  0  0  0  0
   11.1045    9.5855    1.3575 H   0  0  0  0  0  0  0  0  0  0  0  0
   12.3534   11.5014    2.4414 H   0  0  0  0  0  0  0  0  0  0  0  0
   11.8826   10.7979    3.8379 H   0  0  0  0  0  0  0  0  0  0  0  0
    6.5422    9.6916    0.0625 H   0  0  0  0  0  0  0  0  0  0  0  0
    8.4757    9.6824    1.4507 H   0  0  0  0  0  0  0  0  0  0  0  0
    4.3783    9.7296    1.0574 H   0  0  0  0  0  0  0  0  0  0  0  0
   10.3929    7.3624    3.9353 H   0  0  0  0  0  0  0  0  0  0  0  0
   13.6799    7.8326    3.4571 H   0  0  0  0  0  0  0  0  0  0  0  0
  1  2  2  0  0  0  0
  1  3  2  0  0  0  0
  1  6  1  0  0  0  0
  1 18  1  0  0  0  0
  4  9  1  0  0  0  0
  4 10  1  0  0  0  0
  5 11  2  0  0  0  0
  5 12  1  0  0  0  0
  6 13  1  0  0  0  0
  6 19  1  0  0  0  0
  7 19  1  0  0  0  0
  8 20  1  0  0  0  0
  9 14  1  0  0  0  0
 10 19  1  0  0  0  0
 11 20  1  0  0  0  0
 12 21  2  0  0  0  0
 13 14  1  0  0  0  0
 15 16  1  0  0  0  0
 15 17  2  0  0  0  0
 16 18  2  0  0  0  0
 17 21  1  0  0  0  0
 18 22  1  0  0  0  0
 20 22  2  0  0  0  0
 21 22  1  0  0  0  0
  4 23  1  0  0  0  0
  7 24  1  0  0  0  0
  7 25  1  0  0  0  0
  7 26  1  0  0  0  0
  8 27  1  0  0  0  0
  8 28  1  0  0  0  0
  8 29  1  0  0  0  0
  9 30  1  0  0  0  0
  9 31  1  0  0  0  0
 10 32  1  0  0  0  0
 10 33  1  0  0  0  0
 11 34  1  0  0  0  0
 12 35  1  0  0  0  0
 13 36  1  0  0  0  0
 13 37  1  0  0  0  0
 14 38  1  0  0  0  0
 14 39  1  0  0  0  0
 15 40  1  0  0  0  0
 16 41  1  0  0  0  0
 17 42  1  0  0  0  0
 19 43  1  0  0  0  0
  4 44  1  0  0  0  0
M  CHG  1   4   1
M  END
$$$$
2GNH_H52_A_502
prProtoss 05262315323D 1   1.00000     0.00000     0
Protoss beta proteinsplus
 44 46  0  0  0  0            999 V2000
   19.0780    8.2150  -18.6530 S   0  0  0  0  0  0  0  0  0  0  0  0
   18.6470    8.5370  -17.3160 O   0  0  0  0  0  0  0  0  0  0  0  0
   18.5310    7.0000  -19.2030 O   0  0  0  0  0  0  0  0  0  0  0  0
   22.5840    6.4120  -17.0770 N   0  3  0  0  0  0  0  0  0  0  0  0
   14.9800   11.5120  -20.2190 N   0  0  0  0  0  0  0  0  0  0  0  0
   20.6410    8.0560  -18.5230 N   0  0  0  0  0  0  0  0  0  0  0  0
   21.5160    7.1480  -20.6690 C   0  0  0  0  0  0  0  0  0  0  0  0
   15.9290    8.5210  -18.2930 C   0  0  0  0  0  0  0  0  0  0  0  0
   22.7520    7.4920  -16.1300 C   0  0  0  0  0  0  0  0  0  0  0  0
   22.7250    6.6510  -18.5000 C   0  0  0  0  0  0  0  0  0  0  0  0
   14.9950   10.4370  -19.4440 C   0  0  0  0  0  0  0  0  0  0  0  0
   16.1090   11.9600  -20.7630 C   0  0  0  0  0  0  0  0  0  0  0  0
   21.4830    9.0530  -17.8010 C   0  0  0  0  0  0  0  0  0  0  0  0
   21.7150    8.6000  -16.3400 C   0  0  0  0  0  0  0  0  0  0  0  0
   19.6780   11.2920  -21.0580 C   0  0  0  0  0  0  0  0  0  0  0  0
   19.7770   10.1490  -20.2700 C   0  0  0  0  0  0  0  0  0  0  0  0
   18.4370   11.8690  -21.2070 C   0  0  0  0  0  0  0  0  0  0  0  0
   18.6950    9.5340  -19.5910 C   0  0  0  0  0  0  0  0  0  0  0  0
   21.3440    6.9180  -19.1480 C   0  0  1  0  0  0  0  0  0  0  0  0
   16.1680    9.7130  -19.1950 C   0  0  0  0  0  0  0  0  0  0  0  0
   17.3210   11.3000  -20.5630 C   0  0  0  0  0  0  0  0  0  0  0  0
   17.4100   10.1420  -19.7490 C   0  0  0  0  0  0  0  0  0  0  0  0
   21.6624    6.0497  -16.9375 H   0  0  0  0  0  0  0  0  0  0  0  0
   21.9934    6.3673  -21.0723 H   0  0  0  0  0  0  0  0  0  0  0  0
   20.6166    7.2452  -21.0952 H   0  0  0  0  0  0  0  0  0  0  0  0
   22.0491    7.9801  -20.8221 H   0  0  0  0  0  0  0  0  0  0  0  0
   16.7915    8.0372  -18.1444 H   0  0  0  0  0  0  0  0  0  0  0  0
   15.5672    8.8346  -17.4151 H   0  0  0  0  0  0  0  0  0  0  0  0
   15.2705    7.9038  -18.7237 H   0  0  0  0  0  0  0  0  0  0  0  0
   23.6670    7.8800  -16.2406 H   0  0  0  0  0  0  0  0  0  0  0  0
   22.6539    7.1283  -15.2037 H   0  0  0  0  0  0  0  0  0  0  0  0
   23.1393    5.8480  -18.9285 H   0  0  0  0  0  0  0  0  0  0  0  0
   23.3142    7.4463  -18.6428 H   0  0  0  0  0  0  0  0  0  0  0  0
   14.1405   10.1326  -19.0230 H   0  0  0  0  0  0  0  0  0  0  0  0
   16.0877   12.7861  -21.3262 H   0  0  0  0  0  0  0  0  0  0  0  0
   21.0196    9.9391  -17.8022 H   0  0  0  0  0  0  0  0  0  0  0  0
   22.3651    9.1375  -18.2645 H   0  0  0  0  0  0  0  0  0  0  0  0
   22.0122    9.3987  -15.8168 H   0  0  0  0  0  0  0  0  0  0  0  0
   20.8415    8.2720  -15.9802 H   0  0  0  0  0  0  0  0  0  0  0  0
   20.4842   11.6824  -21.5026 H   0  0  0  0  0  0  0  0  0  0  0  0
   20.6799    9.7297  -20.1756 H   0  0  0  0  0  0  0  0  0  0  0  0
   18.3284   12.6884  -21.7699 H   0  0  0  0  0  0  0  0  0  0  0  0
   20.7812    6.1011  -19.0216 H   0  0  0  0  0  0  0  0  0  0  0  0
   23.2571    5.7127  -16.8361 H   0  0  0  0  0  0  0  0  0  0  0  0
  1  2  2  0  0  0  0
  1  3  2  0  0  0  0
  1  6  1  0  0  0  0
  1 18  1  0  0  0  0
  4  9  1  0  0  0  0
  4 10  1  0  0  0  0
  5 11  2  0  0  0  0
  5 12  1  0  0  0  0
  6 13  1  0  0  0  0
  6 19  1  0  0  0  0
  7 19  1  0  0  0  0
  8 20  1  0  0  0  0
  9 14  1  0  0  0  0
 10 19  1  0  0  0  0
 11 20  1  0  0  0  0
 12 21  2  0  0  0  0
 13 14  1  0  0  0  0
 15 16  1  0  0  0  0
 15 17  2  0  0  0  0
 16 18  2  0  0  0  0
 17 21  1  0  0  0  0
 18 22  1  0  0  0  0
 20 22  2  0  0  0  0
 21 22  1  0  0  0  0
  4 23  1  0  0  0  0
  7 24  1  0  0  0  0
  7 25  1  0  0  0  0
  7 26  1  0  0  0  0
  8 27  1  0  0  0  0
  8 28  1  0  0  0  0
  8 29  1  0  0  0  0
  9 30  1  0  0  0  0
  9 31  1  0  0  0  0
 10 32  1  0  0  0  0
 10 33  1  0  0  0  0
 11 34  1  0  0  0  0
 12 35  1  0  0  0  0
 13 36  1  0  0  0  0
 13 37  1  0  0  0  0
 14 38  1  0  0  0  0
 14 39  1  0  0  0  0
 15 40  1  0  0  0  0
 16 41  1  0  0  0  0
 17 42  1  0  0  0  0
 19 43  1  0  0  0  0
  4 44  1  0  0  0  0
M  CHG  1   4   1
M  END
$$$$
2GNL_H52_A_501
prProtoss 03132510163D 1   1.00000     0.00000     0
Protoss beta proteinsplus
 44 46  0  0  0  0            999 V2000
    8.8560    9.7810    4.0710 S   0  0  0  0  0  0  0  0  0  0  0  0
    9.2980   11.0130    4.6250 O   0  0  0  0  0  0  0  0  0  0  0  0
    8.6700    8.8850    5.1560 O   0  0  0  0  0  0  0  0  0  0  0  0
   12.4710    8.2510    3.6530 N   0  3  0  0  0  0  0  0  0  0  0  0
    3.3870   10.3120    4.2850 N   0  0  0  0  0  0  0  0  0  0  0  0
    9.9830    9.1810    3.1940 N   0  0  0  0  0  0  0  0  0  0  0  0
    9.3500    7.0290    2.0070 C   0  0  0  0  0  0  0  0  0  0  0  0
    6.5300   10.1860    6.1950 C   0  0  0  0  0  0  0  0  0  0  0  0
   13.1230    9.4270    3.1740 C   0  0  0  0  0  0  0  0  0  0  0  0
   11.6570    7.4590    2.7740 C   0  0  0  0  0  0  0  0  0  0  0  0
    4.3030   10.2990    5.2490 C   0  0  0  0  0  0  0  0  0  0  0  0
    3.7450   10.2140    3.0170 C   0  0  0  0  0  0  0  0  0  0  0  0
   10.8660   10.0680    2.4230 C   0  0  0  0  0  0  0  0  0  0  0  0
   12.0480   10.4680    3.3050 C   0  0  0  0  0  0  0  0  0  0  0  0
    6.6030    9.8330    0.8810 C   0  0  0  0  0  0  0  0  0  0  0  0
    7.6420    9.8070    1.7980 C   0  0  0  0  0  0  0  0  0  0  0  0
    5.3200    9.9630    1.3170 C   0  0  0  0  0  0  0  0  0  0  0  0
    7.4690    9.9020    3.1890 C   0  0  0  0  0  0  0  0  0  0  0  0
   10.1930    7.7290    3.0850 C   0  0  1  0  0  0  0  0  0  0  0  0
    5.6630   10.1850    4.9710 C   0  0  0  0  0  0  0  0  0  0  0  0
    5.0830   10.0830    2.6730 C   0  0  0  0  0  0  0  0  0  0  0  0
    6.1170   10.0560    3.6370 C   0  0  0  0  0  0  0  0  0  0  0  0
   11.8817    8.5377    4.4083 H   0  0  0  0  0  0  0  0  0  0  0  0
    9.5572    6.0507    2.0049 H   0  0  0  0  0  0  0  0  0  0  0  0
    8.3788    7.1636    2.2037 H   0  0  0  0  0  0  0  0  0  0  0  0
    9.5655    7.4173    1.1110 H   0  0  0  0  0  0  0  0  0  0  0  0
    7.4890   10.1017    5.9243 H   0  0  0  0  0  0  0  0  0  0  0  0
    6.3990   11.0417    6.6956 H   0  0  0  0  0  0  0  0  0  0  0  0
    6.2801    9.4153    6.7811 H   0  0  0  0  0  0  0  0  0  0  0  0
   13.4087    9.3198    2.2217 H   0  0  0  0  0  0  0  0  0  0  0  0
   13.9176    9.6548    3.7368 H   0  0  0  0  0  0  0  0  0  0  0  0
   11.8569    6.4892    2.9137 H   0  0  0  0  0  0  0  0  0  0  0  0
   11.8498    7.7056    1.8243 H   0  0  0  0  0  0  0  0  0  0  0  0
    4.0067   10.3732    6.2012 H   0  0  0  0  0  0  0  0  0  0  0  0
    3.0475   10.2344    2.3007 H   0  0  0  0  0  0  0  0  0  0  0  0
   10.3620   10.8855    2.1444 H   0  0  0  0  0  0  0  0  0  0  0  0
   11.1989    9.5887    1.6109 H   0  0  0  0  0  0  0  0  0  0  0  0
   12.4020   11.3557    3.0105 H   0  0  0  0  0  0  0  0  0  0  0  0
   11.7514   10.5269    4.2582 H   0  0  0  0  0  0  0  0  0  0  0  0
    6.7952    9.7565   -0.0974 H   0  0  0  0  0  0  0  0  0  0  0  0
    8.5739    9.7148    1.4473 H   0  0  0  0  0  0  0  0  0  0  0  0
    4.5609    9.9715    0.6661 H   0  0  0  0  0  0  0  0  0  0  0  0
    9.9786    7.3140    3.9692 H   0  0  0  0  0  0  0  0  0  0  0  0
   13.1884    7.6472    4.0006 H   0  0  0  0  0  0  0  0  0  0  0  0
  1  2  2  0  0  0  0
  1  3  2  0  0  0  0
  1  6  1  0  0  0  0
  1 18  1  0  0  0  0
  4  9  1  0  0  0  0
  4 10  1  0  0  0  0
  5 11  2  0  0  0  0
  5 12  1  0  0  0  0
  6 13  1  0  0  0  0
  6 19  1  0  0  0  0
  7 19  1  0  0  0  0
  8 20  1  0  0  0  0
  9 14  1  0  0  0  0
 10 19  1  0  0  0  0
 11 20  1  0  0  0  0
 12 21  2  0  0  0  0
 13 14  1  0  0  0  0
 15 16  1  0  0  0  0
 15 17  2  0  0  0  0
 16 18  2  0  0  0  0
 17 21  1  0  0  0  0
 18 22  1  0  0  0  0
 20 22  2  0  0  0  0
 21 22  1  0  0  0  0
  4 23  1  0  0  0  0
  7 24  1  0  0  0  0
  7 25  1  0  0  0  0
  7 26  1  0  0  0  0
  8 27  1  0  0  0  0
  8 28  1  0  0  0  0
  8 29  1  0  0  0  0
  9 30  1  0  0  0  0
  9 31  1  0  0  0  0
 10 32  1  0  0  0  0
 10 33  1  0  0  0  0
 11 34  1  0  0  0  0
 12 35  1  0  0  0  0
 13 36  1  0  0  0  0
 13 37  1  0  0  0  0
 14 38  1  0  0  0  0
 14 39  1  0  0  0  0
 15 40  1  0  0  0  0
 16 41  1  0  0  0  0
 17 42  1  0  0  0  0
 19 43  1  0  0  0  0
  4 44  1  0  0  0  0
M  CHG  1   4   1
M  END
$$$$
5M6V_H52_A_401
prProtoss 06132322593D 1   1.00000     0.00000     0
Protoss beta proteinsplus
 44 46  0  0  0  0            999 V2000
  -13.4520  -25.0200   27.3180 S   0  0  0  0  0  0  0  0  0  0  0  0
  -14.0420  -25.4440   28.5460 O   0  0  0  0  0  0  0  0  0  0  0  0
  -12.8090  -25.9800   26.4750 O   0  0  0  0  0  0  0  0  0  0  0  0
   -9.8350  -21.8680   28.0250 N   0  3  0  0  0  0  0  0  0  0  0  0
  -17.3420  -26.2200   23.6370 N   0  0  0  0  0  0  0  0  0  0  0  0
  -12.3000  -23.9360   27.7150 N   0  0  0  0  0  0  0  0  0  0  0  0
  -11.2210  -22.7680   25.7850 C   0  0  0  0  0  0  0  0  0  0  0  0
  -15.2920  -27.3290   26.5720 C   0  0  0  0  0  0  0  0  0  0  0  0
  -10.6750  -21.4200   29.1750 C   0  0  0  0  0  0  0  0  0  0  0  0
   -9.8380  -23.3270   27.7210 C   0  0  0  0  0  0  0  0  0  0  0  0
  -16.6590  -26.9330   24.5320 C   0  0  0  0  0  0  0  0  0  0  0  0
  -17.2410  -24.9100   23.6910 C   0  0  0  0  0  0  0  0  0  0  0  0
  -12.5300  -23.1480   28.9420 C   0  0  0  0  0  0  0  0  0  0  0  0
  -12.1470  -21.6810   28.8930 C   0  0  0  0  0  0  0  0  0  0  0  0
  -15.4750  -22.1560   25.4420 C   0  0  0  0  0  0  0  0  0  0  0  0
  -14.6700  -22.8660   26.3150 C   0  0  0  0  0  0  0  0  0  0  0  0
  -16.3250  -22.8010   24.5990 C   0  0  0  0  0  0  0  0  0  0  0  0
  -14.7170  -24.2330   26.3500 C   0  0  0  0  0  0  0  0  0  0  0  0
  -11.0560  -23.7590   26.9230 C   0  0  1  0  0  0  0  0  0  0  0  0
  -15.8300  -26.4060   25.5090 C   0  0  0  0  0  0  0  0  0  0  0  0
  -16.4190  -24.2110   24.6080 C   0  0  0  0  0  0  0  0  0  0  0  0
  -15.6360  -24.9800   25.5290 C   0  0  0  0  0  0  0  0  0  0  0  0
   -8.8908  -21.6007   28.2174 H   0  0  0  0  0  0  0  0  0  0  0  0
  -10.3581  -22.6865   25.2862 H   0  0  0  0  0  0  0  0  0  0  0  0
  -11.9359  -23.0895   25.1640 H   0  0  0  0  0  0  0  0  0  0  0  0
  -11.4777  -21.8752   26.1551 H   0  0  0  0  0  0  0  0  0  0  0  0
  -14.7139  -26.8106   27.2021 H   0  0  0  0  0  0  0  0  0  0  0  0
  -16.0534  -27.7361   27.0765 H   0  0  0  0  0  0  0  0  0  0  0  0
  -14.7517  -28.0527   26.1427 H   0  0  0  0  0  0  0  0  0  0  0  0
  -10.5366  -20.4405   29.3217 H   0  0  0  0  0  0  0  0  0  0  0  0
  -10.4032  -21.9217   29.9962 H   0  0  0  0  0  0  0  0  0  0  0  0
   -9.8249  -23.8331   28.5833 H   0  0  0  0  0  0  0  0  0  0  0  0
   -9.0167  -23.5453   27.1939 H   0  0  0  0  0  0  0  0  0  0  0  0
  -16.7523  -27.9280   24.4955 H   0  0  0  0  0  0  0  0  0  0  0  0
  -17.7797  -24.3725   23.0423 H   0  0  0  0  0  0  0  0  0  0  0  0
  -12.0041  -23.5738   29.6783 H   0  0  0  0  0  0  0  0  0  0  0  0
  -13.5054  -23.1993   29.1563 H   0  0  0  0  0  0  0  0  0  0  0  0
  -12.3603  -21.3299   27.9813 H   0  0  0  0  0  0  0  0  0  0  0  0
  -12.6902  -21.1906   29.5745 H   0  0  0  0  0  0  0  0  0  0  0  0
  -15.4313  -21.1570   25.4308 H   0  0  0  0  0  0  0  0  0  0  0  0
  -14.0483  -22.3757   26.9258 H   0  0  0  0  0  0  0  0  0  0  0  0
  -16.8897  -22.2718   23.9658 H   0  0  0  0  0  0  0  0  0  0  0  0
  -10.8399  -24.6449   26.5127 H   0  0  0  0  0  0  0  0  0  0  0  0
  -10.1577  -21.3880   27.2092 H   0  0  0  0  0  0  0  0  0  0  0  0
  1  2  2  0  0  0  0
  1  3  2  0  0  0  0
  1  6  1  0  0  0  0
  1 18  1  0  0  0  0
  4  9  1  0  0  0  0
  4 10  1  0  0  0  0
  5 11  2  0  0  0  0
  5 12  1  0  0  0  0
  6 13  1  0  0  0  0
  6 19  1  0  0  0  0
  7 19  1  0  0  0  0
  8 20  1  0  0  0  0
  9 14  1  0  0  0  0
 10 19  1  0  0  0  0
 11 20  1  0  0  0  0
 12 21  2  0  0  0  0
 13 14  1  0  0  0  0
 15 16  1  0  0  0  0
 15 17  2  0  0  0  0
 16 18  2  0  0  0  0
 17 21  1  0  0  0  0
 18 22  1  0  0  0  0
 20 22  2  0  0  0  0
 21 22  1  0  0  0  0
  4 23  1  0  0  0  0
  7 24  1  0  0  0  0
  7 25  1  0  0  0  0
  7 26  1  0  0  0  0
  8 27  1  0  0  0  0
  8 28  1  0  0  0  0
  8 29  1  0  0  0  0
  9 30  1  0  0  0  0
  9 31  1  0  0  0  0
 10 32  1  0  0  0  0
 10 33  1  0  0  0  0
 11 34  1  0  0  0  0
 12 35  1  0  0  0  0
 13 36  1  0  0  0  0
 13 37  1  0  0  0  0
 14 38  1  0  0  0  0
 14 39  1  0  0  0  0
 15 40  1  0  0  0  0
 16 41  1  0  0  0  0
 17 42  1  0  0  0  0
 19 43  1  0  0  0  0
  4 44  1  0  0  0  0
M  CHG  1   4   1
M  END
$$$$
8SF8_ZWG_A_401
prProtoss 03132510163D 1   1.00000     0.00000     0
Protoss beta proteinsplus
 47 49  0  0  0  0            999 V2000
  -12.3770   11.0290   -4.1570 O   0  0  0  0  0  0  0  0  0  0  0  0
  -14.7940   10.2650   -3.5750 N   0  3  0  0  0  0  0  0  0  0  0  0
   -2.8120    9.8720   -2.5370 N   0  0  0  0  0  0  0  0  0  0  0  0
   -3.2300    9.8470   -4.9660 N   0  0  0  0  0  0  0  0  0  0  0  0
  -11.3350    9.8550   -2.4390 N   0  0  0  0  0  0  0  0  0  0  0  0
  -14.4100   11.9490    0.8810 C   0  0  0  0  0  0  0  0  0  0  0  0
  -12.2160   12.3820   -0.2880 C   0  0  0  0  0  0  0  0  0  0  0  0
   -3.5640    9.9470   -1.4500 C   0  0  0  0  0  0  0  0  0  0  0  0
   -4.1780    9.8880   -5.8770 C   0  0  0  0  0  0  0  0  0  0  0  0
   -4.8950   10.0360   -1.8090 C   0  0  0  0  0  0  0  0  0  0  0  0
   -5.5430    9.9870   -5.5200 C   0  0  0  0  0  0  0  0  0  0  0  0
   -8.9820    9.2470   -2.2550 C   0  0  0  0  0  0  0  0  0  0  0  0
   -9.6040   10.7070   -4.0550 C   0  0  0  0  0  0  0  0  0  0  0  0
   -7.6620    9.3130   -2.6940 C   0  0  0  0  0  0  0  0  0  0  0  0
   -8.2760   10.7750   -4.4800 C   0  0  0  0  0  0  0  0  0  0  0  0
  -14.1210   11.7250   -1.7120 C   0  0  0  0  0  0  0  0  0  0  0  0
  -12.4680   10.4820   -3.1130 C   0  0  0  0  0  0  0  0  0  0  0  0
   -3.5690    9.9130   -3.6440 C   0  0  0  0  0  0  0  0  0  0  0  0
  -13.8560   10.4160   -2.4890 C   0  0  2  0  0  0  0  0  0  0  0  0
  -13.5260   11.5930   -0.3160 C   0  0  0  0  0  0  0  0  0  0  0  0
   -9.9700    9.9220   -2.9490 C   0  0  0  0  0  0  0  0  0  0  0  0
   -7.2880   10.0950   -3.7870 C   0  0  0  0  0  0  0  0  0  0  0  0
   -4.8850   10.0090   -3.2310 C   0  0  0  0  0  0  0  0  0  0  0  0
   -5.9350   10.0630   -4.1870 C   0  0  0  0  0  0  0  0  0  0  0  0
  -14.4206   10.6901   -4.3995 H   0  0  0  0  0  0  0  0  0  0  0  0
  -14.9539    9.2925   -3.7445 H   0  0  0  0  0  0  0  0  0  0  0  0
   -1.8150    9.7952   -2.5335 H   0  0  0  0  0  0  0  0  0  0  0  0
  -11.5024    9.3565   -1.5884 H   0  0  0  0  0  0  0  0  0  0  0  0
  -15.2578   11.4204    0.8382 H   0  0  0  0  0  0  0  0  0  0  0  0
  -13.9255   11.7339    1.7289 H   0  0  0  0  0  0  0  0  0  0  0  0
  -14.6245   12.9255    0.8582 H   0  0  0  0  0  0  0  0  0  0  0  0
  -11.6586   12.1308   -1.0793 H   0  0  0  0  0  0  0  0  0  0  0  0
  -12.4160   13.3613   -0.3185 H   0  0  0  0  0  0  0  0  0  0  0  0
  -11.7169   12.1697    0.5522 H   0  0  0  0  0  0  0  0  0  0  0  0
   -3.2204    9.9402   -0.5109 H   0  0  0  0  0  0  0  0  0  0  0  0
   -3.9278    9.8483   -6.8444 H   0  0  0  0  0  0  0  0  0  0  0  0
   -5.6884   10.1042   -1.2041 H   0  0  0  0  0  0  0  0  0  0  0  0
   -6.2387   10.0027   -6.2382 H   0  0  0  0  0  0  0  0  0  0  0  0
   -9.2146    8.7139   -1.4415 H   0  0  0  0  0  0  0  0  0  0  0  0
  -10.3052   11.2248   -4.5452 H   0  0  0  0  0  0  0  0  0  0  0  0
   -6.9626    8.7850   -2.2122 H   0  0  0  0  0  0  0  0  0  0  0  0
   -8.0374   11.3159   -5.2866 H   0  0  0  0  0  0  0  0  0  0  0  0
  -15.1062   11.8827   -1.6444 H   0  0  0  0  0  0  0  0  0  0  0  0
  -13.6926   12.4923   -2.1893 H   0  0  0  0  0  0  0  0  0  0  0  0
  -13.9174    9.6320   -1.8712 H   0  0  0  0  0  0  0  0  0  0  0  0
  -13.2773   10.6307   -0.2059 H   0  0  0  0  0  0  0  0  0  0  0  0
  -15.6575   10.7077   -3.3336 H   0  0  0  0  0  0  0  0  0  0  0  0
  1 17  2  0  0  0  0
  2 19  1  0  0  0  0
  3  8  1  0  0  0  0
  3 18  1  0  0  0  0
  4  9  2  0  0  0  0
  4 18  1  0  0  0  0
  5 17  1  0  0  0  0
  5 21  1  0  0  0  0
  6 20  1  0  0  0  0
  7 20  1  0  0  0  0
  8 10  2  0  0  0  0
  9 11  1  0  0  0  0
 10 23  1  0  0  0  0
 11 24  2  0  0  0  0
 12 14  1  0  0  0  0
 12 21  2  0  0  0  0
 13 15  2  0  0  0  0
 13 21  1  0  0  0  0
 14 22  2  0  0  0  0
 15 22  1  0  0  0  0
 16 19  1  0  0  0  0
 16 20  1  0  0  0  0
 17 19  1  0  0  0  0
 18 23  2  0  0  0  0
 22 24  1  0  0  0  0
 23 24  1  0  0  0  0
  2 25  1  0  0  0  0
  2 26  1  0  0  0  0
  3 27  1  0  0  0  0
  5 28  1  0  0  0  0
  6 29  1  0  0  0  0
  6 30  1  0  0  0  0
  6 31  1  0  0  0  0
  7 32  1  0  0  0  0
  7 33  1  0  0  0  0
  7 34  1  0  0  0  0
  8 35  1  0  0  0  0
  9 36  1  0  0  0  0
 10 37  1  0  0  0  0
 11 38  1  0  0  0  0
 12 39  1  0  0  0  0
 13 40  1  0  0  0  0
 14 41  1  0  0  0  0
 15 42  1  0  0  0  0
 16 43  1  0  0  0  0
 16 44  1  0  0  0  0
 19 45  1  0  0  0  0
 20 46  1  0  0  0  0
  2 47  1  0  0  0  0
M  CHG  1   2   1
M  END
$$$$
5VHB_9CY_A_401
prProtoss 05262316013D 1   1.00000     0.00000     0
Protoss beta proteinsplus
 45 47  0  0  0  0            999 V2000
  -24.0590    7.9250    0.9650 O   0  0  0  0  0  0  0  0  0  0  0  0
  -26.0790    9.9910   -1.1170 O   0  0  0  0  0  0  0  0  0  0  0  0
  -33.7670    9.9650    4.1100 N   0  0  0  0  0  0  0  0  0  0  0  0
  -25.0080   10.4470    0.9040 N   0  0  0  0  0  0  0  0  0  0  0  0
  -23.1110    8.9650    1.1160 C   0  0  0  0  0  0  0  0  0  0  0  0
  -33.6470    9.8850    2.7600 C   0  0  0  0  0  0  0  0  0  0  0  0
  -32.6390   10.1380    4.8290 C   0  0  0  0  0  0  0  0  0  0  0  0
  -22.9120   15.0550   -1.1410 C   0  0  0  0  0  0  0  0  0  0  0  0
  -23.6990   14.8610   -0.0230 C   0  0  0  0  0  0  0  0  0  0  0  0
  -22.1070   14.0200   -1.5910 C   0  0  0  0  0  0  0  0  0  0  0  0
  -32.4310    9.9520    2.0850 C   0  0  0  0  0  0  0  0  0  0  0  0
  -31.3660   10.2560    4.2260 C   0  0  0  0  0  0  0  0  0  0  0  0
  -23.6540   13.6710    0.6780 C   0  0  0  0  0  0  0  0  0  0  0  0
  -22.0900   12.8120   -0.9290 C   0  0  0  0  0  0  0  0  0  0  0  0
  -28.5860   10.6280    0.1340 C   0  0  0  0  0  0  0  0  0  0  0  0
  -27.5520    9.7820    2.1470 C   0  0  0  0  0  0  0  0  0  0  0  0
  -29.8250   10.6360    0.8080 C   0  0  0  0  0  0  0  0  0  0  0  0
  -28.7630    9.7890    2.8100 C   0  0  0  0  0  0  0  0  0  0  0  0
  -22.6930   11.4190    0.9940 C   0  0  0  0  0  0  0  0  0  0  0  0
  -26.1390   10.1540    0.1010 C   0  0  0  0  0  0  0  0  0  0  0  0
  -23.6030   10.2810    0.4590 C   0  0  2  0  0  0  0  0  0  0  0  0
  -22.8390   12.6320    0.2150 C   0  0  0  0  0  0  0  0  0  0  0  0
  -27.4550   10.2030    0.8140 C   0  0  0  0  0  0  0  0  0  0  0  0
  -31.2590   10.1510    2.8310 C   0  0  0  0  0  0  0  0  0  0  0  0
  -29.9250   10.2120    2.1380 C   0  0  0  0  0  0  0  0  0  0  0  0
  -23.8752    7.4269    0.1176 H   0  0  0  0  0  0  0  0  0  0  0  0
  -25.1679   10.7877    1.8305 H   0  0  0  0  0  0  0  0  0  0  0  0
  -22.2525    8.6875    0.6848 H   0  0  0  0  0  0  0  0  0  0  0  0
  -22.9575    9.1260    2.0910 H   0  0  0  0  0  0  0  0  0  0  0  0
  -34.4803    9.7714    2.2190 H   0  0  0  0  0  0  0  0  0  0  0  0
  -32.7058   10.1845    5.8257 H   0  0  0  0  0  0  0  0  0  0  0  0
  -22.9227   15.9324   -1.6207 H   0  0  0  0  0  0  0  0  0  0  0  0
  -24.3095   15.5913    0.2834 H   0  0  0  0  0  0  0  0  0  0  0  0
  -21.5353   14.1510   -2.4009 H   0  0  0  0  0  0  0  0  0  0  0  0
  -32.3936    9.8603    1.0899 H   0  0  0  0  0  0  0  0  0  0  0  0
  -30.5525   10.4122    4.7862 H   0  0  0  0  0  0  0  0  0  0  0  0
  -24.1987   13.5534    1.5083 H   0  0  0  0  0  0  0  0  0  0  0  0
  -21.5310   12.0608   -1.2802 H   0  0  0  0  0  0  0  0  0  0  0  0
  -28.5243   10.9242   -0.8191 H   0  0  0  0  0  0  0  0  0  0  0  0
  -26.7308    9.4715    2.6258 H   0  0  0  0  0  0  0  0  0  0  0  0
  -30.6445   10.9494    0.3282 H   0  0  0  0  0  0  0  0  0  0  0  0
  -28.8143    9.4946    3.7643 H   0  0  0  0  0  0  0  0  0  0  0  0
  -21.7400   11.1191    0.9515 H   0  0  0  0  0  0  0  0  0  0  0  0
  -22.9396   11.6120    1.9437 H   0  0  0  0  0  0  0  0  0  0  0  0
  -23.5502   10.2223   -0.5379 H   0  0  0  0  0  0  0  0  0  0  0  0
  1  5  1  0  0  0  0
  2 20  2  0  0  0  0
  3  6  2  0  0  0  0
  3  7  1  0  0  0  0
  4 20  1  0  0  0  0
  4 21  1  0  0  0  0
  5 21  1  0  0  0  0
  6 11  1  0  0  0  0
  7 12  2  0  0  0  0
  8  9  2  0  0  0  0
  8 10  1  0  0  0  0
  9 13  1  0  0  0  0
 10 14  2  0  0  0  0
 11 24  2  0  0  0  0
 12 24  1  0  0  0  0
 13 22  2  0  0  0  0
 14 22  1  0  0  0  0
 15 17  1  0  0  0  0
 15 23  2  0  0  0  0
 16 18  2  0  0  0  0
 16 23  1  0  0  0  0
 17 25  2  0  0  0  0
 18 25  1  0  0  0  0
 19 21  1  0  0  0  0
 19 22  1  0  0  0  0
 20 23  1  0  0  0  0
 24 25  1  0  0  0  0
  1 26  1  0  0  0  0
  4 27  1  0  0  0  0
  5 28  1  0  0  0  0
  5 29  1  0  0  0  0
  6 30  1  0  0  0  0
  7 31  1  0  0  0  0
  8 32  1  0  0  0  0
  9 33  1  0  0  0  0
 10 34  1  0  0  0  0
 11 35  1  0  0  0  0
 12 36  1  0  0  0  0
 13 37  1  0  0  0  0
 14 38  1  0  0  0  0
 15 39  1  0  0  0  0
 16 40  1  0  0  0  0
 17 41  1  0  0  0  0
 18 42  1  0  0  0  0
 19 43  1  0  0  0  0
 19 44  1  0  0  0  0
 21 45  1  0  0  0  0
M  END
$$$$
4UJB_8BQ_A_1351
prProtoss 06132321393D 1   1.00000     0.00000     0
Protoss beta proteinsplus
 39 42  0  0  0  0            999 V2000
  -23.3420   10.8370   -1.7070 F   0  0  0  0  0  0  0  0  0  0  0  0
  -32.9770   10.2600    4.5960 O   0  0  0  0  0  0  0  0  0  0  0  0
  -25.4760   11.6320    3.7780 O   0  0  0  0  0  0  0  0  0  0  0  0
  -25.0990    7.3530    3.1610 N   0  0  0  0  0  0  0  0  0  0  0  0
  -32.9430    9.9730    2.3370 N   0  0  0  0  0  0  0  0  0  0  0  0
  -30.7740    9.5070    1.1970 N   0  0  0  0  0  0  0  0  0  0  0  0
  -32.2000    9.7100    1.1320 C   0  0  0  0  0  0  0  0  0  0  0  0
  -23.1690   13.4880    0.6890 C   0  0  0  0  0  0  0  0  0  0  0  0
  -24.4980    8.4170    2.6920 C   0  0  0  0  0  0  0  0  0  0  0  0
  -26.5110    7.8130    3.7330 C   0  0  0  0  0  0  0  0  0  0  0  0
  -22.9880   12.7420   -0.5110 C   0  0  0  0  0  0  0  0  0  0  0  0
  -23.8720   12.9050    1.7500 C   0  0  0  0  0  0  0  0  0  0  0  0
  -28.7630    9.7110    4.9610 C   0  0  0  0  0  0  0  0  0  0  0  0
  -30.1190    9.8980    4.9090 C   0  0  0  0  0  0  0  0  0  0  0  0
  -24.2180   10.9190    0.4740 C   0  0  0  0  0  0  0  0  0  0  0  0
  -28.7090    9.3850    2.5460 C   0  0  0  0  0  0  0  0  0  0  0  0
  -23.4940   11.5220   -0.6120 C   0  0  0  0  0  0  0  0  0  0  0  0
  -32.3140   10.0410    3.5800 C   0  0  0  0  0  0  0  0  0  0  0  0
  -25.1700   10.9690    2.7570 C   0  0  0  0  0  0  0  0  0  0  0  0
  -30.1160    9.5770    2.4900 C   0  0  0  0  0  0  0  0  0  0  0  0
  -24.3880   11.6220    1.6270 C   0  0  0  0  0  0  0  0  0  0  0  0
  -28.0530    9.4390    3.7460 C   0  0  0  0  0  0  0  0  0  0  0  0
  -30.8150    9.8340    3.6540 C   0  0  0  0  0  0  0  0  0  0  0  0
  -25.6390    9.5170    2.5790 C   0  0  2  0  0  0  0  0  0  0  0  0
  -26.5090    9.1800    3.7480 C   0  0  2  0  0  0  0  0  0  0  0  0
  -33.9320   10.1099    2.2814 H   0  0  0  0  0  0  0  0  0  0  0  0
  -32.6722    9.6682    0.2515 H   0  0  0  0  0  0  0  0  0  0  0  0
  -22.7997   14.4136    0.7722 H   0  0  0  0  0  0  0  0  0  0  0  0
  -23.5313    8.5160    2.4562 H   0  0  0  0  0  0  0  0  0  0  0  0
  -26.6380    7.4594    4.6597 H   0  0  0  0  0  0  0  0  0  0  0  0
  -27.2462    7.4769    3.1443 H   0  0  0  0  0  0  0  0  0  0  0  0
  -22.4800   13.1385   -1.2756 H   0  0  0  0  0  0  0  0  0  0  0  0
  -24.0031   13.4149    2.6002 H   0  0  0  0  0  0  0  0  0  0  0  0
  -28.2761    9.7634    5.8329 H   0  0  0  0  0  0  0  0  0  0  0  0
  -30.6278   10.0803    5.7503 H   0  0  0  0  0  0  0  0  0  0  0  0
  -24.5915    9.9958    0.3835 H   0  0  0  0  0  0  0  0  0  0  0  0
  -28.1963    9.2098    1.7055 H   0  0  0  0  0  0  0  0  0  0  0  0
  -26.1446    9.4130    1.7225 H   0  0  0  0  0  0  0  0  0  0  0  0
  -26.1001    9.5184    4.5955 H   0  0  0  0  0  0  0  0  0  0  0  0
  1 17  1  0  0  0  0
  2 18  2  0  0  0  0
  3 19  2  0  0  0  0
  4  9  2  0  0  0  0
  4 10  1  0  0  0  0
  5  7  1  0  0  0  0
  5 18  1  0  0  0  0
  6  7  2  0  0  0  0
  6 20  1  0  0  0  0
  8 11  2  0  0  0  0
  8 12  1  0  0  0  0
  9 24  1  0  0  0  0
 10 25  1  0  0  0  0
 11 17  1  0  0  0  0
 12 21  2  0  0  0  0
 13 14  1  0  0  0  0
 13 22  2  0  0  0  0
 14 23  2  0  0  0  0
 15 17  2  0  0  0  0
 15 21  1  0  0  0  0
 16 20  2  0  0  0  0
 16 22  1  0  0  0  0
 18 23  1  0  0  0  0
 19 21  1  0  0  0  0
 19 24  1  0  0  0  0
 20 23  1  0  0  0  0
 22 25  1  0  0  0  0
 24 25  1  0  0  0  0
  5 26  1  0  0  0  0
  7 27  1  0  0  0  0
  8 28  1  0  0  0  0
  9 29  1  0  0  0  0
 10 30  1  0  0  0  0
 10 31  1  0  0  0  0
 11 32  1  0  0  0  0
 12 33  1  0  0  0  0
 13 34  1  0  0  0  0
 14 35  1  0  0  0  0
 15 36  1  0  0  0  0
 16 37  1  0  0  0  0
 24 38  1  0  0  0  0
 25 39  1  0  0  0  0
M  END
$$$$
4UJB_MPD_A_1352
prProtoss 06132321393D 1   1.00000     0.00000     0
Protoss beta proteinsplus
 22 21  0  0  0  0            999 V2000
  -26.3280    5.3890   16.9320 O   0  0  0  0  0  0  0  0  0  0  0  0
  -28.3050    4.1400   18.2720 O   0  0  0  0  0  0  0  0  0  0  0  0
  -27.1560    7.1160   15.5780 C   0  0  0  0  0  0  0  0  0  0  0  0
  -28.3800    2.7180   16.3750 C   0  0  0  0  0  0  0  0  0  0  0  0
  -30.3940    3.8940   17.1890 C   0  0  0  0  0  0  0  0  0  0  0  0
  -28.5820    5.1840   16.1230 C   0  0  0  0  0  0  0  0  0  0  0  0
  -27.4990    6.1070   16.6450 C   0  0  1  0  0  0  0  0  0  0  0  0
  -28.8980    3.9950   17.0090 C   0  0  0  0  0  0  0  0  0  0  0  0
  -25.7544    5.3461   16.1140 H   0  0  0  0  0  0  0  0  0  0  0  0
  -27.4531    4.6561   18.1830 H   0  0  0  0  0  0  0  0  0  0  0  0
  -27.9710    7.6479   15.3479 H   0  0  0  0  0  0  0  0  0  0  0  0
  -26.4422    7.7293   15.9163 H   0  0  0  0  0  0  0  0  0  0  0  0
  -26.8274    6.6399   14.7623 H   0  0  0  0  0  0  0  0  0  0  0  0
  -28.7950    2.6017   15.4727 H   0  0  0  0  0  0  0  0  0  0  0  0
  -27.3860    2.7723   16.2802 H   0  0  0  0  0  0  0  0  0  0  0  0
  -28.6175    1.9382   16.9542 H   0  0  0  0  0  0  0  0  0  0  0  0
  -30.8310    3.7901   16.2955 H   0  0  0  0  0  0  0  0  0  0  0  0
  -30.6083    3.1009   17.7592 H   0  0  0  0  0  0  0  0  0  0  0  0
  -30.7333    4.7241   17.6315 H   0  0  0  0  0  0  0  0  0  0  0  0
  -28.2898    4.8369   15.2318 H   0  0  0  0  0  0  0  0  0  0  0  0
  -29.4192    5.7198   16.0139 H   0  0  0  0  0  0  0  0  0  0  0  0
  -27.8199    6.5771   17.4672 H   0  0  0  0  0  0  0  0  0  0  0  0
  1  7  1  0  0  0  0
  2  8  1  0  0  0  0
  3  7  1  0  0  0  0
  4  8  1  0  0  0  0
  5  8  1  0  0  0  0
  6  7  1  0  0  0  0
  6  8  1  0  0  0  0
  1  9  1  0  0  0  0
  2 10  1  0  0  0  0
  3 11  1  0  0  0  0
  3 12  1  0  0  0  0
  3 13  1  0  0  0  0
  4 14  1  0  0  0  0
  4 15  1  0  0  0  0
  4 16  1  0  0  0  0
  5 17  1  0  0  0  0
  5 18  1  0  0  0  0
  5 19  1  0  0  0  0
  6 20  1  0  0  0  0
  6 21  1  0  0  0  0
  7 22  1  0  0  0  0
M  END
$$$$
4UJB_MPD_B_1025
prProtoss 06132321393D 1   1.00000     0.00000     0
Protoss beta proteinsplus
 22 21  0  0  0  0            999 V2000
  -20.1340  -12.6000   20.3310 O   0  0  0  0  0  0  0  0  0  0  0  0
  -22.0740  -10.4000   18.3480 O   0  0  0  0  0  0  0  0  0  0  0  0
  -19.2110  -10.6140   21.2750 C   0  0  0  0  0  0  0  0  0  0  0  0
  -20.9270  -12.2820   17.3770 C   0  0  0  0  0  0  0  0  0  0  0  0
  -20.4820   -9.9890   16.6310 C   0  0  0  0  0  0  0  0  0  0  0  0
  -19.7570  -10.7220   18.8890 C   0  0  0  0  0  0  0  0  0  0  0  0
  -20.1780  -11.1910   20.2670 C   0  0  1  0  0  0  0  0  0  0  0  0
  -20.8390  -10.8410   17.8320 C   0  0  0  0  0  0  0  0  0  0  0  0
  -19.4409  -12.9410   19.6959 H   0  0  0  0  0  0  0  0  0  0  0  0
  -21.9916   -9.4476   18.6415 H   0  0  0  0  0  0  0  0  0  0  0  0
  -19.2405   -9.6154   21.2314 H   0  0  0  0  0  0  0  0  0  0  0  0
  -19.4676  -10.9153   22.1934 H   0  0  0  0  0  0  0  0  0  0  0  0
  -18.2851  -10.9295   21.0672 H   0  0  0  0  0  0  0  0  0  0  0  0
  -20.0409  -12.5721   17.0156 H   0  0  0  0  0  0  0  0  0  0  0  0
  -21.1767  -12.8618   18.1526 H   0  0  0  0  0  0  0  0  0  0  0  0
  -21.6216  -12.3641   16.6623 H   0  0  0  0  0  0  0  0  0  0  0  0
  -19.6064  -10.2926   16.2554 H   0  0  0  0  0  0  0  0  0  0  0  0
  -21.1933  -10.0805   15.9341 H   0  0  0  0  0  0  0  0  0  0  0  0
  -20.4107   -9.0316   16.9108 H   0  0  0  0  0  0  0  0  0  0  0  0
  -18.9728  -11.2698   18.5976 H   0  0  0  0  0  0  0  0  0  0  0  0
  -19.4868   -9.7614   18.9540 H   0  0  0  0  0  0  0  0  0  0  0  0
  -21.1047  -10.8716   20.4652 H   0  0  0  0  0  0  0  0  0  0  0  0
  1  7  1  0  0  0  0
  2  8  1  0  0  0  0
  3  7  1  0  0  0  0
  4  8  1  0  0  0  0
  5  8  1  0  0  0  0
  6  7  1  0  0  0  0
  6  8  1  0  0  0  0
  1  9  1  0  0  0  0
  2 10  1  0  0  0  0
  3 11  1  0  0  0  0
  3 12  1  0  0  0  0
  3 13  1  0  0  0  0
  4 14  1  0  0  0  0
  4 15  1  0  0  0  0
  4 16  1  0  0  0  0
  5 17  1  0  0  0  0
  5 18  1  0  0  0  0
  5 19  1  0  0  0  0
  6 20  1  0  0  0  0
  6 21  1  0  0  0  0
  7 22  1  0  0  0  0
M  END
$$$$
6EH3_B4Z_A_401
prProtoss 06142313273D 1   1.00000     0.00000     0
Protoss beta proteinsplus
 44 46  0  0  0  0            999 V2000
  -13.7730  -25.1100   27.4880 S   0  0  0  0  0  0  0  0  0  0  0  0
  -13.2130  -26.2100   26.7670 O   0  0  0  0  0  0  0  0  0  0  0  0
  -14.4070  -25.3470   28.7490 O   0  0  0  0  0  0  0  0  0  0  0  0
  -12.5970  -24.0330   27.7360 N   0  0  0  0  0  0  0  0  0  0  0  0
   -9.6630  -24.3330   27.5910 N   0  3  0  0  0  0  0  0  0  0  0  0
  -17.4220  -26.2800   23.6470 N   0  0  0  0  0  0  0  0  0  0  0  0
  -11.7910  -23.5190   26.6160 C   0  0  0  0  0  0  0  0  0  0  0  0
  -10.4900  -24.2580   26.3820 C   0  0  0  0  0  0  0  0  0  0  0  0
  -16.6540  -26.9740   24.5000 C   0  0  0  0  0  0  0  0  0  0  0  0
   -6.0230  -23.3370   30.9510 C   0  0  0  0  0  0  0  0  0  0  0  0
   -5.7060  -23.1340   29.6310 C   0  0  0  0  0  0  0  0  0  0  0  0
   -7.3500  -23.4270   31.3400 C   0  0  0  0  0  0  0  0  0  0  0  0
  -15.7890  -22.1870   25.6530 C   0  0  0  0  0  0  0  0  0  0  0  0
   -9.1290  -23.0340   27.9990 C   0  0  0  0  0  0  0  0  0  0  0  0
  -17.4010  -24.9590   23.7430 C   0  0  0  0  0  0  0  0  0  0  0  0
  -14.9420  -22.9100   26.4810 C   0  0  0  0  0  0  0  0  0  0  0  0
   -6.7130  -23.0200   28.6900 C   0  0  0  0  0  0  0  0  0  0  0  0
   -8.3980  -23.3120   30.4140 C   0  0  0  0  0  0  0  0  0  0  0  0
  -16.6120  -22.8270   24.7690 C   0  0  0  0  0  0  0  0  0  0  0  0
  -15.8470  -26.4060   25.4430 C   0  0  0  0  0  0  0  0  0  0  0  0
  -14.9330  -24.2790   26.4390 C   0  0  0  0  0  0  0  0  0  0  0  0
   -8.0550  -23.1150   29.0590 C   0  0  0  0  0  0  0  0  0  0  0  0
  -16.6250  -24.2420   24.6830 C   0  0  0  0  0  0  0  0  0  0  0  0
  -15.7920  -24.9980   25.5490 C   0  0  0  0  0  0  0  0  0  0  0  0
  -13.0253  -23.2384   28.1663 H   0  0  0  0  0  0  0  0  0  0  0  0
   -8.8971  -24.9516   27.4154 H   0  0  0  0  0  0  0  0  0  0  0  0
  -11.5758  -22.5602   26.8013 H   0  0  0  0  0  0  0  0  0  0  0  0
  -12.3397  -23.5824   25.7824 H   0  0  0  0  0  0  0  0  0  0  0  0
  -10.6990  -25.1874   26.0780 H   0  0  0  0  0  0  0  0  0  0  0  0
   -9.9743  -23.7823   25.6694 H   0  0  0  0  0  0  0  0  0  0  0  0
  -16.6739  -27.9721   24.4413 H   0  0  0  0  0  0  0  0  0  0  0  0
   -5.2958  -23.4200   31.6324 H   0  0  0  0  0  0  0  0  0  0  0  0
   -4.7485  -23.0686   29.3502 H   0  0  0  0  0  0  0  0  0  0  0  0
   -7.5661  -23.5777   32.3047 H   0  0  0  0  0  0  0  0  0  0  0  0
  -15.7973  -21.1883   25.7035 H   0  0  0  0  0  0  0  0  0  0  0  0
   -9.8827  -22.4828   28.3568 H   0  0  0  0  0  0  0  0  0  0  0  0
   -8.7419  -22.5862   27.1930 H   0  0  0  0  0  0  0  0  0  0  0  0
  -17.9707  -24.4349   23.1099 H   0  0  0  0  0  0  0  0  0  0  0  0
  -14.3343  -22.4284   27.1124 H   0  0  0  0  0  0  0  0  0  0  0  0
   -6.4756  -22.8672   27.7307 H   0  0  0  0  0  0  0  0  0  0  0  0
   -9.3535  -23.3676   30.7036 H   0  0  0  0  0  0  0  0  0  0  0  0
  -17.2122  -22.2906   24.1757 H   0  0  0  0  0  0  0  0  0  0  0  0
  -15.3004  -26.9803   26.0525 H   0  0  0  0  0  0  0  0  0  0  0  0
  -10.2210  -24.6967   28.3368 H   0  0  0  0  0  0  0  0  0  0  0  0
  1  2  2  0  0  0  0
  1  3  2  0  0  0  0
  1  4  1  0  0  0  0
  1 21  1  0  0  0  0
  4  7  1  0  0  0  0
  5  8  1  0  0  0  0
  5 14  1  0  0  0  0
  6  9  2  0  0  0  0
  6 15  1  0  0  0  0
  7  8  1  0  0  0  0
  9 20  1  0  0  0  0
 10 11  2  0  0  0  0
 10 12  1  0  0  0  0
 11 17  1  0  0  0  0
 12 18  2  0  0  0  0
 13 16  1  0  0  0  0
 13 19  2  0  0  0  0
 14 22  1  0  0  0  0
 15 23  2  0  0  0  0
 16 21  2  0  0  0  0
 17 22  2  0  0  0  0
 18 22  1  0  0  0  0
 19 23  1  0  0  0  0
 20 24  2  0  0  0  0
 21 24  1  0  0  0  0
 23 24  1  0  0  0  0
  4 25  1  0  0  0  0
  5 26  1  0  0  0  0
  7 27  1  0  0  0  0
  7 28  1  0  0  0  0
  8 29  1  0  0  0  0
  8 30  1  0  0  0  0
  9 31  1  0  0  0  0
 10 32  1  0  0  0  0
 11 33  1  0  0  0  0
 12 34  1  0  0  0  0
 13 35  1  0  0  0  0
 14 36  1  0  0  0  0
 14 37  1  0  0  0  0
 15 38  1  0  0  0  0
 16 39  1  0  0  0  0
 17 40  1  0  0  0  0
 18 41  1  0  0  0  0
 19 42  1  0  0  0  0
 20 43  1  0  0  0  0
  5 44  1  0  0  0  0
M  CHG  1   5   1
M  END
$$$$
2VO0_CL_A_1351
prProtoss 05262315203D 1   1.00000     0.00000     0
Protoss beta proteinsplus
  1  0  0  0  0  0            999 V2000
    7.8830    9.2950   -1.6440 Cl  0  5  0  0  0  0  0  0  0  0  0  0
M  CHG  1   1  -1
M  END
$$$$
2VO0_MRD_A_1352
prProtoss 05262315203D 1   1.00000     0.00000     0
Protoss beta proteinsplus
 22 21  0  0  0  0            999 V2000
    8.4910   23.4590    8.3010 O   0  0  0  0  0  0  0  0  0  0  0  0
    4.4990   23.6780   10.1260 O   0  0  0  0  0  0  0  0  0  0  0  0
    7.6680   24.8200    6.5400 C   0  0  0  0  0  0  0  0  0  0  0  0
    6.3590   22.2750    9.9130 C   0  0  0  0  0  0  0  0  0  0  0  0
    6.5320   24.4230   11.1440 C   0  0  0  0  0  0  0  0  0  0  0  0
    6.2640   24.5220    8.6520 C   0  0  0  0  0  0  0  0  0  0  0  0
    7.2780   23.8830    7.6800 C   0  0  2  0  0  0  0  0  0  0  0  0
    5.9240   23.7280    9.9300 C   0  0  0  0  0  0  0  0  0  0  0  0
    8.5655   22.4635    8.2418 H   0  0  0  0  0  0  0  0  0  0  0  0
    4.1328   24.6083   10.1489 H   0  0  0  0  0  0  0  0  0  0  0  0
    6.8427   25.1418    6.0759 H   0  0  0  0  0  0  0  0  0  0  0  0
    8.1698   25.6025    6.9086 H   0  0  0  0  0  0  0  0  0  0  0  0
    8.2470   24.3295    5.8887 H   0  0  0  0  0  0  0  0  0  0  0  0
    7.3488   22.2249    9.7793 H   0  0  0  0  0  0  0  0  0  0  0  0
    6.1179   21.8447   10.7829 H   0  0  0  0  0  0  0  0  0  0  0  0
    5.8971   21.7975    9.1656 H   0  0  0  0  0  0  0  0  0  0  0  0
    7.5250   24.4731   11.0368 H   0  0  0  0  0  0  0  0  0  0  0  0
    6.1580   25.3472   11.2210 H   0  0  0  0  0  0  0  0  0  0  0  0
    6.3116   23.9043   11.9701 H   0  0  0  0  0  0  0  0  0  0  0  0
    5.4115   24.6634    8.1488 H   0  0  0  0  0  0  0  0  0  0  0  0
    6.6342   25.4065    8.9358 H   0  0  0  0  0  0  0  0  0  0  0  0
    6.8454   23.0769    7.2763 H   0  0  0  0  0  0  0  0  0  0  0  0
  1  7  1  0  0  0  0
  2  8  1  0  0  0  0
  3  7  1  0  0  0  0
  4  8  1  0  0  0  0
  5  8  1  0  0  0  0
  6  7  1  0  0  0  0
  6  8  1  0  0  0  0
  1  9  1  0  0  0  0
  2 10  1  0  0  0  0
  3 11  1  0  0  0  0
  3 12  1  0  0  0  0
  3 13  1  0  0  0  0
  4 14  1  0  0  0  0
  4 15  1  0  0  0  0
  4 16  1  0  0  0  0
  5 17  1  0  0  0  0
  5 18  1  0  0  0  0
  5 19  1  0  0  0  0
  6 20  1  0  0  0  0
  6 21  1  0  0  0  0
  7 22  1  0  0  0  0
M  END
$$$$
2VO0_EDO_A_1353
prProtoss 05262315203D 1   1.00000     0.00000     0
Protoss beta proteinsplus
 10  9  0  0  0  0            999 V2000
   20.2770  -19.9340   13.2560 O   0  0  0  0  0  0  0  0  0  0  0  0
   19.2460  -17.6910   14.9100 O   0  0  0  0  0  0  0  0  0  0  0  0
   21.0480  -19.0130   14.0030 C   0  0  0  0  0  0  0  0  0  0  0  0
   20.3630  -17.6710   14.0290 C   0  0  0  0  0  0  0  0  0  0  0  0
   20.8153  -20.2695   12.4829 H   0  0  0  0  0  0  0  0  0  0  0  0
   19.5548  -17.9133   15.8348 H   0  0  0  0  0  0  0  0  0  0  0  0
   21.9496  -18.9167   13.5812 H   0  0  0  0  0  0  0  0  0  0  0  0
   21.1520  -19.3501   14.9387 H   0  0  0  0  0  0  0  0  0  0  0  0
   21.0129  -16.9771   14.3392 H   0  0  0  0  0  0  0  0  0  0  0  0
   20.0492  -17.4452   13.1068 H   0  0  0  0  0  0  0  0  0  0  0  0
  1  3  1  0  0  0  0
  2  4  1  0  0  0  0
  3  4  1  0  0  0  0
  1  5  1  0  0  0  0
  2  6  1  0  0  0  0
  3  7  1  0  0  0  0
  3  8  1  0  0  0  0
  4  9  1  0  0  0  0
  4 10  1  0  0  0  0
M  END
$$$$
2VO0_M03_A_1354
prProtoss 05262315203D 1   1.00000     0.00000     0
Protoss beta proteinsplus
 45 48  0  0  0  0            999 V2000
   13.2480   12.9730    1.5830 Cl  0  0  0  0  0  0  0  0  0  0  0  0
   11.2310    6.7980    2.3900 N   0  3  0  0  0  0  0  0  0  0  0  0
    2.7460    9.2140    3.8380 N   0  0  0  0  0  0  0  0  0  0  0  0
    5.0070    9.6250    4.5530 N   0  0  0  0  0  0  0  0  0  0  0  0
    2.4810    8.9470    1.4610 N   0  0  0  0  0  0  0  0  0  0  0  0
    6.8490    9.6780    3.1540 N   0  0  0  0  0  0  0  0  0  0  0  0
    3.6920    9.4710    4.7420 C   0  0  0  0  0  0  0  0  0  0  0  0
   10.2950    7.1520    3.4950 C   0  0  0  0  0  0  0  0  0  0  0  0
    3.3010    8.9590    0.3880 C   0  0  0  0  0  0  0  0  0  0  0  0
    7.5460    9.3150    1.9200 C   0  0  0  0  0  0  0  0  0  0  0  0
    7.7950   10.0140    4.2370 C   0  0  0  0  0  0  0  0  0  0  0  0
   12.1330   11.2490    3.3530 C   0  0  0  0  0  0  0  0  0  0  0  0
   11.4470   11.0070    1.0680 C   0  0  0  0  0  0  0  0  0  0  0  0
    4.5910    9.1690    0.8240 C   0  0  0  0  0  0  0  0  0  0  0  0
   11.2720   10.2330    3.7250 C   0  0  0  0  0  0  0  0  0  0  0  0
   10.5930    9.9770    1.4360 C   0  0  0  0  0  0  0  0  0  0  0  0
    8.4710    8.1470    2.1620 C   0  0  0  0  0  0  0  0  0  0  0  0
    8.7550    8.8600    4.4950 C   0  0  0  0  0  0  0  0  0  0  0  0
   12.2150   11.6490    2.0270 C   0  0  0  0  0  0  0  0  0  0  0  0
    3.2230    9.1500    2.5950 C   0  0  0  0  0  0  0  0  0  0  0  0
    5.4750    9.5270    3.2970 C   0  0  0  0  0  0  0  0  0  0  0  0
    4.5570    9.3170    2.2250 C   0  0  0  0  0  0  0  0  0  0  0  0
   10.4760    9.5920    2.7770 C   0  0  0  0  0  0  0  0  0  0  0  0
    9.5270    8.4550    3.2270 C   0  0  0  0  0  0  0  0  0  0  0  0
   11.7036    5.9456    2.6137 H   0  0  0  0  0  0  0  0  0  0  0  0
   10.7155    6.6805    1.5412 H   0  0  0  0  0  0  0  0  0  0  0  0
    1.4906    8.8116    1.4325 H   0  0  0  0  0  0  0  0  0  0  0  0
    3.3763    9.5605    5.6866 H   0  0  0  0  0  0  0  0  0  0  0  0
   10.8216    7.2587    4.3384 H   0  0  0  0  0  0  0  0  0  0  0  0
    9.6352    6.4088    3.6058 H   0  0  0  0  0  0  0  0  0  0  0  0
    3.0191    8.8361   -0.5635 H   0  0  0  0  0  0  0  0  0  0  0  0
    8.0803   10.0978    1.6009 H   0  0  0  0  0  0  0  0  0  0  0  0
    6.8737    9.0641    1.2235 H   0  0  0  0  0  0  0  0  0  0  0  0
    7.2812   10.2060    5.0731 H   0  0  0  0  0  0  0  0  0  0  0  0
    8.3193   10.8241    3.9745 H   0  0  0  0  0  0  0  0  0  0  0  0
   12.6998   11.6981    4.0437 H   0  0  0  0  0  0  0  0  0  0  0  0
   11.5085   11.2865    0.1098 H   0  0  0  0  0  0  0  0  0  0  0  0
    5.4074    9.2093    0.2479 H   0  0  0  0  0  0  0  0  0  0  0  0
   11.2198    9.9551    4.6842 H   0  0  0  0  0  0  0  0  0  0  0  0
   10.0560    9.5052    0.7367 H   0  0  0  0  0  0  0  0  0  0  0  0
    8.9344    7.9206    1.3053 H   0  0  0  0  0  0  0  0  0  0  0  0
    7.9279    7.3636    2.4643 H   0  0  0  0  0  0  0  0  0  0  0  0
    8.2320    8.0719    4.8197 H   0  0  0  0  0  0  0  0  0  0  0  0
    9.4109    9.1370    5.1972 H   0  0  0  0  0  0  0  0  0  0  0  0
   11.9018    7.5305    2.2739 H   0  0  0  0  0  0  0  0  0  0  0  0
  1 19  1  0  0  0  0
  2  8  1  0  0  0  0
  3  7  2  0  0  0  0
  3 20  1  0  0  0  0
  4  7  1  0  0  0  0
  4 21  2  0  0  0  0
  5  9  1  0  0  0  0
  5 20  1  0  0  0  0
  6 10  1  0  0  0  0
  6 11  1  0  0  0  0
  6 21  1  0  0  0  0
  8 24  1  0  0  0  0
  9 14  2  0  0  0  0
 10 17  1  0  0  0  0
 11 18  1  0  0  0  0
 12 15  2  0  0  0  0
 12 19  1  0  0  0  0
 13 16  1  0  0  0  0
 13 19  2  0  0  0  0
 14 22  1  0  0  0  0
 15 23  1  0  0  0  0
 16 23  2  0  0  0  0
 17 24  1  0  0  0  0
 18 24  1  0  0  0  0
 20 22  2  0  0  0  0
 21 22  1  0  0  0  0
 23 24  1  0  0  0  0
  2 25  1  0  0  0  0
  2 26  1  0  0  0  0
  5 27  1  0  0  0  0
  7 28  1  0  0  0  0
  8 29  1  0  0  0  0
  8 30  1  0  0  0  0
  9 31  1  0  0  0  0
 10 32  1  0  0  0  0
 10 33  1  0  0  0  0
 11 34  1  0  0  0  0
 11 35  1  0  0  0  0
 12 36  1  0  0  0  0
 13 37  1  0  0  0  0
 14 38  1  0  0  0  0
 15 39  1  0  0  0  0
 16 40  1  0  0  0  0
 17 41  1  0  0  0  0
 17 42  1  0  0  0  0
 18 43  1  0  0  0  0
 18 44  1  0  0  0  0
  2 45  1  0  0  0  0
M  CHG  1   2   1
M  END
$$$$
2VO0_M03_A_1355
prProtoss 05262315203D 1   1.00000     0.00000     0
Protoss beta proteinsplus
 45 48  0  0  0  0            999 V2000
  -12.9570   -6.1560   -7.5710 Cl  0  0  0  0  0  0  0  0  0  0  0  0
  -10.1580  -10.8220  -11.1190 N   0  3  0  0  0  0  0  0  0  0  0  0
   -2.5750  -11.4750   -8.9430 N   0  0  0  0  0  0  0  0  0  0  0  0
   -4.8740  -11.1710   -8.2880 N   0  0  0  0  0  0  0  0  0  0  0  0
   -1.5020   -9.4250   -9.6810 N   0  0  0  0  0  0  0  0  0  0  0  0
   -5.9950   -9.1270   -8.3280 N   0  0  0  0  0  0  0  0  0  0  0  0
   -3.7670  -11.8880   -8.5000 C   0  0  0  0  0  0  0  0  0  0  0  0
   -8.9990   -9.9030  -11.3220 C   0  0  0  0  0  0  0  0  0  0  0  0
   -1.8600   -8.1260   -9.7690 C   0  0  0  0  0  0  0  0  0  0  0  0
   -7.1730   -9.8770   -7.8740 C   0  0  0  0  0  0  0  0  0  0  0  0
   -6.4460   -7.9790   -9.1360 C   0  0  0  0  0  0  0  0  0  0  0  0
  -10.9260   -6.5260   -9.3090 C   0  0  0  0  0  0  0  0  0  0  0  0
  -11.3450   -8.3090   -7.7620 C   0  0  0  0  0  0  0  0  0  0  0  0
   -3.1780   -8.0060   -9.3870 C   0  0  0  0  0  0  0  0  0  0  0  0
   -9.8870   -7.2400   -9.8570 C   0  0  0  0  0  0  0  0  0  0  0  0
  -10.3080   -9.0290   -8.3120 C   0  0  0  0  0  0  0  0  0  0  0  0
   -7.9380  -10.4230   -9.0750 C   0  0  0  0  0  0  0  0  0  0  0  0
   -7.2080   -8.4440  -10.3640 C   0  0  0  0  0  0  0  0  0  0  0  0
  -11.6550   -7.0580   -8.2600 C   0  0  0  0  0  0  0  0  0  0  0  0
   -2.5640  -10.1510   -9.2030 C   0  0  0  0  0  0  0  0  0  0  0  0
   -4.8370   -9.8440   -8.5700 C   0  0  0  0  0  0  0  0  0  0  0  0
   -3.6360   -9.2800   -9.0290 C   0  0  0  0  0  0  0  0  0  0  0  0
   -9.5550   -8.4950   -9.3570 C   0  0  0  0  0  0  0  0  0  0  0  0
   -8.4340   -9.3050  -10.0060 C   0  0  0  0  0  0  0  0  0  0  0  0
  -11.0088  -10.2976  -11.1510 H   0  0  0  0  0  0  0  0  0  0  0  0
  -10.1654  -11.5137  -11.8411 H   0  0  0  0  0  0  0  0  0  0  0  0
   -0.6068   -9.7981   -9.9249 H   0  0  0  0  0  0  0  0  0  0  0  0
   -3.8396  -12.8652   -8.3005 H   0  0  0  0  0  0  0  0  0  0  0  0
   -9.2937   -9.1493  -11.9095 H   0  0  0  0  0  0  0  0  0  0  0  0
   -8.2682  -10.4131  -11.7755 H   0  0  0  0  0  0  0  0  0  0  0  0
   -1.2671   -7.3761  -10.0626 H   0  0  0  0  0  0  0  0  0  0  0  0
   -7.7699   -9.2702   -7.3491 H   0  0  0  0  0  0  0  0  0  0  0  0
   -6.8786  -10.6375   -7.2952 H   0  0  0  0  0  0  0  0  0  0  0  0
   -5.6485   -7.4503   -9.4267 H   0  0  0  0  0  0  0  0  0  0  0  0
   -7.0436   -7.4020   -8.5794 H   0  0  0  0  0  0  0  0  0  0  0  0
  -11.1552   -5.6215   -9.6687 H   0  0  0  0  0  0  0  0  0  0  0  0
  -11.8729   -8.6909   -7.0034 H   0  0  0  0  0  0  0  0  0  0  0  0
   -3.7120   -7.1607   -9.3686 H   0  0  0  0  0  0  0  0  0  0  0  0
   -9.3669   -6.8551  -10.6194 H   0  0  0  0  0  0  0  0  0  0  0  0
  -10.0937   -9.9401   -7.9599 H   0  0  0  0  0  0  0  0  0  0  0  0
   -8.7272  -10.9412   -8.7454 H   0  0  0  0  0  0  0  0  0  0  0  0
   -7.3341  -11.0289   -9.5929 H   0  0  0  0  0  0  0  0  0  0  0  0
   -6.5927   -8.9848  -10.9376 H   0  0  0  0  0  0  0  0  0  0  0  0
   -7.5177   -7.6406  -10.8726 H   0  0  0  0  0  0  0  0  0  0  0  0
  -10.0760  -11.2703  -10.2289 H   0  0  0  0  0  0  0  0  0  0  0  0
  1 19  1  0  0  0  0
  2  8  1  0  0  0  0
  3  7  2  0  0  0  0
  3 20  1  0  0  0  0
  4  7  1  0  0  0  0
  4 21  2  0  0  0  0
  5  9  1  0  0  0  0
  5 20  1  0  0  0  0
  6 10  1  0  0  0  0
  6 11  1  0  0  0  0
  6 21  1  0  0  0  0
  8 24  1  0  0  0  0
  9 14  2  0  0  0  0
 10 17  1  0  0  0  0
 11 18  1  0  0  0  0
 12 15  2  0  0  0  0
 12 19  1  0  0  0  0
 13 16  1  0  0  0  0
 13 19  2  0  0  0  0
 14 22  1  0  0  0  0
 15 23  1  0  0  0  0
 16 23  2  0  0  0  0
 17 24  1  0  0  0  0
 18 24  1  0  0  0  0
 20 22  2  0  0  0  0
 21 22  1  0  0  0  0
 23 24  1  0  0  0  0
  2 25  1  0  0  0  0
  2 26  1  0  0  0  0
  5 27  1  0  0  0  0
  7 28  1  0  0  0  0
  8 29  1  0  0  0  0
  8 30  1  0  0  0  0
  9 31  1  0  0  0  0
 10 32  1  0  0  0  0
 10 33  1  0  0  0  0
 11 34  1  0  0  0  0
 11 35  1  0  0  0  0
 12 36  1  0  0  0  0
 13 37  1  0  0  0  0
 14 38  1  0  0  0  0
 15 39  1  0  0  0  0
 16 40  1  0  0  0  0
 17 41  1  0  0  0  0
 17 42  1  0  0  0  0
 18 43  1  0  0  0  0
 18 44  1  0  0  0  0
  2 45  1  0  0  0  0
M  CHG  1   2   1
M  END
$$$$
2VO0_EDO_I_1025
prProtoss 05262315203D 1   1.00000     0.00000     0
Protoss beta proteinsplus
 10  9  0  0  0  0            999 V2000
   23.5970    4.6560    4.6860 O   0  0  0  0  0  0  0  0  0  0  0  0
   23.0880    3.4420    7.7090 O   0  0  0  0  0  0  0  0  0  0  0  0
   23.9990    4.9980    6.0240 C   0  0  0  0  0  0  0  0  0  0  0  0
   24.2290    3.7640    6.9100 C   0  0  0  0  0  0  0  0  0  0  0  0
   23.0884    3.7951    4.7005 H   0  0  0  0  0  0  0  0  0  0  0  0
   22.4963    2.8116    7.2065 H   0  0  0  0  0  0  0  0  0  0  0  0
   23.2836    5.5603    6.4387 H   0  0  0  0  0  0  0  0  0  0  0  0
   24.8498    5.5215    5.9781 H   0  0  0  0  0  0  0  0  0  0  0  0
   24.4398    2.9826    6.3227 H   0  0  0  0  0  0  0  0  0  0  0  0
   25.0039    3.9443    7.5158 H   0  0  0  0  0  0  0  0  0  0  0  0
  1  3  1  0  0  0  0
  2  4  1  0  0  0  0
  3  4  1  0  0  0  0
  1  5  1  0  0  0  0
  2  6  1  0  0  0  0
  3  7  1  0  0  0  0
  3  8  1  0  0  0  0
  4  9  1  0  0  0  0
  4 10  1  0  0  0  0
M  END
$$$$
2VO6_CL_A_1351
prProtoss 05262315073D 1   1.00000     0.00000     0
Protoss beta proteinsplus
  1  0  0  0  0  0            999 V2000
    8.4470    9.7020   -1.3630 Cl  0  5  0  0  0  0  0  0  0  0  0  0
M  CHG  1   1  -1
M  END
$$$$
2VO6_M05_A_1352
prProtoss 05262315073D 1   1.00000     0.00000     0
Protoss beta proteinsplus
 45 48  0  0  0  0            999 V2000
   13.3150   13.4720   -0.3480 Cl  0  0  0  0  0  0  0  0  0  0  0  0
    9.9300    7.3980    3.9860 N   0  3  0  0  0  0  0  0  0  0  0  0
    3.1530    9.9190    3.6990 N   0  0  0  0  0  0  0  0  0  0  0  0
    5.4260    9.8920    4.4800 N   0  0  0  0  0  0  0  0  0  0  0  0
    2.9360    9.7380    1.3180 N   0  0  0  0  0  0  0  0  0  0  0  0
    7.3220    9.6530    3.1190 N   0  0  0  0  0  0  0  0  0  0  0  0
    4.1000    9.9300    4.6340 C   0  0  0  0  0  0  0  0  0  0  0  0
    3.7890    9.6400    0.2540 C   0  0  0  0  0  0  0  0  0  0  0  0
    8.0460    9.6900    4.4010 C   0  0  0  0  0  0  0  0  0  0  0  0
    7.8470    8.6670    2.1620 C   0  0  0  0  0  0  0  0  0  0  0  0
   12.7760   12.2880    2.0150 C   0  0  0  0  0  0  0  0  0  0  0  0
   12.4800   10.9250    0.0610 C   0  0  0  0  0  0  0  0  0  0  0  0
    5.0950    9.6150    0.7370 C   0  0  0  0  0  0  0  0  0  0  0  0
   12.3860   11.2380    2.8080 C   0  0  0  0  0  0  0  0  0  0  0  0
   12.0960    9.8610    0.8600 C   0  0  0  0  0  0  0  0  0  0  0  0
    9.5460    9.8300    4.2050 C   0  0  0  0  0  0  0  0  0  0  0  0
    9.3570    8.7790    1.9980 C   0  0  0  0  0  0  0  0  0  0  0  0
   11.6270    8.8750    3.1240 C   0  0  0  0  0  0  0  0  0  0  0  0
   12.8160   12.1400    0.6420 C   0  0  0  0  0  0  0  0  0  0  0  0
    3.6560    9.7930    2.4730 C   0  0  0  0  0  0  0  0  0  0  0  0
    5.9140    9.7210    3.2330 C   0  0  0  0  0  0  0  0  0  0  0  0
   12.0530   10.0110    2.2430 C   0  0  0  0  0  0  0  0  0  0  0  0
    5.0160    9.7160    2.1540 C   0  0  0  0  0  0  0  0  0  0  0  0
   10.1150    8.7130    3.3270 C   0  0  0  0  0  0  0  0  0  0  0  0
   10.3054    6.6773    3.4032 H   0  0  0  0  0  0  0  0  0  0  0  0
   10.4051    7.3963    4.8659 H   0  0  0  0  0  0  0  0  0  0  0  0
    1.9382    9.7651    1.2576 H   0  0  0  0  0  0  0  0  0  0  0  0
    3.7750    9.9724    5.5788 H   0  0  0  0  0  0  0  0  0  0  0  0
    3.5206    9.5940   -0.7082 H   0  0  0  0  0  0  0  0  0  0  0  0
    7.8634    8.8424    4.8992 H   0  0  0  0  0  0  0  0  0  0  0  0
    7.7164   10.4684    4.9353 H   0  0  0  0  0  0  0  0  0  0  0  0
    7.4137    8.8172    1.2733 H   0  0  0  0  0  0  0  0  0  0  0  0
    7.6251    7.7488    2.4901 H   0  0  0  0  0  0  0  0  0  0  0  0
   13.0314   13.1607    2.4312 H   0  0  0  0  0  0  0  0  0  0  0  0
   12.5151   10.8182   -0.9327 H   0  0  0  0  0  0  0  0  0  0  0  0
    5.9298    9.5403    0.1915 H   0  0  0  0  0  0  0  0  0  0  0  0
   12.3408   11.3558    3.8000 H   0  0  0  0  0  0  0  0  0  0  0  0
   11.8499    8.9858    0.4436 H   0  0  0  0  0  0  0  0  0  0  0  0
    9.9930    9.7977    5.0989 H   0  0  0  0  0  0  0  0  0  0  0  0
    9.7342   10.7105    3.7699 H   0  0  0  0  0  0  0  0  0  0  0  0
    9.5648    9.6519    1.5567 H   0  0  0  0  0  0  0  0  0  0  0  0
    9.6700    8.0284    1.4161 H   0  0  0  0  0  0  0  0  0  0  0  0
   12.0436    9.0117    4.0227 H   0  0  0  0  0  0  0  0  0  0  0  0
   11.9742    8.0282    2.7210 H   0  0  0  0  0  0  0  0  0  0  0  0
    8.9547    7.2333    4.1334 H   0  0  0  0  0  0  0  0  0  0  0  0
  1 19  1  0  0  0  0
  2 24  1  0  0  0  0
  3  7  2  0  0  0  0
  3 20  1  0  0  0  0
  4  7  1  0  0  0  0
  4 21  2  0  0  0  0
  5  8  1  0  0  0  0
  5 20  1  0  0  0  0
  6  9  1  0  0  0  0
  6 10  1  0  0  0  0
  6 21  1  0  0  0  0
  8 13  2  0  0  0  0
  9 16  1  0  0  0  0
 10 17  1  0  0  0  0
 11 14  2  0  0  0  0
 11 19  1  0  0  0  0
 12 15  1  0  0  0  0
 12 19  2  0  0  0  0
 13 23  1  0  0  0  0
 14 22  1  0  0  0  0
 15 22  2  0  0  0  0
 16 24  1  0  0  0  0
 17 24  1  0  0  0  0
 18 22  1  0  0  0  0
 18 24  1  0  0  0  0
 20 23  2  0  0  0  0
 21 23  1  0  0  0  0
  2 25  1  0  0  0  0
  2 26  1  0  0  0  0
  5 27  1  0  0  0  0
  7 28  1  0  0  0  0
  8 29  1  0  0  0  0
  9 30  1  0  0  0  0
  9 31  1  0  0  0  0
 10 32  1  0  0  0  0
 10 33  1  0  0  0  0
 11 34  1  0  0  0  0
 12 35  1  0  0  0  0
 13 36  1  0  0  0  0
 14 37  1  0  0  0  0
 15 38  1  0  0  0  0
 16 39  1  0  0  0  0
 16 40  1  0  0  0  0
 17 41  1  0  0  0  0
 17 42  1  0  0  0  0
 18 43  1  0  0  0  0
 18 44  1  0  0  0  0
  2 45  1  0  0  0  0
M  CHG  1   2   1
M  END
$$$$
2VO7_M05_A_1351
prProtoss 05262315343D 1   1.00000     0.00000     0
Protoss beta proteinsplus
 45 48  0  0  0  0            999 V2000
  -15.4510   -8.1970   -6.4020 Cl  0  0  0  0  0  0  0  0  0  0  0  0
  -10.0730   -9.2030  -10.7130 N   0  3  0  0  0  0  0  0  0  0  0  0
   -3.3900  -10.8700   -8.4690 N   0  0  0  0  0  0  0  0  0  0  0  0
   -5.7040  -10.4630   -7.9200 N   0  0  0  0  0  0  0  0  0  0  0  0
   -2.2580   -8.8920   -9.3220 N   0  0  0  0  0  0  0  0  0  0  0  0
   -6.8090   -8.3940   -8.2000 N   0  0  0  0  0  0  0  0  0  0  0  0
   -4.6020  -11.2180   -8.0320 C   0  0  0  0  0  0  0  0  0  0  0  0
   -2.6080   -7.6060   -9.5710 C   0  0  0  0  0  0  0  0  0  0  0  0
   -8.0300   -8.8050   -7.4940 C   0  0  0  0  0  0  0  0  0  0  0  0
   -7.1240   -7.3290   -9.1570 C   0  0  0  0  0  0  0  0  0  0  0  0
  -13.7510   -8.3720   -8.5030 C   0  0  0  0  0  0  0  0  0  0  0  0
  -12.9280   -7.2230   -6.5610 C   0  0  0  0  0  0  0  0  0  0  0  0
   -3.9280   -7.4410   -9.2500 C   0  0  0  0  0  0  0  0  0  0  0  0
  -12.5540   -8.1380   -9.1480 C   0  0  0  0  0  0  0  0  0  0  0  0
  -11.7290   -6.9940   -7.2010 C   0  0  0  0  0  0  0  0  0  0  0  0
   -9.0580   -9.3560   -8.4710 C   0  0  0  0  0  0  0  0  0  0  0  0
   -8.0710   -7.8590  -10.2180 C   0  0  0  0  0  0  0  0  0  0  0  0
  -10.2160   -7.1850   -9.1930 C   0  0  0  0  0  0  0  0  0  0  0  0
  -13.9420   -7.9130   -7.2090 C   0  0  0  0  0  0  0  0  0  0  0  0
   -3.3460   -9.5690   -8.8440 C   0  0  0  0  0  0  0  0  0  0  0  0
   -5.6360   -9.1770   -8.3300 C   0  0  0  0  0  0  0  0  0  0  0  0
  -11.5230   -7.4600   -8.4960 C   0  0  0  0  0  0  0  0  0  0  0  0
   -4.4100   -8.6710   -8.7890 C   0  0  0  0  0  0  0  0  0  0  0  0
   -9.3830   -8.4080   -9.6390 C   0  0  0  0  0  0  0  0  0  0  0  0
  -10.7014   -8.6092  -11.2155 H   0  0  0  0  0  0  0  0  0  0  0  0
   -9.3909   -9.5752  -11.3425 H   0  0  0  0  0  0  0  0  0  0  0  0
   -1.3489   -9.2833   -9.4651 H   0  0  0  0  0  0  0  0  0  0  0  0
   -4.7017  -12.1721   -7.7496 H   0  0  0  0  0  0  0  0  0  0  0  0
   -2.0021   -6.8959   -9.9297 H   0  0  0  0  0  0  0  0  0  0  0  0
   -8.4178   -8.0137   -7.0214 H   0  0  0  0  0  0  0  0  0  0  0  0
   -7.8002   -9.5126   -6.8259 H   0  0  0  0  0  0  0  0  0  0  0  0
   -6.2809   -7.0127   -9.5919 H   0  0  0  0  0  0  0  0  0  0  0  0
   -7.5570   -6.5669   -8.6757 H   0  0  0  0  0  0  0  0  0  0  0  0
  -14.4806   -8.8726   -8.9689 H   0  0  0  0  0  0  0  0  0  0  0  0
  -13.0672   -6.8912   -5.6280 H   0  0  0  0  0  0  0  0  0  0  0  0
   -4.4534   -6.5940   -9.3304 H   0  0  0  0  0  0  0  0  0  0  0  0
  -12.4245   -8.4558  -10.0873 H   0  0  0  0  0  0  0  0  0  0  0  0
  -11.0033   -6.4903   -6.7323 H   0  0  0  0  0  0  0  0  0  0  0  0
   -9.9035   -9.5374   -7.9687 H   0  0  0  0  0  0  0  0  0  0  0  0
   -8.7050  -10.2117   -8.8495 H   0  0  0  0  0  0  0  0  0  0  0  0
   -7.6111   -8.5944  -10.7156 H   0  0  0  0  0  0  0  0  0  0  0  0
   -8.2892   -7.1149  -10.8494 H   0  0  0  0  0  0  0  0  0  0  0  0
   -9.6497   -6.6465   -8.5690 H   0  0  0  0  0  0  0  0  0  0  0  0
  -10.4184   -6.6447  -10.0098 H   0  0  0  0  0  0  0  0  0  0  0  0
  -10.5855   -9.9532  -10.2952 H   0  0  0  0  0  0  0  0  0  0  0  0
  1 19  1  0  0  0  0
  2 24  1  0  0  0  0
  3  7  2  0  0  0  0
  3 20  1  0  0  0  0
  4  7  1  0  0  0  0
  4 21  2  0  0  0  0
  5  8  1  0  0  0  0
  5 20  1  0  0  0  0
  6  9  1  0  0  0  0
  6 10  1  0  0  0  0
  6 21  1  0  0  0  0
  8 13  2  0  0  0  0
  9 16  1  0  0  0  0
 10 17  1  0  0  0  0
 11 14  2  0  0  0  0
 11 19  1  0  0  0  0
 12 15  1  0  0  0  0
 12 19  2  0  0  0  0
 13 23  1  0  0  0  0
 14 22  1  0  0  0  0
 15 22  2  0  0  0  0
 16 24  1  0  0  0  0
 17 24  1  0  0  0  0
 18 22  1  0  0  0  0
 18 24  1  0  0  0  0
 20 23  2  0  0  0  0
 21 23  1  0  0  0  0
  2 25  1  0  0  0  0
  2 26  1  0  0  0  0
  5 27  1  0  0  0  0
  7 28  1  0  0  0  0
  8 29  1  0  0  0  0
  9 30  1  0  0  0  0
  9 31  1  0  0  0  0
 10 32  1  0  0  0  0
 10 33  1  0  0  0  0
 11 34  1  0  0  0  0
 12 35  1  0  0  0  0
 13 36  1  0  0  0  0
 14 37  1  0  0  0  0
 15 38  1  0  0  0  0
 16 39  1  0  0  0  0
 16 40  1  0  0  0  0
 17 41  1  0  0  0  0
 17 42  1  0  0  0  0
 18 43  1  0  0  0  0
 18 44  1  0  0  0  0
  2 45  1  0  0  0  0
M  CHG  1   2   1
M  END
$$$$
2VO7_M05_A_1352
prProtoss 05262315343D 1   1.00000     0.00000     0
Protoss beta proteinsplus
 45 48  0  0  0  0            999 V2000
   15.1370    9.4670   -0.9660 Cl  0  0  0  0  0  0  0  0  0  0  0  0
   11.0910    7.7340    3.9370 N   0  3  0  0  0  0  0  0  0  0  0  0
    3.2010   10.0890    4.2380 N   0  0  0  0  0  0  0  0  0  0  0  0
    5.4400    9.8870    5.1010 N   0  0  0  0  0  0  0  0  0  0  0  0
    3.0500   10.1090    1.8290 N   0  0  0  0  0  0  0  0  0  0  0  0
    7.3710    9.7470    3.7420 N   0  0  0  0  0  0  0  0  0  0  0  0
    4.1100   10.0000    5.2140 C   0  0  0  0  0  0  0  0  0  0  0  0
    3.9230   10.0940    0.8050 C   0  0  0  0  0  0  0  0  0  0  0  0
    8.0730    9.5770    2.4610 C   0  0  0  0  0  0  0  0  0  0  0  0
    8.2590   10.1420    4.8340 C   0  0  0  0  0  0  0  0  0  0  0  0
   14.3090    9.3950    1.6300 C   0  0  0  0  0  0  0  0  0  0  0  0
   12.6800   10.1110    0.0070 C   0  0  0  0  0  0  0  0  0  0  0  0
    5.1980    9.9830    1.3160 C   0  0  0  0  0  0  0  0  0  0  0  0
   13.3660    9.5480    2.6390 C   0  0  0  0  0  0  0  0  0  0  0  0
   11.7500   10.2830    1.0170 C   0  0  0  0  0  0  0  0  0  0  0  0
    9.2270    8.5930    2.5830 C   0  0  0  0  0  0  0  0  0  0  0  0
    9.3660    9.1160    5.0150 C   0  0  0  0  0  0  0  0  0  0  0  0
   11.0530   10.1620    3.4380 C   0  0  0  0  0  0  0  0  0  0  0  0
   13.9650    9.6680    0.3070 C   0  0  0  0  0  0  0  0  0  0  0  0
    3.7380   10.0720    3.0180 C   0  0  0  0  0  0  0  0  0  0  0  0
    5.9620    9.8800    3.8430 C   0  0  0  0  0  0  0  0  0  0  0  0
   12.0780    9.9950    2.3440 C   0  0  0  0  0  0  0  0  0  0  0  0
    5.0930    9.9780    2.7330 C   0  0  0  0  0  0  0  0  0  0  0  0
   10.1890    8.9170    3.7400 C   0  0  0  0  0  0  0  0  0  0  0  0
   11.9761    8.0438    4.2843 H   0  0  0  0  0  0  0  0  0  0  0  0
   10.6766    7.1047    4.5945 H   0  0  0  0  0  0  0  0  0  0  0  0
    2.0546   10.1420    1.7387 H   0  0  0  0  0  0  0  0  0  0  0  0
    3.7515   10.0204    6.1473 H   0  0  0  0  0  0  0  0  0  0  0  0
    3.6861   10.1535   -0.1647 H   0  0  0  0  0  0  0  0  0  0  0  0
    8.4314   10.4631    2.1669 H   0  0  0  0  0  0  0  0  0  0  0  0
    7.4261    9.2360    1.7789 H   0  0  0  0  0  0  0  0  0  0  0  0
    7.7306   10.2093    5.6803 H   0  0  0  0  0  0  0  0  0  0  0  0
    8.6652   11.0311    4.6231 H   0  0  0  0  0  0  0  0  0  0  0  0
   15.2346    9.0890    1.8530 H   0  0  0  0  0  0  0  0  0  0  0  0
   12.4283   10.3055   -0.9410 H   0  0  0  0  0  0  0  0  0  0  0  0
    6.0434    9.9178    0.7859 H   0  0  0  0  0  0  0  0  0  0  0  0
   13.6128    9.3359    3.5846 H   0  0  0  0  0  0  0  0  0  0  0  0
   10.8339   10.6168    0.7948 H   0  0  0  0  0  0  0  0  0  0  0  0
    9.7450    8.6048    1.7277 H   0  0  0  0  0  0  0  0  0  0  0  0
    8.8495    7.6790    2.7315 H   0  0  0  0  0  0  0  0  0  0  0  0
    8.9548    8.2414    5.2719 H   0  0  0  0  0  0  0  0  0  0  0  0
    9.9748    9.4255    5.7455 H   0  0  0  0  0  0  0  0  0  0  0  0
   10.4390   10.9056    3.1733 H   0  0  0  0  0  0  0  0  0  0  0  0
   11.5365   10.4117    4.2770 H   0  0  0  0  0  0  0  0  0  0  0  0
   11.2214    7.2651    3.0634 H   0  0  0  0  0  0  0  0  0  0  0  0
  1 19  1  0  0  0  0
  2 24  1  0  0  0  0
  3  7  2  0  0  0  0
  3 20  1  0  0  0  0
  4  7  1  0  0  0  0
  4 21  2  0  0  0  0
  5  8  1  0  0  0  0
  5 20  1  0  0  0  0
  6  9  1  0  0  0  0
  6 10  1  0  0  0  0
  6 21  1  0  0  0  0
  8 13  2  0  0  0  0
  9 16  1  0  0  0  0
 10 17  1  0  0  0  0
 11 14  2  0  0  0  0
 11 19  1  0  0  0  0
 12 15  1  0  0  0  0
 12 19  2  0  0  0  0
 13 23  1  0  0  0  0
 14 22  1  0  0  0  0
 15 22  2  0  0  0  0
 16 24  1  0  0  0  0
 17 24  1  0  0  0  0
 18 22  1  0  0  0  0
 18 24  1  0  0  0  0
 20 23  2  0  0  0  0
 21 23  1  0  0  0  0
  2 25  1  0  0  0  0
  2 26  1  0  0  0  0
  5 27  1  0  0  0  0
  7 28  1  0  0  0  0
  8 29  1  0  0  0  0
  9 30  1  0  0  0  0
  9 31  1  0  0  0  0
 10 32  1  0  0  0  0
 10 33  1  0  0  0  0
 11 34  1  0  0  0  0
 12 35  1  0  0  0  0
 13 36  1  0  0  0  0
 14 37  1  0  0  0  0
 15 38  1  0  0  0  0
 16 39  1  0  0  0  0
 16 40  1  0  0  0  0
 17 41  1  0  0  0  0
 17 42  1  0  0  0  0
 18 43  1  0  0  0  0
 18 44  1  0  0  0  0
  2 45  1  0  0  0  0
M  CHG  1   2   1
M  END
$$$$
6E9L_J0P_A_401
prProtoss 03132510173D 1   1.00000     0.00000     0
Protoss beta proteinsplus
 44 47  0  0  0  0            999 V2000
  -26.2960  -10.1340    1.3770 O   0  0  0  0  0  0  0  0  0  0  0  0
  -19.6740  -13.2850    1.1390 O   0  0  0  0  0  0  0  0  0  0  0  0
  -21.0410  -10.7700    0.9660 O   0  0  0  0  0  0  0  0  0  0  0  0
  -33.1670   -9.9750   -4.4530 N   0  0  0  0  0  0  0  0  0  0  0  0
  -24.9500  -10.6430   -0.4830 N   0  0  0  0  0  0  0  0  0  0  0  0
  -19.4230  -12.1900    2.0110 C   0  0  0  0  0  0  0  0  0  0  0  0
  -19.6520  -10.9250    1.2370 C   0  0  0  0  0  0  0  0  0  0  0  0
  -33.1080   -9.7150   -3.1430 C   0  0  0  0  0  0  0  0  0  0  0  0
  -32.0050  -10.3180   -5.0210 C   0  0  0  0  0  0  0  0  0  0  0  0
  -23.0000  -14.3300    0.1070 C   0  0  0  0  0  0  0  0  0  0  0  0
  -23.6810  -10.6100    0.2000 C   0  0  0  0  0  0  0  0  0  0  0  0
  -21.6800  -14.3620    0.4860 C   0  0  0  0  0  0  0  0  0  0  0  0
  -31.9590   -9.7830   -2.3890 C   0  0  0  0  0  0  0  0  0  0  0  0
  -30.8020  -10.4220   -4.3560 C   0  0  0  0  0  0  0  0  0  0  0  0
  -23.6490  -13.1210    0.0040 C   0  0  0  0  0  0  0  0  0  0  0  0
  -27.2960   -9.5850   -1.8700 C   0  0  0  0  0  0  0  0  0  0  0  0
  -28.4430  -10.9550   -0.2670 C   0  0  0  0  0  0  0  0  0  0  0  0
  -28.4310   -9.5680   -2.6480 C   0  0  0  0  0  0  0  0  0  0  0  0
  -29.5710  -10.9130   -1.0440 C   0  0  0  0  0  0  0  0  0  0  0  0
  -26.1310  -10.3360    0.1800 C   0  0  0  0  0  0  0  0  0  0  0  0
  -21.0080  -13.1930    0.7600 C   0  0  0  0  0  0  0  0  0  0  0  0
  -21.6610  -11.9810    0.6540 C   0  0  0  0  0  0  0  0  0  0  0  0
  -27.3190  -10.2800   -0.6820 C   0  0  0  0  0  0  0  0  0  0  0  0
  -22.9920  -11.9380    0.2800 C   0  0  0  0  0  0  0  0  0  0  0  0
  -30.7780  -10.1520   -3.0050 C   0  0  0  0  0  0  0  0  0  0  0  0
  -29.5710  -10.2230   -2.2350 C   0  0  0  0  0  0  0  0  0  0  0  0
  -24.9804  -10.8913   -1.4512 H   0  0  0  0  0  0  0  0  0  0  0  0
  -18.4778  -12.2236    2.3358 H   0  0  0  0  0  0  0  0  0  0  0  0
  -20.0456  -12.2280    2.7926 H   0  0  0  0  0  0  0  0  0  0  0  0
  -19.3293  -10.1449    1.7730 H   0  0  0  0  0  0  0  0  0  0  0  0
  -19.1482  -10.9679    0.3742 H   0  0  0  0  0  0  0  0  0  0  0  0
  -33.9552   -9.4537   -2.6803 H   0  0  0  0  0  0  0  0  0  0  0  0
  -32.0096  -10.5136   -6.0017 H   0  0  0  0  0  0  0  0  0  0  0  0
  -23.4865  -15.1805   -0.0929 H   0  0  0  0  0  0  0  0  0  0  0  0
  -23.8346  -10.2798    1.1313 H   0  0  0  0  0  0  0  0  0  0  0  0
  -23.0805   -9.9738   -0.2845 H   0  0  0  0  0  0  0  0  0  0  0  0
  -21.2054  -15.2388    0.5631 H   0  0  0  0  0  0  0  0  0  0  0  0
  -31.9781   -9.5692   -1.4123 H   0  0  0  0  0  0  0  0  0  0  0  0
  -29.9686  -10.6864   -4.8413 H   0  0  0  0  0  0  0  0  0  0  0  0
  -24.6092  -13.0987   -0.2744 H   0  0  0  0  0  0  0  0  0  0  0  0
  -26.4706   -9.1019   -2.1620 H   0  0  0  0  0  0  0  0  0  0  0  0
  -28.4373  -11.4696    0.5904 H   0  0  0  0  0  0  0  0  0  0  0  0
  -28.4285   -9.0769   -3.5191 H   0  0  0  0  0  0  0  0  0  0  0  0
  -30.3991  -11.3865   -0.7439 H   0  0  0  0  0  0  0  0  0  0  0  0
  1 20  2  0  0  0  0
  2  6  1  0  0  0  0
  2 21  1  0  0  0  0
  3  7  1  0  0  0  0
  3 22  1  0  0  0  0
  4  8  2  0  0  0  0
  4  9  1  0  0  0  0
  5 11  1  0  0  0  0
  5 20  1  0  0  0  0
  6  7  1  0  0  0  0
  8 13  1  0  0  0  0
  9 14  2  0  0  0  0
 10 12  2  0  0  0  0
 10 15  1  0  0  0  0
 11 24  1  0  0  0  0
 12 21  1  0  0  0  0
 13 25  2  0  0  0  0
 14 25  1  0  0  0  0
 15 24  2  0  0  0  0
 16 18  2  0  0  0  0
 16 23  1  0  0  0  0
 17 19  1  0  0  0  0
 17 23  2  0  0  0  0
 18 26  1  0  0  0  0
 19 26  2  0  0  0  0
 20 23  1  0  0  0  0
 21 22  2  0  0  0  0
 22 24  1  0  0  0  0
 25 26  1  0  0  0  0
  5 27  1  0  0  0  0
  6 28  1  0  0  0  0
  6 29  1  0  0  0  0
  7 30  1  0  0  0  0
  7 31  1  0  0  0  0
  8 32  1  0  0  0  0
  9 33  1  0  0  0  0
 10 34  1  0  0  0  0
 11 35  1  0  0  0  0
 11 36  1  0  0  0  0
 12 37  1  0  0  0  0
 13 38  1  0  0  0  0
 14 39  1  0  0  0  0
 15 40  1  0  0  0  0
 16 41  1  0  0  0  0
 17 42  1  0  0  0  0
 18 43  1  0  0  0  0
 19 44  1  0  0  0  0
M  END
$$$$
6EH2_AMP_A_401
prProtoss 06142301563D 1   1.00000     0.00000     0
Protoss beta proteinsplus
 35 37  0  0  0  0            999 V2000
  -11.9180  -21.4540   28.1430 P   0  0  0  0  0  0  0  0  0  0  0  0
  -12.9900  -20.9590   27.1980 O   0  0  0  0  0  0  0  0  0  0  0  0
  -10.4950  -21.2280   27.6820 O   0  5  0  0  0  0  0  0  0  0  0  0
  -12.1790  -21.1240   29.5950 O   0  5  0  0  0  0  0  0  0  0  0  0
  -12.3150  -28.0800   28.0520 O   0  0  0  0  0  0  0  0  0  0  0  0
  -10.4370  -26.0770   27.6010 O   0  0  0  0  0  0  0  0  0  0  0  0
  -12.0570  -23.0390   28.0880 O   0  0  0  0  0  0  0  0  0  0  0  0
  -13.7540  -25.5700   28.9240 O   0  0  0  0  0  0  0  0  0  0  0  0
  -17.4510  -24.1120   23.3790 N   0  0  0  0  0  0  0  0  0  0  0  0
  -17.2280  -26.4480   23.6720 N   0  0  0  0  0  0  0  0  0  0  0  0
  -15.8920  -27.3360   25.4060 N   0  0  0  0  0  0  0  0  0  0  0  0
  -15.6140  -23.8500   25.8110 N   0  0  0  0  0  0  0  0  0  0  0  0
  -14.7960  -25.6460   26.8520 N   0  0  0  0  0  0  0  0  0  0  0  0
  -12.1260  -23.8180   29.2750 C   0  0  0  0  0  0  0  0  0  0  0  0
  -16.7020  -27.4830   24.3430 C   0  0  0  0  0  0  0  0  0  0  0  0
  -14.8300  -24.3000   26.8240 C   0  0  0  0  0  0  0  0  0  0  0  0
  -12.7180  -26.9400   27.3020 C   0  0  2  0  0  0  0  0  0  0  0  0
  -11.8170  -25.7550   27.5960 C   0  0  1  0  0  0  0  0  0  0  0  0
  -14.0490  -26.4340   27.8490 C   0  0  1  0  0  0  0  0  0  0  0  0
  -16.9670  -25.1730   24.0270 C   0  0  0  0  0  0  0  0  0  0  0  0
  -12.3320  -25.2780   28.9540 C   0  0  2  0  0  0  0  0  0  0  0  0
  -15.5490  -26.1120   25.8550 C   0  0  0  0  0  0  0  0  0  0  0  0
  -16.0850  -24.9350   25.1770 C   0  0  0  0  0  0  0  0  0  0  0  0
  -13.1131  -28.6503   28.2463 H   0  0  0  0  0  0  0  0  0  0  0  0
   -9.9036  -25.2549   27.8002 H   0  0  0  0  0  0  0  0  0  0  0  0
  -17.2223  -23.1893   23.6895 H   0  0  0  0  0  0  0  0  0  0  0  0
  -18.0425  -24.2394   22.5828 H   0  0  0  0  0  0  0  0  0  0  0  0
  -12.8900  -23.4953   29.8337 H   0  0  0  0  0  0  0  0  0  0  0  0
  -11.2723  -23.7128   29.7850 H   0  0  0  0  0  0  0  0  0  0  0  0
  -16.9230  -28.4093   24.0379 H   0  0  0  0  0  0  0  0  0  0  0  0
  -14.3414  -23.7089   27.4658 H   0  0  0  0  0  0  0  0  0  0  0  0
  -12.7679  -27.1365   26.3228 H   0  0  0  0  0  0  0  0  0  0  0  0
  -11.9832  -25.0418   26.9151 H   0  0  0  0  0  0  0  0  0  0  0  0
  -14.6047  -27.2021   28.1672 H   0  0  0  0  0  0  0  0  0  0  0  0
  -11.9054  -25.8286   29.6715 H   0  0  0  0  0  0  0  0  0  0  0  0
  1  2  2  0  0  0  0
  1  3  1  0  0  0  0
  1  4  1  0  0  0  0
  1  7  1  0  0  0  0
  5 17  1  0  0  0  0
  6 18  1  0  0  0  0
  7 14  1  0  0  0  0
  8 19  1  0  0  0  0
  8 21  1  0  0  0  0
  9 20  1  0  0  0  0
 10 15  1  0  0  0  0
 10 20  2  0  0  0  0
 11 15  2  0  0  0  0
 11 22  1  0  0  0  0
 12 16  2  0  0  0  0
 12 23  1  0  0  0  0
 13 16  1  0  0  0  0
 13 19  1  0  0  0  0
 13 22  1  0  0  0  0
 14 21  1  0  0  0  0
 17 18  1  0  0  0  0
 17 19  1  0  0  0  0
 18 21  1  0  0  0  0
 20 23  1  0  0  0  0
 22 23  2  0  0  0  0
 21 35  1  0  0  0  0
 19 34  1  0  0  0  0
  5 24  1  0  0  0  0
  6 25  1  0  0  0  0
  9 26  1  0  0  0  0
  9 27  1  0  0  0  0
 14 28  1  0  0  0  0
 14 29  1  0  0  0  0
 15 30  1  0  0  0  0
 16 31  1  0  0  0  0
 17 32  1  0  0  0  0
 18 33  1  0  0  0  0
M  CHG  2   3  -1   4  -1
M  END
$$$$
6EH2_MPD_A_402
prProtoss 06142301563D 1   1.00000     0.00000     0
Protoss beta proteinsplus
 22 21  0  0  0  0            999 V2000
   -8.7410  -13.3810    4.5800 O   0  0  0  0  0  0  0  0  0  0  0  0
   -9.9500  -14.2900    2.5600 O   0  0  0  0  0  0  0  0  0  0  0  0
   -9.5380  -13.5290    6.7760 C   0  0  0  0  0  0  0  0  0  0  0  0
  -10.3950  -16.4290    3.4770 C   0  0  0  0  0  0  0  0  0  0  0  0
  -12.2480  -14.9150    2.6860 C   0  0  0  0  0  0  0  0  0  0  0  0
  -10.9650  -14.3190    4.7620 C   0  0  0  0  0  0  0  0  0  0  0  0
   -9.5760  -14.1470    5.3980 C   0  0  1  0  0  0  0  0  0  0  0  0
  -10.8980  -14.9950    3.3920 C   0  0  0  0  0  0  0  0  0  0  0  0
   -9.0785  -13.4097    3.6391 H   0  0  0  0  0  0  0  0  0  0  0  0
  -10.4194  -13.9239    1.7565 H   0  0  0  0  0  0  0  0  0  0  0  0
  -10.1264  -14.0523    7.3924 H   0  0  0  0  0  0  0  0  0  0  0  0
   -8.5995  -13.5410    7.1210 H   0  0  0  0  0  0  0  0  0  0  0  0
   -9.8630  -12.5846    6.7268 H   0  0  0  0  0  0  0  0  0  0  0  0
  -11.0173  -16.9674    4.0452 H   0  0  0  0  0  0  0  0  0  0  0  0
  -10.3562  -16.8236    2.5590 H   0  0  0  0  0  0  0  0  0  0  0  0
   -9.4810  -16.4382    3.8827 H   0  0  0  0  0  0  0  0  0  0  0  0
  -12.9376  -15.3928    3.2302 H   0  0  0  0  0  0  0  0  0  0  0  0
  -12.5125  -13.9564    2.5800 H   0  0  0  0  0  0  0  0  0  0  0  0
  -12.1789  -15.3433    1.7850 H   0  0  0  0  0  0  0  0  0  0  0  0
  -11.3834  -13.4170    4.6551 H   0  0  0  0  0  0  0  0  0  0  0  0
  -11.5293  -14.8784    5.3691 H   0  0  0  0  0  0  0  0  0  0  0  0
   -9.1677  -15.0570    5.4696 H   0  0  0  0  0  0  0  0  0  0  0  0
  1  7  1  0  0  0  0
  2  8  1  0  0  0  0
  3  7  1  0  0  0  0
  4  8  1  0  0  0  0
  5  8  1  0  0  0  0
  6  7  1  0  0  0  0
  6  8  1  0  0  0  0
  1  9  1  0  0  0  0
  2 10  1  0  0  0  0
  3 11  1  0  0  0  0
  3 12  1  0  0  0  0
  3 13  1  0  0  0  0
  4 14  1  0  0  0  0
  4 15  1  0  0  0  0
  4 16  1  0  0  0  0
  5 17  1  0  0  0  0
  5 18  1  0  0  0  0
  5 19  1  0  0  0  0
  6 20  1  0  0  0  0
  6 21  1  0  0  0  0
  7 22  1  0  0  0  0
M  END
$$$$
6ESA_AMP_A_401
prProtoss 06142303413D 1   1.00000     0.00000     0
Protoss beta proteinsplus
 32 34  0  0  0  0            999 V2000
  -11.9980  -24.9130   23.0430 O   0  0  0  0  0  0  0  0  0  0  0  0
  -12.3260  -29.8910   21.7120 O   0  0  0  0  0  0  0  0  0  0  0  0
  -10.2730  -27.9540   21.7830 O   0  0  0  0  0  0  0  0  0  0  0  0
  -13.5950  -27.4820   23.0520 O   0  0  0  0  0  0  0  0  0  0  0  0
  -17.7820  -25.3180   18.0760 N   0  0  0  0  0  0  0  0  0  0  0  0
  -17.6870  -27.6670   18.2810 N   0  0  0  0  0  0  0  0  0  0  0  0
  -16.1630  -28.7740   19.7890 N   0  0  0  0  0  0  0  0  0  0  0  0
  -15.4960  -25.2940   20.1370 N   0  0  0  0  0  0  0  0  0  0  0  0
  -14.7010  -27.1890   21.0110 N   0  0  0  0  0  0  0  0  0  0  0  0
  -11.8000  -26.0520   23.8750 C   0  0  0  0  0  0  0  0  0  0  0  0
  -17.1700  -28.7640   18.8790 C   0  0  0  0  0  0  0  0  0  0  0  0
  -14.5830  -25.8300   20.9940 C   0  0  0  0  0  0  0  0  0  0  0  0
  -13.9210  -28.1340   21.8450 C   0  0  1  0  0  0  0  0  0  0  0  0
  -12.6080  -28.5860   21.2090 C   0  0  1  0  0  0  0  0  0  0  0  0
  -11.6320  -27.5500   21.7790 C   0  0  1  0  0  0  0  0  0  0  0  0
  -17.2530  -26.4320   18.6110 C   0  0  0  0  0  0  0  0  0  0  0  0
  -12.1580  -27.3590   23.1900 C   0  0  2  0  0  0  0  0  0  0  0  0
  -15.6700  -27.5640   20.1580 C   0  0  0  0  0  0  0  0  0  0  0  0
  -16.1880  -26.3260   19.5980 C   0  0  0  0  0  0  0  0  0  0  0  0
  -11.1292  -24.4326   22.9233 H   0  0  0  0  0  0  0  0  0  0  0  0
  -11.3361  -30.0291   21.7443 H   0  0  0  0  0  0  0  0  0  0  0  0
   -9.9786  -28.1429   20.8462 H   0  0  0  0  0  0  0  0  0  0  0  0
  -17.4340  -24.4200   18.3453 H   0  0  0  0  0  0  0  0  0  0  0  0
  -18.5236  -25.3873   17.4087 H   0  0  0  0  0  0  0  0  0  0  0  0
  -12.3702  -25.9534   24.6906 H   0  0  0  0  0  0  0  0  0  0  0  0
  -10.8373  -26.0866   24.1435 H   0  0  0  0  0  0  0  0  0  0  0  0
  -17.5652  -29.6477   18.6282 H   0  0  0  0  0  0  0  0  0  0  0  0
  -13.9234  -25.3047   21.5315 H   0  0  0  0  0  0  0  0  0  0  0  0
  -14.4828  -28.9365   22.0458 H   0  0  0  0  0  0  0  0  0  0  0  0
  -12.6434  -28.5642   20.2099 H   0  0  0  0  0  0  0  0  0  0  0  0
  -11.7227  -26.6932   21.2715 H   0  0  0  0  0  0  0  0  0  0  0  0
  -11.8281  -28.1144   23.7562 H   0  0  0  0  0  0  0  0  0  0  0  0
  1 10  1  0  0  0  0
  2 14  1  0  0  0  0
  3 15  1  0  0  0  0
  4 13  1  0  0  0  0
  4 17  1  0  0  0  0
  5 16  1  0  0  0  0
  6 11  1  0  0  0  0
  6 16  2  0  0  0  0
  7 11  2  0  0  0  0
  7 18  1  0  0  0  0
  8 12  2  0  0  0  0
  8 19  1  0  0  0  0
  9 12  1  0  0  0  0
  9 13  1  0  0  0  0
  9 18  1  0  0  0  0
 10 17  1  0  0  0  0
 13 14  1  0  0  0  0
 14 15  1  0  0  0  0
 15 17  1  0  0  0  0
 16 19  1  0  0  0  0
 18 19  2  0  0  0  0
  1 20  1  0  0  0  0
  2 21  1  0  0  0  0
  3 22  1  0  0  0  0
  5 23  1  0  0  0  0
  5 24  1  0  0  0  0
 10 25  1  0  0  0  0
 10 26  1  0  0  0  0
 11 27  1  0  0  0  0
 12 28  1  0  0  0  0
 13 29  1  0  0  0  0
 14 30  1  0  0  0  0
 15 31  1  0  0  0  0
 17 32  1  0  0  0  0
M  END
$$$$
6ESA_MPD_A_402
prProtoss 06142303413D 1   1.00000     0.00000     0
Protoss beta proteinsplus
 22 21  0  0  0  0            999 V2000
   -8.8860  -12.9350   -0.0840 O   0  0  0  0  0  0  0  0  0  0  0  0
  -10.1570  -13.9450   -2.3270 O   0  0  0  0  0  0  0  0  0  0  0  0
   -9.3130  -13.7490    2.1030 C   0  0  0  0  0  0  0  0  0  0  0  0
  -12.3980  -14.7740   -1.8890 C   0  0  0  0  0  0  0  0  0  0  0  0
  -10.4140  -16.2600   -1.5630 C   0  0  0  0  0  0  0  0  0  0  0  0
  -10.8260  -14.2410    0.0000 C   0  0  0  0  0  0  0  0  0  0  0  0
   -9.4270  -14.0460    0.5910 C   0  0  1  0  0  0  0  0  0  0  0  0
  -10.9170  -14.8050   -1.4430 C   0  0  0  0  0  0  0  0  0  0  0  0
   -7.9067  -13.0771   -0.2284 H   0  0  0  0  0  0  0  0  0  0  0  0
   -9.7253  -13.2172   -1.7941 H   0  0  0  0  0  0  0  0  0  0  0  0
   -9.6878  -14.5167    2.6227 H   0  0  0  0  0  0  0  0  0  0  0  0
   -8.3516  -13.6199    2.3458 H   0  0  0  0  0  0  0  0  0  0  0  0
   -9.8259  -12.9182    2.3191 H   0  0  0  0  0  0  0  0  0  0  0  0
  -12.9392  -15.3632   -1.2890 H   0  0  0  0  0  0  0  0  0  0  0  0
  -12.7428  -13.8368   -1.8353 H   0  0  0  0  0  0  0  0  0  0  0  0
  -12.4694  -15.1019   -2.8310 H   0  0  0  0  0  0  0  0  0  0  0  0
  -10.9430  -16.8472   -0.9503 H   0  0  0  0  0  0  0  0  0  0  0  0
  -10.5261  -16.5748   -2.5055 H   0  0  0  0  0  0  0  0  0  0  0  0
   -9.4471  -16.3003   -1.3109 H   0  0  0  0  0  0  0  0  0  0  0  0
  -11.2804  -13.3502    0.0035 H   0  0  0  0  0  0  0  0  0  0  0  0
  -11.3205  -14.8698    0.6000 H   0  0  0  0  0  0  0  0  0  0  0  0
   -8.8735  -14.8515    0.3791 H   0  0  0  0  0  0  0  0  0  0  0  0
  1  7  1  0  0  0  0
  2  8  1  0  0  0  0
  3  7  1  0  0  0  0
  4  8  1  0  0  0  0
  5  8  1  0  0  0  0
  6  7  1  0  0  0  0
  6  8  1  0  0  0  0
  1  9  1  0  0  0  0
  2 10  1  0  0  0  0
  3 11  1  0  0  0  0
  3 12  1  0  0  0  0
  3 13  1  0  0  0  0
  4 14  1  0  0  0  0
  4 15  1  0  0  0  0
  4 16  1  0  0  0  0
  5 17  1  0  0  0  0
  5 18  1  0  0  0  0
  5 19  1  0  0  0  0
  6 20  1  0  0  0  0
  6 21  1  0  0  0  0
  7 22  1  0  0  0  0
M  END
$$$$
6ESA_MPD_A_403
prProtoss 06142303413D 1   1.00000     0.00000     0
Protoss beta proteinsplus
 22 21  0  0  0  0            999 V2000
   -9.1990  -40.3430   19.2880 O   0  0  0  0  0  0  0  0  0  0  0  0
   -9.8770  -41.7030   16.6490 O   0  0  0  0  0  0  0  0  0  0  0  0
  -11.2790  -39.4740   20.1130 C   0  0  0  0  0  0  0  0  0  0  0  0
  -11.6190  -40.4760   15.4820 C   0  0  0  0  0  0  0  0  0  0  0  0
   -9.2210  -39.6800   15.6850 C   0  0  0  0  0  0  0  0  0  0  0  0
  -10.7780  -39.5700   17.6820 C   0  0  0  0  0  0  0  0  0  0  0  0
  -10.5850  -40.2620   19.0110 C   0  0  1  0  0  0  0  0  0  0  0  0
  -10.3940  -40.3560   16.4090 C   0  0  0  0  0  0  0  0  0  0  0  0
   -9.0555  -40.3293   20.2776 H   0  0  0  0  0  0  0  0  0  0  0  0
   -9.4512  -41.7404   17.5530 H   0  0  0  0  0  0  0  0  0  0  0  0
  -12.2579  -39.4173   19.9165 H   0  0  0  0  0  0  0  0  0  0  0  0
  -11.1412  -39.9348   20.9897 H   0  0  0  0  0  0  0  0  0  0  0  0
  -10.8939  -38.5522   20.1568 H   0  0  0  0  0  0  0  0  0  0  0  0
  -11.9916  -39.5655   15.3025 H   0  0  0  0  0  0  0  0  0  0  0  0
  -11.3437  -40.8996   14.6190 H   0  0  0  0  0  0  0  0  0  0  0  0
  -12.3166  -41.0407   15.9229 H   0  0  0  0  0  0  0  0  0  0  0  0
   -9.4643  -38.7350   15.4663 H   0  0  0  0  0  0  0  0  0  0  0  0
   -8.4148  -39.6883   16.2766 H   0  0  0  0  0  0  0  0  0  0  0  0
   -9.0199  -40.1764   14.8405 H   0  0  0  0  0  0  0  0  0  0  0  0
  -10.2283  -38.7348   17.6961 H   0  0  0  0  0  0  0  0  0  0  0  0
  -11.7460  -39.3307   17.6062 H   0  0  0  0  0  0  0  0  0  0  0  0
  -10.9707  -41.1836   18.9663 H   0  0  0  0  0  0  0  0  0  0  0  0
  1  7  1  0  0  0  0
  2  8  1  0  0  0  0
  3  7  1  0  0  0  0
  4  8  1  0  0  0  0
  5  8  1  0  0  0  0
  6  7  1  0  0  0  0
  6  8  1  0  0  0  0
  1  9  1  0  0  0  0
  2 10  1  0  0  0  0
  3 11  1  0  0  0  0
  3 12  1  0  0  0  0
  3 13  1  0  0  0  0
  4 14  1  0  0  0  0
  4 15  1  0  0  0  0
  4 16  1  0  0  0  0
  5 17  1  0  0  0  0
  5 18  1  0  0  0  0
  5 19  1  0  0  0  0
  6 20  1  0  0  0  0
  6 21  1  0  0  0  0
  7 22  1  0  0  0  0
M  END
$$$$
6ESA_RIP_E_101
prProtoss 06142303413D 1   1.00000     0.00000     0
Protoss beta proteinsplus
 18 18  0  0  0  0            999 V2000
   -6.8590  -29.0850   28.2540 O   0  0  0  0  0  0  0  0  0  0  0  0
   -7.7670  -28.5550   30.5570 O   0  0  0  0  0  0  0  0  0  0  0  0
   -6.2290  -26.4690   29.3250 O   0  0  0  0  0  0  0  0  0  0  0  0
   -5.3330  -27.2310   28.5140 C   0  0  1  0  0  0  0  0  0  0  0  0
   -6.1510  -26.7800   30.7260 C   0  0  0  0  0  0  0  0  0  0  0  0
   -5.4490  -29.0900   30.1850 C   0  0  0  0  0  0  0  0  0  0  0  0
   -5.5620  -28.7300   28.7120 C   0  0  1  0  0  0  0  0  0  0  0  0
   -6.4360  -28.2490   30.9770 C   0  0  2  0  0  0  0  0  0  0  0  0
   -5.4427  -26.9867   27.5505 H   0  0  0  0  0  0  0  0  0  0  0  0
   -6.8222  -26.2280   31.2208 H   0  0  0  0  0  0  0  0  0  0  0  0
   -5.2326  -26.5643   31.0576 H   0  0  0  0  0  0  0  0  0  0  0  0
   -4.5195  -28.9060   30.5047 H   0  0  0  0  0  0  0  0  0  0  0  0
   -5.6587  -30.0597   30.3102 H   0  0  0  0  0  0  0  0  0  0  0  0
   -4.8766  -29.2408   28.1931 H   0  0  0  0  0  0  0  0  0  0  0  0
   -6.3384  -28.4474   31.9522 H   0  0  0  0  0  0  0  0  0  0  0  0
   -7.5126  -29.0014   29.0062 H   0  0  0  0  0  0  0  0  0  0  0  0
   -8.1310  -29.2984   31.1181 H   0  0  0  0  0  0  0  0  0  0  0  0
   -4.0530  -26.9570   28.9340 R#  0  0  0  0  0  0  0  0  0  0  0  0
  6  8  1  0  0  0  0
  4 18  1  0  0  0  0
  1  7  1  0  0  0  0
  2  8  1  0  0  0  0
  3  4  1  0  0  0  0
  3  5  1  0  0  0  0
  4  7  1  0  0  0  0
  5  8  1  0  0  0  0
  6  7  1  0  0  0  0
  4  9  1  0  0  0  0
  5 10  1  0  0  0  0
  5 11  1  0  0  0  0
  6 12  1  0  0  0  0
  6 13  1  0  0  0  0
  7 14  1  0  0  0  0
  8 15  1  0  0  0  0
  1 16  1  0  0  0  0
  2 17  1  0  0  0  0
M  RGP  1  18   1
M  END
$$$$
3OWP_2SB_A_2001
prProtoss 06132323413D 1   1.00000     0.00000     0
Protoss beta proteinsplus
 36 37  0  0  0  0            999 V2000
   32.3950   -9.9420    5.7230 Br  0  0  0  0  0  0  0  0  0  0  0  0
   25.9560   -9.3740   -0.5100 O   0  0  0  0  0  0  0  0  0  0  0  0
   34.0400   -9.9680    3.2130 O   0  0  0  0  0  0  0  0  0  0  0  0
   23.4490   -8.5860    0.5120 N   0  3  0  0  0  0  0  0  0  0  0  0
   27.8470   -9.7290    1.3280 N   0  0  0  0  0  0  0  0  0  0  0  0
   26.5450   -9.7990    1.6470 N   0  0  0  0  0  0  0  0  0  0  0  0
   28.5400   -9.9630    2.3690 C   0  0  0  0  0  0  0  0  0  0  0  0
   22.7490  -13.4390   -0.5100 C   0  0  0  0  0  0  0  0  0  0  0  0
   22.7480  -12.3090   -1.3120 C   0  0  0  0  0  0  0  0  0  0  0  0
   23.1990  -13.3530    0.7950 C   0  0  0  0  0  0  0  0  0  0  0  0
   32.2460   -9.9800    1.5470 C   0  0  0  0  0  0  0  0  0  0  0  0
   23.2100  -11.0960   -0.8160 C   0  0  0  0  0  0  0  0  0  0  0  0
   23.6560  -12.1440    1.2950 C   0  0  0  0  0  0  0  0  0  0  0  0
   30.8630   -9.9750    1.3050 C   0  0  0  0  0  0  0  0  0  0  0  0
   30.4640   -9.9440    3.6900 C   0  0  0  0  0  0  0  0  0  0  0  0
   25.5900   -9.6030    0.6380 C   0  0  0  0  0  0  0  0  0  0  0  0
   31.8080   -9.9510    3.8980 C   0  0  0  0  0  0  0  0  0  0  0  0
   32.7070   -9.9670    2.8680 C   0  0  0  0  0  0  0  0  0  0  0  0
   24.1600   -9.7150    1.0330 C   0  0  2  0  0  0  0  0  0  0  0  0
   30.0090   -9.9580    2.4070 C   0  0  0  0  0  0  0  0  0  0  0  0
   23.6580  -11.0120    0.4860 C   0  0  0  0  0  0  0  0  0  0  0  0
   34.7410   -9.9785    2.4999 H   0  0  0  0  0  0  0  0  0  0  0  0
   22.4854   -8.6503    0.7714 H   0  0  0  0  0  0  0  0  0  0  0  0
   23.8394   -7.7447    0.8859 H   0  0  0  0  0  0  0  0  0  0  0  0
   26.2608   -9.9875    2.5870 H   0  0  0  0  0  0  0  0  0  0  0  0
   28.0522  -10.1638    3.2185 H   0  0  0  0  0  0  0  0  0  0  0  0
   22.4258  -14.3129   -0.8732 H   0  0  0  0  0  0  0  0  0  0  0  0
   22.4131  -12.3668   -2.2525 H   0  0  0  0  0  0  0  0  0  0  0  0
   23.1946  -14.1648    1.3789 H   0  0  0  0  0  0  0  0  0  0  0  0
   32.8933   -9.9927    0.7849 H   0  0  0  0  0  0  0  0  0  0  0  0
   23.2177  -10.2855   -1.4017 H   0  0  0  0  0  0  0  0  0  0  0  0
   23.9845  -12.0852    2.2377 H   0  0  0  0  0  0  0  0  0  0  0  0
   30.5021   -9.9834    0.3724 H   0  0  0  0  0  0  0  0  0  0  0  0
   29.8261   -9.9290    4.4600 H   0  0  0  0  0  0  0  0  0  0  0  0
   24.0887   -9.7233    2.0304 H   0  0  0  0  0  0  0  0  0  0  0  0
   23.5258   -8.5748   -0.4850 H   0  0  0  0  0  0  0  0  0  0  0  0
  1 17  1  0  0  0  0
  2 16  2  0  0  0  0
  3 18  1  0  0  0  0
  4 19  1  0  0  0  0
  5  6  1  0  0  0  0
  5  7  2  0  0  0  0
  6 16  1  0  0  0  0
  7 20  1  0  0  0  0
  8  9  2  0  0  0  0
  8 10  1  0  0  0  0
  9 12  1  0  0  0  0
 10 13  2  0  0  0  0
 11 14  1  0  0  0  0
 11 18  2  0  0  0  0
 12 21  2  0  0  0  0
 13 21  1  0  0  0  0
 14 20  2  0  0  0  0
 15 17  2  0  0  0  0
 15 20  1  0  0  0  0
 16 19  1  0  0  0  0
 17 18  1  0  0  0  0
 19 21  1  0  0  0  0
  3 22  1  0  0  0  0
  4 23  1  0  0  0  0
  4 24  1  0  0  0  0
  6 25  1  0  0  0  0
  7 26  1  0  0  0  0
  8 27  1  0  0  0  0
  9 28  1  0  0  0  0
 10 29  1  0  0  0  0
 11 30  1  0  0  0  0
 12 31  1  0  0  0  0
 13 32  1  0  0  0  0
 14 33  1  0  0  0  0
 15 34  1  0  0  0  0
 19 35  1  0  0  0  0
  4 36  1  0  0  0  0
M  CHG  1   4   1
M  END
$$$$
3ZO4_MPD_A_1351
prProtoss 05262315143D 1   1.00000     0.00000     0
Protoss beta proteinsplus
 22 21  0  0  0  0            999 V2000
   28.8810   -3.0110   16.5150 O   0  0  0  0  0  0  0  0  0  0  0  0
   26.8620   -5.5630   17.0710 O   0  0  0  0  0  0  0  0  0  0  0  0
   31.1630   -3.7740   16.6520 C   0  0  0  0  0  0  0  0  0  0  0  0
   28.0710   -7.5740   16.7160 C   0  0  0  0  0  0  0  0  0  0  0  0
   27.6460   -5.9850   14.8600 C   0  0  0  0  0  0  0  0  0  0  0  0
   29.3210   -5.4470   16.7720 C   0  0  0  0  0  0  0  0  0  0  0  0
   29.7650   -4.0870   16.1690 C   0  0  1  0  0  0  0  0  0  0  0  0
   27.9700   -6.1120   16.3340 C   0  0  0  0  0  0  0  0  0  0  0  0
   28.4812   -2.6273   15.6826 H   0  0  0  0  0  0  0  0  0  0  0  0
   27.0301   -4.5942   17.2531 H   0  0  0  0  0  0  0  0  0  0  0  0
   31.7758   -4.5260   16.4090 H   0  0  0  0  0  0  0  0  0  0  0  0
   31.4835   -2.9304   16.2212 H   0  0  0  0  0  0  0  0  0  0  0  0
   31.1545   -3.6586   17.6453 H   0  0  0  0  0  0  0  0  0  0  0  0
   28.8325   -7.9954   16.2235 H   0  0  0  0  0  0  0  0  0  0  0  0
   28.2274   -7.6512   17.7007 H   0  0  0  0  0  0  0  0  0  0  0  0
   27.2198   -8.0408   16.4761 H   0  0  0  0  0  0  0  0  0  0  0  0
   28.3996   -6.3592   14.3196 H   0  0  0  0  0  0  0  0  0  0  0  0
   26.8076   -6.4913   14.6582 H   0  0  0  0  0  0  0  0  0  0  0  0
   27.5169   -5.0207   14.6290 H   0  0  0  0  0  0  0  0  0  0  0  0
   29.2680   -5.3171   17.7621 H   0  0  0  0  0  0  0  0  0  0  0  0
   30.0448   -6.1037   16.5602 H   0  0  0  0  0  0  0  0  0  0  0  0
   29.7853   -4.1731   15.1729 H   0  0  0  0  0  0  0  0  0  0  0  0
  1  7  1  0  0  0  0
  2  8  1  0  0  0  0
  3  7  1  0  0  0  0
  4  8  1  0  0  0  0
  5  8  1  0  0  0  0
  6  7  1  0  0  0  0
  6  8  1  0  0  0  0
  1  9  1  0  0  0  0
  2 10  1  0  0  0  0
  3 11  1  0  0  0  0
  3 12  1  0  0  0  0
  3 13  1  0  0  0  0
  4 14  1  0  0  0  0
  4 15  1  0  0  0  0
  4 16  1  0  0  0  0
  5 17  1  0  0  0  0
  5 18  1  0  0  0  0
  5 19  1  0  0  0  0
  6 20  1  0  0  0  0
  6 21  1  0  0  0  0
  7 22  1  0  0  0  0
M  END
$$$$
3ZO4_QWI_A_1352
prProtoss 05262315143D 1   1.00000     0.00000     0
Protoss beta proteinsplus
 51 55  0  0  0  0            999 V2000
   33.5330   -9.8240    4.2270 N   0  0  0  0  0  0  0  0  0  0  0  0
   33.5670   -9.8380    1.7890 N   0  0  0  0  0  0  0  0  0  0  0  0
   31.3310   -9.6710    5.2050 N   0  0  0  0  0  0  0  0  0  0  0  0
   31.3690   -9.6900    1.3730 N   0  0  0  0  0  0  0  0  0  0  0  0
   25.4240   -7.7480    4.1440 N   0  3  0  0  0  0  0  0  0  0  0  0
   29.4380   -9.2700    3.8980 N   0  0  0  0  0  0  0  0  0  0  0  0
   32.6660   -9.7890    5.2460 C   0  0  0  0  0  0  0  0  0  0  0  0
   32.5810   -9.7930    0.8610 C   0  0  0  0  0  0  0  0  0  0  0  0
   24.1820   -8.4040    4.5880 C   0  0  0  0  0  0  0  0  0  0  0  0
   28.8150   -8.7070    2.6910 C   0  0  0  0  0  0  0  0  0  0  0  0
   28.5800   -9.2410    5.0950 C   0  0  0  0  0  0  0  0  0  0  0  0
   23.0050  -12.7000   -0.2920 C   0  0  0  0  0  0  0  0  0  0  0  0
   23.0690  -11.3290   -0.4330 C   0  0  0  0  0  0  0  0  0  0  0  0
   23.4330  -13.2860    0.8820 C   0  0  0  0  0  0  0  0  0  0  0  0
   23.5430   -9.2330    3.4880 C   0  0  0  0  0  0  0  0  0  0  0  0
   23.5600  -10.5400    0.6020 C   0  0  0  0  0  0  0  0  0  0  0  0
   23.9250  -12.4990    1.9190 C   0  0  0  0  0  0  0  0  0  0  0  0
   27.5570   -7.8840    2.9210 C   0  0  0  0  0  0  0  0  0  0  0  0
   27.1170   -9.5380    4.8000 C   0  0  0  0  0  0  0  0  0  0  0  0
   25.8710   -9.6130    2.5590 C   0  0  0  0  0  0  0  0  0  0  0  0
   32.9530   -9.7680    3.0090 C   0  0  0  0  0  0  0  0  0  0  0  0
   30.8310   -9.5810    3.9510 C   0  0  0  0  0  0  0  0  0  0  0  0
   31.5920   -9.6630    2.7410 C   0  0  0  0  0  0  0  0  0  0  0  0
   23.9930  -11.1160    1.7930 C   0  0  0  0  0  0  0  0  0  0  0  0
   24.5350  -10.2680    2.9320 C   0  0  2  0  0  0  0  0  0  0  0  0
   26.4910   -8.7120    3.6620 C   0  0  0  0  0  0  0  0  0  0  0  0
   25.7955   -7.2254    4.9114 H   0  0  0  0  0  0  0  0  0  0  0  0
   33.0671   -9.8603    6.1592 H   0  0  0  0  0  0  0  0  0  0  0  0
   32.7557   -9.8341   -0.1228 H   0  0  0  0  0  0  0  0  0  0  0  0
   23.5332   -7.7008    4.8788 H   0  0  0  0  0  0  0  0  0  0  0  0
   24.3931   -9.0028    5.3606 H   0  0  0  0  0  0  0  0  0  0  0  0
   28.5789   -9.4662    2.0845 H   0  0  0  0  0  0  0  0  0  0  0  0
   29.4889   -8.1195    2.2429 H   0  0  0  0  0  0  0  0  0  0  0  0
   28.6417   -8.3318    5.5068 H   0  0  0  0  0  0  0  0  0  0  0  0
   28.9173   -9.9240    5.7429 H   0  0  0  0  0  0  0  0  0  0  0  0
   22.6505  -13.2660   -1.0363 H   0  0  0  0  0  0  0  0  0  0  0  0
   22.7612  -10.9008   -1.2827 H   0  0  0  0  0  0  0  0  0  0  0  0
   23.3894  -14.2794    0.9878 H   0  0  0  0  0  0  0  0  0  0  0  0
   23.2537   -8.6265    2.7474 H   0  0  0  0  0  0  0  0  0  0  0  0
   22.7461   -9.7100    3.8588 H   0  0  0  0  0  0  0  0  0  0  0  0
   23.6024   -9.5473    0.4892 H   0  0  0  0  0  0  0  0  0  0  0  0
   24.2334  -12.9335    2.7652 H   0  0  0  0  0  0  0  0  0  0  0  0
   27.1900   -7.5920    2.0378 H   0  0  0  0  0  0  0  0  0  0  0  0
   27.7869   -7.0796    3.4689 H   0  0  0  0  0  0  0  0  0  0  0  0
   26.5926   -9.3622    5.6331 H   0  0  0  0  0  0  0  0  0  0  0  0
   27.0417  -10.5050    4.5566 H   0  0  0  0  0  0  0  0  0  0  0  0
   25.7243   -9.0506    1.7452 H   0  0  0  0  0  0  0  0  0  0  0  0
   26.5247  -10.3398    2.3484 H   0  0  0  0  0  0  0  0  0  0  0  0
   24.7319  -10.8990    3.6824 H   0  0  0  0  0  0  0  0  0  0  0  0
   34.5494   -9.9085    1.6161 H   0  0  0  0  0  0  0  0  0  0  0  0
   25.2003   -7.1255    3.3940 H   0  0  0  0  0  0  0  0  0  0  0  0
  1  7  2  0  0  0  0
  1 21  1  0  0  0  0
  2  8  1  0  0  0  0
  2 21  1  0  0  0  0
  3  7  1  0  0  0  0
  3 22  2  0  0  0  0
  4  8  2  0  0  0  0
  4 23  1  0  0  0  0
  5  9  1  0  0  0  0
  5 26  1  0  0  0  0
  6 10  1  0  0  0  0
  6 11  1  0  0  0  0
  6 22  1  0  0  0  0
  9 15  1  0  0  0  0
 10 18  1  0  0  0  0
 11 19  1  0  0  0  0
 12 13  2  0  0  0  0
 12 14  1  0  0  0  0
 13 16  1  0  0  0  0
 14 17  2  0  0  0  0
 15 25  1  0  0  0  0
 16 24  2  0  0  0  0
 17 24  1  0  0  0  0
 18 26  1  0  0  0  0
 19 26  1  0  0  0  0
 20 25  1  0  0  0  0
 20 26  1  0  0  0  0
 21 23  2  0  0  0  0
 22 23  1  0  0  0  0
 24 25  1  0  0  0  0
  2 50  1  0  0  0  0
  5 27  1  0  0  0  0
  7 28  1  0  0  0  0
  8 29  1  0  0  0  0
  9 30  1  0  0  0  0
  9 31  1  0  0  0  0
 10 32  1  0  0  0  0
 10 33  1  0  0  0  0
 11 34  1  0  0  0  0
 11 35  1  0  0  0  0
 12 36  1  0  0  0  0
 13 37  1  0  0  0  0
 14 38  1  0  0  0  0
 15 39  1  0  0  0  0
 15 40  1  0  0  0  0
 16 41  1  0  0  0  0
 17 42  1  0  0  0  0
 18 43  1  0  0  0  0
 18 44  1  0  0  0  0
 19 45  1  0  0  0  0
 19 46  1  0  0  0  0
 20 47  1  0  0  0  0
 20 48  1  0  0  0  0
 25 49  1  0  0  0  0
  5 51  1  0  0  0  0
M  CHG  1   5   1
M  END
$$$$
3ZO4_GOL_A_1353
prProtoss 05262315143D 1   1.00000     0.00000     0
Protoss beta proteinsplus
 14 13  0  0  0  0            999 V2000
   42.0260    9.5080   -9.2560 O   0  0  0  0  0  0  0  0  0  0  0  0
   37.6430    7.5030   -9.5340 O   0  0  0  0  0  0  0  0  0  0  0  0
   39.4760    9.6050  -10.2140 O   0  0  0  0  0  0  0  0  0  0  0  0
   41.2850    8.2930   -9.3050 C   0  0  0  0  0  0  0  0  0  0  0  0
   39.0440    7.3110   -9.6750 C   0  0  0  0  0  0  0  0  0  0  0  0
   39.7970    8.5620   -9.2870 C   0  0  0  0  0  0  0  0  0  0  0  0
   43.0045    9.3024   -9.2691 H   0  0  0  0  0  0  0  0  0  0  0  0
   37.4209    8.4652   -9.6915 H   0  0  0  0  0  0  0  0  0  0  0  0
   38.6750   10.1066   -9.8872 H   0  0  0  0  0  0  0  0  0  0  0  0
   41.5251    7.7318   -8.5129 H   0  0  0  0  0  0  0  0  0  0  0  0
   41.5180    7.8019  -10.1444 H   0  0  0  0  0  0  0  0  0  0  0  0
   39.2502    7.0860  -10.6273 H   0  0  0  0  0  0  0  0  0  0  0  0
   39.3330    6.5576   -9.0844 H   0  0  0  0  0  0  0  0  0  0  0  0
   39.5225    8.8413   -8.3669 H   0  0  0  0  0  0  0  0  0  0  0  0
  1  4  1  0  0  0  0
  2  5  1  0  0  0  0
  3  6  1  0  0  0  0
  4  6  1  0  0  0  0
  5  6  1  0  0  0  0
  1  7  1  0  0  0  0
  2  8  1  0  0  0  0
  3  9  1  0  0  0  0
  4 10  1  0  0  0  0
  4 11  1  0  0  0  0
  5 12  1  0  0  0  0
  5 13  1  0  0  0  0
  6 14  1  0  0  0  0
M  END
$$$$
3ZO4_DMS_A_1354
prProtoss 05262315143D 1   1.00000     0.00000     0
Protoss beta proteinsplus
 10  9  0  0  0  0            999 V2000
   27.8680  -24.8390    8.3040 S   0  0  0  0  0  0  0  0  0  0  0  0
   29.1760  -24.2070    8.5060 O   0  0  0  0  0  0  0  0  0  0  0  0
   27.7520  -25.0800    6.5730 C   0  0  0  0  0  0  0  0  0  0  0  0
   26.6870  -23.5480    8.4580 C   0  0  0  0  0  0  0  0  0  0  0  0
   26.8769  -25.5118    6.3545 H   0  0  0  0  0  0  0  0  0  0  0  0
   27.8129  -24.1965    6.1086 H   0  0  0  0  0  0  0  0  0  0  0  0
   28.5000  -25.6693    6.2676 H   0  0  0  0  0  0  0  0  0  0  0  0
   25.7678  -23.9200    8.3291 H   0  0  0  0  0  0  0  0  0  0  0  0
   26.7566  -23.1394    9.3680 H   0  0  0  0  0  0  0  0  0  0  0  0
   26.8642  -22.8496    7.7646 H   0  0  0  0  0  0  0  0  0  0  0  0
  1  2  2  0  0  0  0
  1  3  1  0  0  0  0
  1  4  1  0  0  0  0
  3  5  1  0  0  0  0
  3  6  1  0  0  0  0
  3  7  1  0  0  0  0
  4  8  1  0  0  0  0
  4  9  1  0  0  0  0
  4 10  1  0  0  0  0
M  END
$$$$
4UJ1_NVX_A_1351
prProtoss 06132321383D 1   1.00000     0.00000     0
Protoss beta proteinsplus
 42 45  0  0  0  0            999 V2000
  -22.5880   14.5730   -0.1390 Cl  0  0  0  0  0  0  0  0  0  0  0  0
  -32.9420   10.3710    4.6690 O   0  0  0  0  0  0  0  0  0  0  0  0
  -25.0200   11.5880    3.5200 O   0  0  0  0  0  0  0  0  0  0  0  0
  -25.3040    7.1720    3.0990 N   0  3  0  0  0  0  0  0  0  0  0  0
  -33.0460   10.0540    2.4100 N   0  0  0  0  0  0  0  0  0  0  0  0
  -30.9430    9.5630    1.2320 N   0  0  0  0  0  0  0  0  0  0  0  0
  -32.3470    9.7850    1.2850 C   0  0  0  0  0  0  0  0  0  0  0  0
  -23.2440   10.9320   -0.8740 C   0  0  0  0  0  0  0  0  0  0  0  0
  -24.5820    8.4470    2.7930 C   0  0  0  0  0  0  0  0  0  0  0  0
  -26.6920    7.5840    3.4320 C   0  0  0  0  0  0  0  0  0  0  0  0
  -22.7980   12.2450   -0.9720 C   0  0  0  0  0  0  0  0  0  0  0  0
  -23.9420   10.5490    0.2880 C   0  0  0  0  0  0  0  0  0  0  0  0
  -28.7810    9.7670    4.7290 C   0  0  0  0  0  0  0  0  0  0  0  0
  -30.1720   10.0050    4.7380 C   0  0  0  0  0  0  0  0  0  0  0  0
  -23.7960   12.7180    1.2350 C   0  0  0  0  0  0  0  0  0  0  0  0
  -28.8510    9.3870    2.3910 C   0  0  0  0  0  0  0  0  0  0  0  0
  -23.0950   13.0960    0.0710 C   0  0  0  0  0  0  0  0  0  0  0  0
  -32.3320   10.1570    3.5930 C   0  0  0  0  0  0  0  0  0  0  0  0
  -24.9800   10.9390    2.4790 C   0  0  0  0  0  0  0  0  0  0  0  0
  -30.2460    9.6290    2.3730 C   0  0  0  0  0  0  0  0  0  0  0  0
  -24.2690   11.4010    1.3460 C   0  0  0  0  0  0  0  0  0  0  0  0
  -28.0920    9.4940    3.5290 C   0  0  0  0  0  0  0  0  0  0  0  0
  -30.9370    9.9570    3.5540 C   0  0  0  0  0  0  0  0  0  0  0  0
  -25.6930    9.5510    2.4450 C   0  0  2  0  0  0  0  0  0  0  0  0
  -26.6650    9.2050    3.5660 C   0  0  2  0  0  0  0  0  0  0  0  0
  -24.8801    6.7061    3.8757 H   0  0  0  0  0  0  0  0  0  0  0  0
  -34.0386   10.1739    2.3894 H   0  0  0  0  0  0  0  0  0  0  0  0
  -32.8552    9.7385    0.4250 H   0  0  0  0  0  0  0  0  0  0  0  0
  -23.0737   10.2763   -1.6095 H   0  0  0  0  0  0  0  0  0  0  0  0
  -23.9725    8.3162    2.0111 H   0  0  0  0  0  0  0  0  0  0  0  0
  -24.0479    8.7371    3.5871 H   0  0  0  0  0  0  0  0  0  0  0  0
  -26.9788    7.1696    4.2957 H   0  0  0  0  0  0  0  0  0  0  0  0
  -27.3198    7.3068    2.7046 H   0  0  0  0  0  0  0  0  0  0  0  0
  -22.2817   12.5600   -1.7683 H   0  0  0  0  0  0  0  0  0  0  0  0
  -24.2256    9.5929    0.3614 H   0  0  0  0  0  0  0  0  0  0  0  0
  -28.2738    9.7924    5.5905 H   0  0  0  0  0  0  0  0  0  0  0  0
  -30.6261   10.2126    5.6044 H   0  0  0  0  0  0  0  0  0  0  0  0
  -23.9536   13.3778    1.9697 H   0  0  0  0  0  0  0  0  0  0  0  0
  -28.3995    9.1269    1.5375 H   0  0  0  0  0  0  0  0  0  0  0  0
  -26.1021    9.3790    1.5489 H   0  0  0  0  0  0  0  0  0  0  0  0
  -26.2815    9.4720    4.4501 H   0  0  0  0  0  0  0  0  0  0  0  0
  -25.2989    6.5660    2.3036 H   0  0  0  0  0  0  0  0  0  0  0  0
  1 17  1  0  0  0  0
  2 18  2  0  0  0  0
  3 19  2  0  0  0  0
  4  9  1  0  0  0  0
  4 10  1  0  0  0  0
  5  7  1  0  0  0  0
  5 18  1  0  0  0  0
  6  7  2  0  0  0  0
  6 20  1  0  0  0  0
  8 11  2  0  0  0  0
  8 12  1  0  0  0  0
  9 24  1  0  0  0  0
 10 25  1  0  0  0  0
 11 17  1  0  0  0  0
 12 21  2  0  0  0  0
 13 14  1  0  0  0  0
 13 22  2  0  0  0  0
 14 23  2  0  0  0  0
 15 17  2  0  0  0  0
 15 21  1  0  0  0  0
 16 20  2  0  0  0  0
 16 22  1  0  0  0  0
 18 23  1  0  0  0  0
 19 21  1  0  0  0  0
 19 24  1  0  0  0  0
 20 23  1  0  0  0  0
 22 25  1  0  0  0  0
 24 25  1  0  0  0  0
  4 26  1  0  0  0  0
  5 27  1  0  0  0  0
  7 28  1  0  0  0  0
  8 29  1  0  0  0  0
  9 30  1  0  0  0  0
  9 31  1  0  0  0  0
 10 32  1  0  0  0  0
 10 33  1  0  0  0  0
 11 34  1  0  0  0  0
 12 35  1  0  0  0  0
 13 36  1  0  0  0  0
 14 37  1  0  0  0  0
 15 38  1  0  0  0  0
 16 39  1  0  0  0  0
 24 40  1  0  0  0  0
 25 41  1  0  0  0  0
  4 42  1  0  0  0  0
M  CHG  1   4   1
M  END
$$$$
4UJ1_MPD_A_1352
prProtoss 06132321383D 1   1.00000     0.00000     0
Protoss beta proteinsplus
 22 21  0  0  0  0            999 V2000
  -26.1270    5.4870   16.8290 O   0  0  0  0  0  0  0  0  0  0  0  0
  -28.0890    4.1630   18.1030 O   0  0  0  0  0  0  0  0  0  0  0  0
  -27.0250    7.2470   15.4840 C   0  0  0  0  0  0  0  0  0  0  0  0
  -28.3970    2.6050   16.2820 C   0  0  0  0  0  0  0  0  0  0  0  0
  -30.2490    4.0850   17.1340 C   0  0  0  0  0  0  0  0  0  0  0  0
  -28.3190    5.1350   15.8850 C   0  0  0  0  0  0  0  0  0  0  0  0
  -27.3330    6.1270   16.4760 C   0  0  1  0  0  0  0  0  0  0  0  0
  -28.7490    4.0000   16.8300 C   0  0  0  0  0  0  0  0  0  0  0  0
  -25.5080    6.1506   17.2491 H   0  0  0  0  0  0  0  0  0  0  0  0
  -27.1834    4.5623   17.9602 H   0  0  0  0  0  0  0  0  0  0  0  0
  -27.8746    7.7077   15.2271 H   0  0  0  0  0  0  0  0  0  0  0  0
  -26.4035    7.9059   15.9077 H   0  0  0  0  0  0  0  0  0  0  0  0
  -26.5953    6.8606   14.6679 H   0  0  0  0  0  0  0  0  0  0  0  0
  -28.8453    2.4712   15.3982 H   0  0  0  0  0  0  0  0  0  0  0  0
  -27.4062    2.5320   16.1676 H   0  0  0  0  0  0  0  0  0  0  0  0
  -28.7108    1.9057   16.9242 H   0  0  0  0  0  0  0  0  0  0  0  0
  -30.7676    3.9786   16.2856 H   0  0  0  0  0  0  0  0  0  0  0  0
  -30.5014    3.3579   17.7725 H   0  0  0  0  0  0  0  0  0  0  0  0
  -30.4565    4.9740   17.5422 H   0  0  0  0  0  0  0  0  0  0  0  0
  -27.8971    4.7226   15.0776 H   0  0  0  0  0  0  0  0  0  0  0  0
  -29.1389    5.6384   15.6123 H   0  0  0  0  0  0  0  0  0  0  0  0
  -27.7358    6.5286   17.2985 H   0  0  0  0  0  0  0  0  0  0  0  0
  1  7  1  0  0  0  0
  2  8  1  0  0  0  0
  3  7  1  0  0  0  0
  4  8  1  0  0  0  0
  5  8  1  0  0  0  0
  6  7  1  0  0  0  0
  6  8  1  0  0  0  0
  1  9  1  0  0  0  0
  2 10  1  0  0  0  0
  3 11  1  0  0  0  0
  3 12  1  0  0  0  0
  3 13  1  0  0  0  0
  4 14  1  0  0  0  0
  4 15  1  0  0  0  0
  4 16  1  0  0  0  0
  5 17  1  0  0  0  0
  5 18  1  0  0  0  0
  5 19  1  0  0  0  0
  6 20  1  0  0  0  0
  6 21  1  0  0  0  0
  7 22  1  0  0  0  0
M  END
$$$$
4Z84_NVX_A_401
prProtoss 06132321463D 1   1.00000     0.00000     0
Protoss beta proteinsplus
 42 45  0  0  0  0            999 V2000
  -30.4720   -3.6080   18.9300 Cl  0  0  0  0  0  0  0  0  0  0  0  0
  -26.3570  -14.3480   23.3740 O   0  0  0  0  0  0  0  0  0  0  0  0
  -27.5200   -6.6440   22.3260 O   0  0  0  0  0  0  0  0  0  0  0  0
  -23.1730   -6.5840   22.0810 N   0  3  0  0  0  0  0  0  0  0  0  0
  -26.0570  -14.2480   21.1110 N   0  0  0  0  0  0  0  0  0  0  0  0
  -25.7230  -12.2100   19.9550 N   0  0  0  0  0  0  0  0  0  0  0  0
  -25.8520  -13.5210   19.9910 C   0  0  0  0  0  0  0  0  0  0  0  0
  -26.8640   -4.9160   17.9320 C   0  0  0  0  0  0  0  0  0  0  0  0
  -24.3310   -6.0280   21.3630 C   0  0  0  0  0  0  0  0  0  0  0  0
  -23.5390   -7.9450   22.4890 C   0  0  0  0  0  0  0  0  0  0  0  0
  -28.0760   -4.2520   17.9060 C   0  0  0  0  0  0  0  0  0  0  0  0
  -26.4910   -5.6490   19.0430 C   0  0  0  0  0  0  0  0  0  0  0  0
  -25.9190  -10.1250   23.5630 C   0  0  0  0  0  0  0  0  0  0  0  0
  -26.1470  -11.4870   23.5690 C   0  0  0  0  0  0  0  0  0  0  0  0
  -28.5490   -5.0600   20.1330 C   0  0  0  0  0  0  0  0  0  0  0  0
  -25.5670  -10.1610   21.1910 C   0  0  0  0  0  0  0  0  0  0  0  0
  -28.9070   -4.3530   19.0010 C   0  0  0  0  0  0  0  0  0  0  0  0
  -26.1860  -13.6740   22.3620 C   0  0  0  0  0  0  0  0  0  0  0  0
  -26.8280   -6.5000   21.3300 C   0  0  0  0  0  0  0  0  0  0  0  0
  -25.8000  -11.5410   21.1790 C   0  0  0  0  0  0  0  0  0  0  0  0
  -27.3200   -5.7200   20.1580 C   0  0  0  0  0  0  0  0  0  0  0  0
  -25.5900   -9.4560   22.3950 C   0  0  0  0  0  0  0  0  0  0  0  0
  -26.0580  -12.2100   22.3820 C   0  0  0  0  0  0  0  0  0  0  0  0
  -25.4340   -7.1010   21.2750 C   0  0  2  0  0  0  0  0  0  0  0  0
  -25.0850   -8.0300   22.4720 C   0  0  2  0  0  0  0  0  0  0  0  0
  -22.9674   -6.0271   22.8858 H   0  0  0  0  0  0  0  0  0  0  0  0
  -26.1180  -15.2430   21.0318 H   0  0  0  0  0  0  0  0  0  0  0  0
  -25.7937  -14.0151   19.1235 H   0  0  0  0  0  0  0  0  0  0  0  0
  -26.2530   -4.8658   17.1419 H   0  0  0  0  0  0  0  0  0  0  0  0
  -24.0543   -5.7561   20.4413 H   0  0  0  0  0  0  0  0  0  0  0  0
  -24.6787   -5.2302   21.8556 H   0  0  0  0  0  0  0  0  0  0  0  0
  -23.1961   -8.1302   23.4099 H   0  0  0  0  0  0  0  0  0  0  0  0
  -23.1526   -8.6096   21.8495 H   0  0  0  0  0  0  0  0  0  0  0  0
  -28.3442   -3.7099   17.1097 H   0  0  0  0  0  0  0  0  0  0  0  0
  -25.6161   -6.1333   19.0453 H   0  0  0  0  0  0  0  0  0  0  0  0
  -25.9927   -9.6117   24.4180 H   0  0  0  0  0  0  0  0  0  0  0  0
  -26.3755  -11.9531   24.4237 H   0  0  0  0  0  0  0  0  0  0  0  0
  -29.1616   -5.0980   20.9225 H   0  0  0  0  0  0  0  0  0  0  0  0
  -25.3835   -9.6789   20.3343 H   0  0  0  0  0  0  0  0  0  0  0  0
  -25.3292   -7.6111   20.4213 H   0  0  0  0  0  0  0  0  0  0  0  0
  -25.4356   -7.6133   23.3107 H   0  0  0  0  0  0  0  0  0  0  0  0
  -22.3745   -6.6082   21.4795 H   0  0  0  0  0  0  0  0  0  0  0  0
  1 17  1  0  0  0  0
  2 18  2  0  0  0  0
  3 19  2  0  0  0  0
  4  9  1  0  0  0  0
  4 10  1  0  0  0  0
  5  7  1  0  0  0  0
  5 18  1  0  0  0  0
  6  7  2  0  0  0  0
  6 20  1  0  0  0  0
  8 11  2  0  0  0  0
  8 12  1  0  0  0  0
  9 24  1  0  0  0  0
 10 25  1  0  0  0  0
 11 17  1  0  0  0  0
 12 21  2  0  0  0  0
 13 14  1  0  0  0  0
 13 22  2  0  0  0  0
 14 23  2  0  0  0  0
 15 17  2  0  0  0  0
 15 21  1  0  0  0  0
 16 20  2  0  0  0  0
 16 22  1  0  0  0  0
 18 23  1  0  0  0  0
 19 21  1  0  0  0  0
 19 24  1  0  0  0  0
 20 23  1  0  0  0  0
 22 25  1  0  0  0  0
 24 25  1  0  0  0  0
  4 26  1  0  0  0  0
  5 27  1  0  0  0  0
  7 28  1  0  0  0  0
  8 29  1  0  0  0  0
  9 30  1  0  0  0  0
  9 31  1  0  0  0  0
 10 32  1  0  0  0  0
 10 33  1  0  0  0  0
 11 34  1  0  0  0  0
 12 35  1  0  0  0  0
 13 36  1  0  0  0  0
 14 37  1  0  0  0  0
 15 38  1  0  0  0  0
 16 39  1  0  0  0  0
 24 40  1  0  0  0  0
 25 41  1  0  0  0  0
  4 42  1  0  0  0  0
M  CHG  1   4   1
M  END
$$$$
4Z84_MOH_A_402
prProtoss 06132321463D 1   1.00000     0.00000     0
Protoss beta proteinsplus
  6  5  0  0  0  0            999 V2000
  -45.0400   -1.0790    3.6280 O   0  0  0  0  0  0  0  0  0  0  0  0
  -45.0540    0.2950    4.0420 C   0  0  0  0  0  0  0  0  0  0  0  0
  -45.8518   -1.5424    3.9832 H   0  0  0  0  0  0  0  0  0  0  0  0
  -45.0545    0.3422    5.0409 H   0  0  0  0  0  0  0  0  0  0  0  0
  -44.2422    0.7584    3.6868 H   0  0  0  0  0  0  0  0  0  0  0  0
  -45.8751    0.7418    3.6868 H   0  0  0  0  0  0  0  0  0  0  0  0
  1  2  1  0  0  0  0
  1  3  1  0  0  0  0
  2  4  1  0  0  0  0
  2  5  1  0  0  0  0
  2  6  1  0  0  0  0
M  END
$$$$
4Z84_MOH_A_403
prProtoss 06132321463D 1   1.00000     0.00000     0
Protoss beta proteinsplus
  6  5  0  0  0  0            999 V2000
  -46.8740    0.4620   18.8400 O   0  0  0  0  0  0  0  0  0  0  0  0
  -47.8420    0.6270   17.7920 C   0  0  0  0  0  0  0  0  0  0  0  0
  -46.5758    1.3603   19.1628 H   0  0  0  0  0  0  0  0  0  0  0  0
  -48.1402   -0.2713   17.4692 H   0  0  0  0  0  0  0  0  0  0  0  0
  -48.6297    1.1336   18.1425 H   0  0  0  0  0  0  0  0  0  0  0  0
  -47.4301    1.1336   17.0345 H   0  0  0  0  0  0  0  0  0  0  0  0
  1  2  1  0  0  0  0
  1  3  1  0  0  0  0
  2  4  1  0  0  0  0
  2  5  1  0  0  0  0
  2  6  1  0  0  0  0
M  END
$$$$
2VO3_CL_A_1351
prProtoss 05262315573D 1   1.00000     0.00000     0
Protoss beta proteinsplus
  1  0  0  0  0  0            999 V2000
    8.2020    9.5920   -1.3540 Cl  0  5  0  0  0  0  0  0  0  0  0  0
M  CHG  1   1  -1
M  END
$$$$
2VO3_M04_A_1352
prProtoss 05262315573D 1   1.00000     0.00000     0
Protoss beta proteinsplus
 48 51  0  0  0  0            999 V2000
   13.0160   14.1930   -0.7340 Cl  0  0  0  0  0  0  0  0  0  0  0  0
   10.9670    6.8840    3.1310 N   0  3  0  0  0  0  0  0  0  0  0  0
    3.2010    9.7210    3.9360 N   0  0  0  0  0  0  0  0  0  0  0  0
    5.4900    9.8580    4.6680 N   0  0  0  0  0  0  0  0  0  0  0  0
    2.9710    9.5290    1.5470 N   0  0  0  0  0  0  0  0  0  0  0  0
    7.3830    9.8300    3.2380 N   0  0  0  0  0  0  0  0  0  0  0  0
    4.1660    9.8270    4.8510 C   0  0  0  0  0  0  0  0  0  0  0  0
   10.2900    7.9130    3.9670 C   0  0  0  0  0  0  0  0  0  0  0  0
    3.8040    9.5030    0.4780 C   0  0  0  0  0  0  0  0  0  0  0  0
    8.0050    8.9220    2.2590 C   0  0  0  0  0  0  0  0  0  0  0  0
    8.1420    9.9290    4.4960 C   0  0  0  0  0  0  0  0  0  0  0  0
   12.5030   11.6110   -0.1150 C   0  0  0  0  0  0  0  0  0  0  0  0
   12.4260   13.1620    1.7020 C   0  0  0  0  0  0  0  0  0  0  0  0
    5.0960    9.5980    0.9300 C   0  0  0  0  0  0  0  0  0  0  0  0
   12.2160   10.5790    0.7550 C   0  0  0  0  0  0  0  0  0  0  0  0
   12.1380   12.1300    2.5700 C   0  0  0  0  0  0  0  0  0  0  0  0
    9.4630    9.2770    2.0000 C   0  0  0  0  0  0  0  0  0  0  0  0
    9.6010   10.2820    4.2350 C   0  0  0  0  0  0  0  0  0  0  0  0
   11.7570    9.6980    3.0590 C   0  0  0  0  0  0  0  0  0  0  0  0
   12.6020   12.9060    0.3540 C   0  0  0  0  0  0  0  0  0  0  0  0
    3.6990    9.6530    2.6940 C   0  0  0  0  0  0  0  0  0  0  0  0
    5.9560    9.7860    3.4080 C   0  0  0  0  0  0  0  0  0  0  0  0
   12.0180   10.8310    2.1040 C   0  0  0  0  0  0  0  0  0  0  0  0
    5.0380    9.6980    2.3530 C   0  0  0  0  0  0  0  0  0  0  0  0
   10.2920    9.2950    3.2860 C   0  0  0  0  0  0  0  0  0  0  0  0
   11.9403    6.8570    3.3589 H   0  0  0  0  0  0  0  0  0  0  0  0
   10.5581    5.9888    3.3082 H   0  0  0  0  0  0  0  0  0  0  0  0
    1.9740    9.4667    1.5017 H   0  0  0  0  0  0  0  0  0  0  0  0
    3.8580    9.8919    5.8002 H   0  0  0  0  0  0  0  0  0  0  0  0
   10.7668    7.9832    4.8432 H   0  0  0  0  0  0  0  0  0  0  0  0
    9.3436    7.6309    4.1242 H   0  0  0  0  0  0  0  0  0  0  0  0
    3.5240    9.4273   -0.4790 H   0  0  0  0  0  0  0  0  0  0  0  0
    7.5003    8.9807    1.3977 H   0  0  0  0  0  0  0  0  0  0  0  0
    7.9576    7.9869    2.6101 H   0  0  0  0  0  0  0  0  0  0  0  0
    8.0994    9.0507    4.9723 H   0  0  0  0  0  0  0  0  0  0  0  0
    7.7324   10.6390    5.0687 H   0  0  0  0  0  0  0  0  0  0  0  0
   12.6396   11.4206   -1.0872 H   0  0  0  0  0  0  0  0  0  0  0  0
   12.5078   14.0969    2.0475 H   0  0  0  0  0  0  0  0  0  0  0  0
    5.9232    9.5973    0.3681 H   0  0  0  0  0  0  0  0  0  0  0  0
   12.1504    9.6427    0.4101 H   0  0  0  0  0  0  0  0  0  0  0  0
   12.0148   12.3209    3.5438 H   0  0  0  0  0  0  0  0  0  0  0  0
    9.5037   10.1828    1.5782 H   0  0  0  0  0  0  0  0  0  0  0  0
    9.8529    8.6005    1.3752 H   0  0  0  0  0  0  0  0  0  0  0  0
   10.0904   10.2823    5.1071 H   0  0  0  0  0  0  0  0  0  0  0  0
    9.6410   11.1955    3.8301 H   0  0  0  0  0  0  0  0  0  0  0  0
   12.1384    9.9582    3.9460 H   0  0  0  0  0  0  0  0  0  0  0  0
   12.2398    8.8942    2.7114 H   0  0  0  0  0  0  0  0  0  0  0  0
   10.8573    7.1150    2.1643 H   0  0  0  0  0  0  0  0  0  0  0  0
  1 20  1  0  0  0  0
  2  8  1  0  0  0  0
  3  7  2  0  0  0  0
  3 21  1  0  0  0  0
  4  7  1  0  0  0  0
  4 22  2  0  0  0  0
  5  9  1  0  0  0  0
  5 21  1  0  0  0  0
  6 10  1  0  0  0  0
  6 11  1  0  0  0  0
  6 22  1  0  0  0  0
  8 25  1  0  0  0  0
  9 14  2  0  0  0  0
 10 17  1  0  0  0  0
 11 18  1  0  0  0  0
 12 15  2  0  0  0  0
 12 20  1  0  0  0  0
 13 16  1  0  0  0  0
 13 20  2  0  0  0  0
 14 24  1  0  0  0  0
 15 23  1  0  0  0  0
 16 23  2  0  0  0  0
 17 25  1  0  0  0  0
 18 25  1  0  0  0  0
 19 23  1  0  0  0  0
 19 25  1  0  0  0  0
 21 24  2  0  0  0  0
 22 24  1  0  0  0  0
  2 26  1  0  0  0  0
  2 27  1  0  0  0  0
  5 28  1  0  0  0  0
  7 29  1  0  0  0  0
  8 30  1  0  0  0  0
  8 31  1  0  0  0  0
  9 32  1  0  0  0  0
 10 33  1  0  0  0  0
 10 34  1  0  0  0  0
 11 35  1  0  0  0  0
 11 36  1  0  0  0  0
 12 37  1  0  0  0  0
 13 38  1  0  0  0  0
 14 39  1  0  0  0  0
 15 40  1  0  0  0  0
 16 41  1  0  0  0  0
 17 42  1  0  0  0  0
 17 43  1  0  0  0  0
 18 44  1  0  0  0  0
 18 45  1  0  0  0  0
 19 46  1  0  0  0  0
 19 47  1  0  0  0  0
  2 48  1  0  0  0  0
M  CHG  1   2   1
M  END
$$$$
2UZT_SS3_A_1351
prProtoss 05262315383D 1   1.00000     0.00000     0
Protoss beta proteinsplus
 50 53  0  0  0  0            999 V2000
   24.1410    9.2250   35.0980 O   0  0  0  0  0  0  0  0  0  0  0  0
   26.1000    7.9560   33.4730 N   0  3  0  0  0  0  0  0  0  0  0  0
   16.0570    6.6170   37.9110 N   0  0  0  0  0  0  0  0  0  0  0  0
   15.7460    7.9260   37.9440 N   0  0  0  0  0  0  0  0  0  0  0  0
   22.6800   11.8030   37.2860 N   0  0  0  0  0  0  0  0  0  0  0  0
   18.0430    5.0910   37.5710 C   0  0  0  0  0  0  0  0  0  0  0  0
   23.7600    8.2660   34.1060 C   0  0  0  0  0  0  0  0  0  0  0  0
   23.5350   11.0840   36.4970 C   0  0  0  0  0  0  0  0  0  0  0  0
   21.4100   11.3540   37.5150 C   0  0  0  0  0  0  0  0  0  0  0  0
   21.9510    4.0950   36.8420 C   0  0  0  0  0  0  0  0  0  0  0  0
   22.2250    5.3830   37.3590 C   0  0  0  0  0  0  0  0  0  0  0  0
   22.7530    3.5660   35.8030 C   0  0  0  0  0  0  0  0  0  0  0  0
   23.2980    6.1400   36.8350 C   0  0  0  0  0  0  0  0  0  0  0  0
   23.8290    4.3240   35.2740 C   0  0  0  0  0  0  0  0  0  0  0  0
   17.0970   10.0980   37.6550 C   0  0  0  0  0  0  0  0  0  0  0  0
   18.4250   10.5600   37.4040 C   0  0  0  0  0  0  0  0  0  0  0  0
   21.8220    9.4170   36.1390 C   0  0  0  0  0  0  0  0  0  0  0  0
   25.2620    6.4320   35.2180 C   0  0  0  0  0  0  0  0  0  0  0  0
   19.2280    8.2560   37.3030 C   0  0  0  0  0  0  0  0  0  0  0  0
   23.1600    9.8690   35.8870 C   0  0  0  0  0  0  0  0  0  0  0  0
   24.9130    7.2370   33.9290 C   0  0  2  0  0  0  0  0  0  0  0  0
   17.3630    6.4370   37.6750 C   0  0  0  0  0  0  0  0  0  0  0  0
   16.8430    8.7310   37.7280 C   0  0  0  0  0  0  0  0  0  0  0  0
   24.1120    5.6200   35.7840 C   0  0  0  0  0  0  0  0  0  0  0  0
   20.9220   10.1480   36.9580 C   0  0  0  0  0  0  0  0  0  0  0  0
   19.5140    9.6560   37.2220 C   0  0  0  0  0  0  0  0  0  0  0  0
   17.9320    7.7810   37.5480 C   0  0  0  0  0  0  0  0  0  0  0  0
   26.8547    7.3110   33.3527 H   0  0  0  0  0  0  0  0  0  0  0  0
   25.9033    8.4052   32.6015 H   0  0  0  0  0  0  0  0  0  0  0  0
   14.8231    8.2749   38.1069 H   0  0  0  0  0  0  0  0  0  0  0  0
   19.0177    5.2230   37.3908 H   0  0  0  0  0  0  0  0  0  0  0  0
   17.9274    4.5919   38.4298 H   0  0  0  0  0  0  0  0  0  0  0  0
   17.6338    4.5677   36.8236 H   0  0  0  0  0  0  0  0  0  0  0  0
   23.5895    8.7314   33.2375 H   0  0  0  0  0  0  0  0  0  0  0  0
   22.9295    7.7922   34.3990 H   0  0  0  0  0  0  0  0  0  0  0  0
   24.4602   11.4327   36.3471 H   0  0  0  0  0  0  0  0  0  0  0  0
   20.8040   11.8967   38.0966 H   0  0  0  0  0  0  0  0  0  0  0  0
   21.1914    3.5590   37.2104 H   0  0  0  0  0  0  0  0  0  0  0  0
   21.6603    5.7577   38.0944 H   0  0  0  0  0  0  0  0  0  0  0  0
   22.5604    2.6542   35.4403 H   0  0  0  0  0  0  0  0  0  0  0  0
   23.4887    7.0494   37.2046 H   0  0  0  0  0  0  0  0  0  0  0  0
   24.3910    3.9447   34.5389 H   0  0  0  0  0  0  0  0  0  0  0  0
   16.3523   10.7540   37.7779 H   0  0  0  0  0  0  0  0  0  0  0  0
   18.5963   11.5440   37.3544 H   0  0  0  0  0  0  0  0  0  0  0  0
   21.5138    8.5605   35.7249 H   0  0  0  0  0  0  0  0  0  0  0  0
   25.5618    7.0793   35.9188 H   0  0  0  0  0  0  0  0  0  0  0  0
   26.0102    5.8049   35.0015 H   0  0  0  0  0  0  0  0  0  0  0  0
   19.9723    7.5993   37.1816 H   0  0  0  0  0  0  0  0  0  0  0  0
   24.6469    6.5877   33.2165 H   0  0  0  0  0  0  0  0  0  0  0  0
   26.3546    8.6440   34.1526 H   0  0  0  0  0  0  0  0  0  0  0  0
  1  7  1  0  0  0  0
  1 20  1  0  0  0  0
  2 21  1  0  0  0  0
  3  4  1  0  0  0  0
  3 22  2  0  0  0  0
  4 23  1  0  0  0  0
  5  8  2  0  0  0  0
  5  9  1  0  0  0  0
  6 22  1  0  0  0  0
  7 21  1  0  0  0  0
  8 20  1  0  0  0  0
  9 25  2  0  0  0  0
 10 11  2  0  0  0  0
 10 12  1  0  0  0  0
 11 13  1  0  0  0  0
 12 14  2  0  0  0  0
 13 24  2  0  0  0  0
 14 24  1  0  0  0  0
 15 16  1  0  0  0  0
 15 23  2  0  0  0  0
 16 26  2  0  0  0  0
 17 20  2  0  0  0  0
 17 25  1  0  0  0  0
 18 21  1  0  0  0  0
 18 24  1  0  0  0  0
 19 26  1  0  0  0  0
 19 27  2  0  0  0  0
 22 27  1  0  0  0  0
 23 27  1  0  0  0  0
 25 26  1  0  0  0  0
  2 28  1  0  0  0  0
  2 29  1  0  0  0  0
  4 30  1  0  0  0  0
  6 31  1  0  0  0  0
  6 32  1  0  0  0  0
  6 33  1  0  0  0  0
  7 34  1  0  0  0  0
  7 35  1  0  0  0  0
  8 36  1  0  0  0  0
  9 37  1  0  0  0  0
 10 38  1  0  0  0  0
 11 39  1  0  0  0  0
 12 40  1  0  0  0  0
 13 41  1  0  0  0  0
 14 42  1  0  0  0  0
 15 43  1  0  0  0  0
 16 44  1  0  0  0  0
 17 45  1  0  0  0  0
 18 46  1  0  0  0  0
 18 47  1  0  0  0  0
 19 48  1  0  0  0  0
 21 49  1  0  0  0  0
  2 50  1  0  0  0  0
M  CHG  1   2   1
M  END
$$$$
6QJ7_J4B_A_401
prProtoss 06142303033D 1   1.00000     0.00000     0
Protoss beta proteinsplus
 44 45  0  0  0  0            999 V2000
  -22.0540  -14.4860    1.3840 F   0  0  0  0  0  0  0  0  0  0  0  0
  -23.3680  -13.5930   -3.0210 F   0  0  0  0  0  0  0  0  0  0  0  0
  -26.3620  -10.7250    0.9960 O   0  0  0  0  0  0  0  0  0  0  0  0
  -27.0330  -10.8100   -2.8600 O   0  0  0  0  0  0  0  0  0  0  0  0
  -33.3360  -10.2020   -3.7440 O   0  0  0  0  0  0  0  0  0  0  0  0
  -23.9480  -10.1060    1.8020 O   0  0  0  0  0  0  0  0  0  0  0  0
  -26.1370   -9.4910   -0.8360 N   0  0  0  0  0  0  0  0  0  0  0  0
  -27.4840   -9.4130   -1.1990 N   0  0  0  0  0  0  0  0  0  0  0  0
  -28.2460  -11.0460   -5.9280 C   0  0  0  0  0  0  0  0  0  0  0  0
  -31.5880   -9.9110   -5.8630 C   0  0  0  0  0  0  0  0  0  0  0  0
  -28.6400   -9.7540   -5.2200 C   0  0  0  0  0  0  0  0  0  0  0  0
  -31.6220  -10.2700   -2.0750 C   0  0  0  0  0  0  0  0  0  0  0  0
  -30.2740  -10.2790   -1.7540 C   0  0  0  0  0  0  0  0  0  0  0  0
  -22.7100  -14.0400   -0.8280 C   0  0  0  0  0  0  0  0  0  0  0  0
  -23.0390  -12.3950    0.8850 C   0  0  0  0  0  0  0  0  0  0  0  0
  -23.7240  -11.9210   -1.3930 C   0  0  0  0  0  0  0  0  0  0  0  0
  -25.6450  -10.1590    0.2080 C   0  0  0  0  0  0  0  0  0  0  0  0
  -27.8620  -10.0990   -2.3080 C   0  0  0  0  0  0  0  0  0  0  0  0
  -22.5840  -13.6400    0.4900 C   0  0  0  0  0  0  0  0  0  0  0  0
  -23.2750  -13.1820   -1.7560 C   0  0  0  0  0  0  0  0  0  0  0  0
  -32.0100  -10.1690   -3.4190 C   0  0  0  0  0  0  0  0  0  0  0  0
  -24.1450  -10.1840    0.3920 C   0  0  2  0  0  0  0  0  0  0  0  0
  -31.0580  -10.0320   -4.4430 C   0  0  0  0  0  0  0  0  0  0  0  0
  -23.6280  -11.5330   -0.0520 C   0  0  0  0  0  0  0  0  0  0  0  0
  -29.2880  -10.0860   -2.7580 C   0  0  0  0  0  0  0  0  0  0  0  0
  -29.6780   -9.9800   -4.1280 C   0  0  0  0  0  0  0  0  0  0  0  0
  -34.0247  -10.2978   -3.0253 H   0  0  0  0  0  0  0  0  0  0  0  0
  -24.3492   -9.2580    2.1482 H   0  0  0  0  0  0  0  0  0  0  0  0
  -25.4822   -9.0012   -1.4116 H   0  0  0  0  0  0  0  0  0  0  0  0
  -28.1392   -8.8768   -0.6667 H   0  0  0  0  0  0  0  0  0  0  0  0
  -27.5655  -10.8457   -6.6328 H   0  0  0  0  0  0  0  0  0  0  0  0
  -27.8594  -11.6857   -5.2636 H   0  0  0  0  0  0  0  0  0  0  0  0
  -29.0547  -11.4538   -6.3518 H   0  0  0  0  0  0  0  0  0  0  0  0
  -30.8212   -9.8194   -6.4983 H   0  0  0  0  0  0  0  0  0  0  0  0
  -32.1154  -10.7289   -6.0928 H   0  0  0  0  0  0  0  0  0  0  0  0
  -32.1760   -9.1050   -5.9318 H   0  0  0  0  0  0  0  0  0  0  0  0
  -29.0178   -9.1206   -5.8954 H   0  0  0  0  0  0  0  0  0  0  0  0
  -27.8225   -9.3524   -4.8072 H   0  0  0  0  0  0  0  0  0  0  0  0
  -32.3123  -10.3350   -1.3544 H   0  0  0  0  0  0  0  0  0  0  0  0
  -29.9924  -10.4229   -0.8053 H   0  0  0  0  0  0  0  0  0  0  0  0
  -22.3940  -14.9460   -1.1097 H   0  0  0  0  0  0  0  0  0  0  0  0
  -22.9481  -12.1092    1.8390 H   0  0  0  0  0  0  0  0  0  0  0  0
  -24.1090  -11.3009   -2.0766 H   0  0  0  0  0  0  0  0  0  0  0  0
  -23.6955   -9.4328   -0.0914 H   0  0  0  0  0  0  0  0  0  0  0  0
  1 19  1  0  0  0  0
  2 20  1  0  0  0  0
  3 17  2  0  0  0  0
  4 18  2  0  0  0  0
  5 21  1  0  0  0  0
  6 22  1  0  0  0  0
  7  8  1  0  0  0  0
  7 17  1  0  0  0  0
  8 18  1  0  0  0  0
  9 11  1  0  0  0  0
 10 23  1  0  0  0  0
 11 26  1  0  0  0  0
 12 13  1  0  0  0  0
 12 21  2  0  0  0  0
 13 25  2  0  0  0  0
 14 19  2  0  0  0  0
 14 20  1  0  0  0  0
 15 19  1  0  0  0  0
 15 24  2  0  0  0  0
 16 20  2  0  0  0  0
 16 24  1  0  0  0  0
 17 22  1  0  0  0  0
 18 25  1  0  0  0  0
 21 23  1  0  0  0  0
 22 24  1  0  0  0  0
 23 26  2  0  0  0  0
 25 26  1  0  0  0  0
  5 27  1  0  0  0  0
  6 28  1  0  0  0  0
  7 29  1  0  0  0  0
  8 30  1  0  0  0  0
  9 31  1  0  0  0  0
  9 32  1  0  0  0  0
  9 33  1  0  0  0  0
 10 34  1  0  0  0  0
 10 35  1  0  0  0  0
 10 36  1  0  0  0  0
 11 37  1  0  0  0  0
 11 38  1  0  0  0  0
 12 39  1  0  0  0  0
 13 40  1  0  0  0  0
 14 41  1  0  0  0  0
 15 42  1  0  0  0  0
 16 43  1  0  0  0  0
 22 44  1  0  0  0  0
M  END
$$$$
3L9N_L9N_A_351
prProtoss 05262315183D 1   1.00000     0.00000     0
Protoss beta proteinsplus
 47 50  0  0  0  0            999 V2000
   31.0860   17.6540   58.9400 S   0  0  0  0  0  0  0  0  0  0  0  0
   29.6000   22.2690   58.5680 N   0  3  0  0  0  0  0  0  0  0  0  0
   34.7850   12.6360   55.9320 N   0  0  0  0  0  0  0  0  0  0  0  0
   28.6840   17.3840   59.3000 N   0  0  0  0  0  0  0  0  0  0  0  0
   33.5410   12.1190   55.8610 N   0  0  0  0  0  0  0  0  0  0  0  0
   28.9930   16.2070   58.6980 N   0  0  0  0  0  0  0  0  0  0  0  0
   29.4300   19.6270   60.1750 N   0  0  0  0  0  0  0  0  0  0  0  0
   36.1800   17.3630   59.0120 C   0  0  0  0  0  0  0  0  0  0  0  0
   34.6460   13.8420   56.5680 C   0  0  0  0  0  0  0  0  0  0  0  0
   30.4600   20.6520   60.1920 C   0  0  0  0  0  0  0  0  0  0  0  0
   31.0830   12.7200   56.5520 C   0  0  0  0  0  0  0  0  0  0  0  0
   34.2570   18.7700   57.5560 C   0  0  0  0  0  0  0  0  0  0  0  0
   34.8130   19.5120   59.9510 C   0  0  0  0  0  0  0  0  0  0  0  0
   33.2850   19.8420   57.4660 C   0  0  0  0  0  0  0  0  0  0  0  0
   33.8510   20.5700   59.8560 C   0  0  0  0  0  0  0  0  0  0  0  0
   30.3580   13.8280   57.2290 C   0  0  0  0  0  0  0  0  0  0  0  0
   32.0450   21.8180   58.5330 C   0  0  0  0  0  0  0  0  0  0  0  0
   32.5200   15.0970   57.5440 C   0  0  0  0  0  0  0  0  0  0  0  0
   29.6280   18.3220   59.5400 C   0  0  0  0  0  0  0  0  0  0  0  0
   30.3390   16.1750   58.4130 C   0  0  0  0  0  0  0  0  0  0  0  0
   30.6360   21.2270   58.7690 C   0  0  2  0  0  0  0  0  0  0  0  0
   32.5250   12.8370   56.3860 C   0  0  0  0  0  0  0  0  0  0  0  0
   34.9850   18.6460   58.8070 C   0  0  0  0  0  0  0  0  0  0  0  0
   33.1040   20.7110   58.6180 C   0  0  0  0  0  0  0  0  0  0  0  0
   31.0550   15.0350   57.7380 C   0  0  0  0  0  0  0  0  0  0  0  0
   33.2650   14.0390   56.8860 C   0  0  0  0  0  0  0  0  0  0  0  0
   29.6923   22.6584   57.6516 H   0  0  0  0  0  0  0  0  0  0  0  0
   28.6927   21.8604   58.6667 H   0  0  0  0  0  0  0  0  0  0  0  0
   33.3762   11.2307   55.4324 H   0  0  0  0  0  0  0  0  0  0  0  0
   28.5523   19.8200   60.6137 H   0  0  0  0  0  0  0  0  0  0  0  0
   36.5819   17.4247   59.9256 H   0  0  0  0  0  0  0  0  0  0  0  0
   35.7363   16.4736   58.9024 H   0  0  0  0  0  0  0  0  0  0  0  0
   36.8988   17.4639   58.3241 H   0  0  0  0  0  0  0  0  0  0  0  0
   35.3879   14.4795   56.7757 H   0  0  0  0  0  0  0  0  0  0  0  0
   31.3235   20.2521   60.4993 H   0  0  0  0  0  0  0  0  0  0  0  0
   30.1910   21.3848   60.8170 H   0  0  0  0  0  0  0  0  0  0  0  0
   30.5925   11.9147   56.2191 H   0  0  0  0  0  0  0  0  0  0  0  0
   34.4188   18.1450   56.7924 H   0  0  0  0  0  0  0  0  0  0  0  0
   35.3493   19.3770   60.7842 H   0  0  0  0  0  0  0  0  0  0  0  0
   32.7517   19.9806   56.6315 H   0  0  0  0  0  0  0  0  0  0  0  0
   33.6980   21.1947   60.6217 H   0  0  0  0  0  0  0  0  0  0  0  0
   29.3673   13.7572   57.3451 H   0  0  0  0  0  0  0  0  0  0  0  0
   32.2339   22.5102   59.2295 H   0  0  0  0  0  0  0  0  0  0  0  0
   32.0792   22.2391   57.6266 H   0  0  0  0  0  0  0  0  0  0  0  0
   33.0161   15.8981   57.8788 H   0  0  0  0  0  0  0  0  0  0  0  0
   30.4829   20.4931   58.1072 H   0  0  0  0  0  0  0  0  0  0  0  0
   29.7165   22.9909   59.2502 H   0  0  0  0  0  0  0  0  0  0  0  0
  1 19  1  0  0  0  0
  1 20  1  0  0  0  0
  2 21  1  0  0  0  0
  3  5  1  0  0  0  0
  3  9  2  0  0  0  0
  4  6  1  0  0  0  0
  4 19  2  0  0  0  0
  5 22  1  0  0  0  0
  6 20  2  0  0  0  0
  7 10  1  0  0  0  0
  7 19  1  0  0  0  0
  8 23  1  0  0  0  0
  9 26  1  0  0  0  0
 10 21  1  0  0  0  0
 11 16  1  0  0  0  0
 11 22  2  0  0  0  0
 12 14  1  0  0  0  0
 12 23  2  0  0  0  0
 13 15  2  0  0  0  0
 13 23  1  0  0  0  0
 14 24  2  0  0  0  0
 15 24  1  0  0  0  0
 16 25  2  0  0  0  0
 17 21  1  0  0  0  0
 17 24  1  0  0  0  0
 18 25  1  0  0  0  0
 18 26  2  0  0  0  0
 20 25  1  0  0  0  0
 22 26  1  0  0  0  0
  2 27  1  0  0  0  0
  2 28  1  0  0  0  0
  5 29  1  0  0  0  0
  7 30  1  0  0  0  0
  8 31  1  0  0  0  0
  8 32  1  0  0  0  0
  8 33  1  0  0  0  0
  9 34  1  0  0  0  0
 10 35  1  0  0  0  0
 10 36  1  0  0  0  0
 11 37  1  0  0  0  0
 12 38  1  0  0  0  0
 13 39  1  0  0  0  0
 14 40  1  0  0  0  0
 15 41  1  0  0  0  0
 16 42  1  0  0  0  0
 17 43  1  0  0  0  0
 17 44  1  0  0  0  0
 18 45  1  0  0  0  0
 21 46  1  0  0  0  0
  2 47  1  0  0  0  0
M  CHG  1   2   1
M  END
$$$$
6FRX_E3Z_A_401
prProtoss 06142302383D 1   1.00000     0.00000     0
Protoss beta proteinsplus
 44 46  0  0  0  0            999 V2000
  -15.2770    7.0040  -17.1760 Cl  0  0  0  0  0  0  0  0  0  0  0  0
   -6.5630    4.3780  -18.5540 O   0  0  0  0  0  0  0  0  0  0  0  0
  -17.0150    3.5850  -18.1800 N   0  0  0  0  0  0  0  0  0  0  0  0
  -14.8320    3.0770  -17.6310 N   0  0  0  0  0  0  0  0  0  0  0  0
  -16.3840    1.3880  -18.3470 N   0  0  0  0  0  0  0  0  0  0  0  0
   -8.7880    4.1430  -18.0740 N   0  0  0  0  0  0  0  0  0  0  0  0
  -13.3380    4.8300  -16.9320 N   0  0  0  0  0  0  0  0  0  0  0  0
   -5.4900    2.9520  -16.5000 C   0  0  0  0  0  0  0  0  0  0  0  0
  -16.8080    4.9290  -17.9170 C   0  0  0  0  0  0  0  0  0  0  0  0
   -7.0120    3.0610  -16.6490 C   0  0  0  0  0  0  0  0  0  0  0  0
  -14.1780   -2.1390  -17.8150 C   0  0  0  0  0  0  0  0  0  0  0  0
  -15.5500   -2.1660  -18.0310 C   0  0  0  0  0  0  0  0  0  0  0  0
  -13.5230   -0.9120  -17.7790 C   0  0  0  0  0  0  0  0  0  0  0  0
  -11.1600    1.9740  -16.1990 C   0  0  0  0  0  0  0  0  0  0  0  0
  -16.2510   -0.9720  -18.2090 C   0  0  0  0  0  0  0  0  0  0  0  0
  -14.2330    0.2750  -17.9470 C   0  0  0  0  0  0  0  0  0  0  0  0
   -9.9770    2.4060  -16.7970 C   0  0  0  0  0  0  0  0  0  0  0  0
  -12.2970    2.7780  -16.2390 C   0  0  0  0  0  0  0  0  0  0  0  0
  -11.0500    4.4370  -17.4670 C   0  0  0  0  0  0  0  0  0  0  0  0
  -16.0460    2.6710  -18.0400 C   0  0  0  0  0  0  0  0  0  0  0  0
   -7.4580    3.9000  -17.8430 C   0  0  0  0  0  0  0  0  0  0  0  0
  -15.5480    5.3280  -17.4930 C   0  0  0  0  0  0  0  0  0  0  0  0
  -14.5500    4.3700  -17.3400 C   0  0  0  0  0  0  0  0  0  0  0  0
  -15.6130    0.2700  -18.1620 C   0  0  0  0  0  0  0  0  0  0  0  0
   -9.8900    3.6560  -17.4220 C   0  0  0  0  0  0  0  0  0  0  0  0
  -12.2570    4.0190  -16.8830 C   0  0  0  0  0  0  0  0  0  0  0  0
  -17.2886    1.2469  -18.7492 H   0  0  0  0  0  0  0  0  0  0  0  0
   -8.9819    4.7680  -18.8301 H   0  0  0  0  0  0  0  0  0  0  0  0
  -13.2436    5.7883  -16.6624 H   0  0  0  0  0  0  0  0  0  0  0  0
   -5.2726    2.3910  -15.7013 H   0  0  0  0  0  0  0  0  0  0  0  0
   -5.1043    2.5286  -17.3197 H   0  0  0  0  0  0  0  0  0  0  0  0
   -5.1004    3.8654  -16.3818 H   0  0  0  0  0  0  0  0  0  0  0  0
  -17.5464    5.5939  -18.0295 H   0  0  0  0  0  0  0  0  0  0  0  0
   -7.3808    3.4760  -15.8173 H   0  0  0  0  0  0  0  0  0  0  0  0
   -7.3848    2.1392  -16.7552 H   0  0  0  0  0  0  0  0  0  0  0  0
  -13.6682   -2.9897  -17.6871 H   0  0  0  0  0  0  0  0  0  0  0  0
  -16.0351   -3.0400  -18.0590 H   0  0  0  0  0  0  0  0  0  0  0  0
  -12.5344   -0.8818  -17.6313 H   0  0  0  0  0  0  0  0  0  0  0  0
  -11.1924    1.0858  -15.7407 H   0  0  0  0  0  0  0  0  0  0  0  0
  -17.2366   -1.0066  -18.3746 H   0  0  0  0  0  0  0  0  0  0  0  0
  -13.7451    1.1473  -17.9130 H   0  0  0  0  0  0  0  0  0  0  0  0
   -9.1737    1.8107  -16.7792 H   0  0  0  0  0  0  0  0  0  0  0  0
  -13.1434    2.4673  -15.8065 H   0  0  0  0  0  0  0  0  0  0  0  0
  -11.0187    5.3225  -17.9305 H   0  0  0  0  0  0  0  0  0  0  0  0
  1 22  1  0  0  0  0
  2 21  2  0  0  0  0
  3  9  2  0  0  0  0
  3 20  1  0  0  0  0
  4 20  2  0  0  0  0
  4 23  1  0  0  0  0
  5 20  1  0  0  0  0
  5 24  1  0  0  0  0
  6 21  1  0  0  0  0
  6 25  1  0  0  0  0
  7 23  1  0  0  0  0
  7 26  1  0  0  0  0
  8 10  1  0  0  0  0
  9 22  1  0  0  0  0
 10 21  1  0  0  0  0
 11 12  2  0  0  0  0
 11 13  1  0  0  0  0
 12 15  1  0  0  0  0
 13 16  2  0  0  0  0
 14 17  1  0  0  0  0
 14 18  2  0  0  0  0
 15 24  2  0  0  0  0
 16 24  1  0  0  0  0
 17 25  2  0  0  0  0
 18 26  1  0  0  0  0
 19 25  1  0  0  0  0
 19 26  2  0  0  0  0
 22 23  2  0  0  0  0
  5 27  1  0  0  0  0
  6 28  1  0  0  0  0
  7 29  1  0  0  0  0
  8 30  1  0  0  0  0
  8 31  1  0  0  0  0
  8 32  1  0  0  0  0
  9 33  1  0  0  0  0
 10 34  1  0  0  0  0
 10 35  1  0  0  0  0
 11 36  1  0  0  0  0
 12 37  1  0  0  0  0
 13 38  1  0  0  0  0
 14 39  1  0  0  0  0
 15 40  1  0  0  0  0
 16 41  1  0  0  0  0
 17 42  1  0  0  0  0
 18 43  1  0  0  0  0
 19 44  1  0  0  0  0
M  END
$$$$
3P0M_4SB_A_351
prProtoss 06132323423D 1   1.00000     0.00000     0
Protoss beta proteinsplus
 42 43  0  0  0  0            999 V2000
   31.8430   10.0620   -5.5860 Br  0  0  0  0  0  0  0  0  0  0  0  0
   25.6810   10.2100    1.0610 O   0  0  0  0  0  0  0  0  0  0  0  0
   33.5180   10.1410   -3.1080 O   0  0  0  0  0  0  0  0  0  0  0  0
   22.3730    7.4380   -0.8730 N   0  3  0  0  0  0  0  0  0  0  0  0
   27.3200   10.1260   -0.9410 N   0  0  0  0  0  0  0  0  0  0  0  0
   25.8840   10.1730   -1.0520 N   0  0  0  0  0  0  0  0  0  0  0  0
   21.9360    8.7420   -1.2750 C   0  0  0  0  0  0  0  0  0  0  0  0
   27.9480   10.1150   -2.0970 C   0  0  0  0  0  0  0  0  0  0  0  0
   22.3630   14.3000    0.6020 C   0  0  0  0  0  0  0  0  0  0  0  0
   23.1160   13.9530   -0.5040 C   0  0  0  0  0  0  0  0  0  0  0  0
   21.9760   13.2770    1.5560 C   0  0  0  0  0  0  0  0  0  0  0  0
   23.1510    9.6770   -1.4620 C   0  0  0  0  0  0  0  0  0  0  0  0
   23.5420   12.5610   -0.7250 C   0  0  0  0  0  0  0  0  0  0  0  0
   22.3840   11.9510    1.3370 C   0  0  0  0  0  0  0  0  0  0  0  0
   31.6560   10.1680   -1.4030 C   0  0  0  0  0  0  0  0  0  0  0  0
   30.3310   10.1670   -1.1510 C   0  0  0  0  0  0  0  0  0  0  0  0
   29.9370   10.0950   -3.5340 C   0  0  0  0  0  0  0  0  0  0  0  0
   25.1580   10.2080    0.0620 C   0  0  0  0  0  0  0  0  0  0  0  0
   31.2800   10.1070   -3.7770 C   0  0  0  0  0  0  0  0  0  0  0  0
   32.1380   10.1340   -2.7830 C   0  0  0  0  0  0  0  0  0  0  0  0
   29.4620   10.1260   -2.2150 C   0  0  0  0  0  0  0  0  0  0  0  0
   23.2020   11.6100    0.1520 C   0  0  0  0  0  0  0  0  0  0  0  0
   23.6300   10.2490   -0.0800 C   0  0  1  0  0  0  0  0  0  0  0  0
   34.2030   10.1701   -2.3800 H   0  0  0  0  0  0  0  0  0  0  0  0
   21.5788    6.8419   -0.7551 H   0  0  0  0  0  0  0  0  0  0  0  0
   22.9745    7.0569   -1.5751 H   0  0  0  0  0  0  0  0  0  0  0  0
   25.4420   10.1792   -1.9490 H   0  0  0  0  0  0  0  0  0  0  0  0
   21.3334    9.1198   -0.5720 H   0  0  0  0  0  0  0  0  0  0  0  0
   21.4372    8.6716   -2.1389 H   0  0  0  0  0  0  0  0  0  0  0  0
   27.4038   10.0987   -2.9358 H   0  0  0  0  0  0  0  0  0  0  0  0
   22.0865   15.2505    0.7440 H   0  0  0  0  0  0  0  0  0  0  0  0
   23.3754   14.6580   -1.1640 H   0  0  0  0  0  0  0  0  0  0  0  0
   21.4268   13.5128    2.3577 H   0  0  0  0  0  0  0  0  0  0  0  0
   22.8921   10.4360   -2.0593 H   0  0  0  0  0  0  0  0  0  0  0  0
   23.8992    9.1629   -1.8815 H   0  0  0  0  0  0  0  0  0  0  0  0
   24.0856   12.3265   -1.5309 H   0  0  0  0  0  0  0  0  0  0  0  0
   22.1209   11.2352    1.9838 H   0  0  0  0  0  0  0  0  0  0  0  0
   32.3089   10.1920   -0.6459 H   0  0  0  0  0  0  0  0  0  0  0  0
   29.9888   10.1954   -0.2118 H   0  0  0  0  0  0  0  0  0  0  0  0
   29.2914   10.0641   -4.2970 H   0  0  0  0  0  0  0  0  0  0  0  0
   23.2391    9.6770    0.6412 H   0  0  0  0  0  0  0  0  0  0  0  0
   22.8707    7.5051   -0.0083 H   0  0  0  0  0  0  0  0  0  0  0  0
  1 19  1  0  0  0  0
  2 18  2  0  0  0  0
  3 20  1  0  0  0  0
  4  7  1  0  0  0  0
  5  6  1  0  0  0  0
  5  8  2  0  0  0  0
  6 18  1  0  0  0  0
  7 12  1  0  0  0  0
  8 21  1  0  0  0  0
  9 10  2  0  0  0  0
  9 11  1  0  0  0  0
 10 13  1  0  0  0  0
 11 14  2  0  0  0  0
 12 23  1  0  0  0  0
 13 22  2  0  0  0  0
 14 22  1  0  0  0  0
 15 16  1  0  0  0  0
 15 20  2  0  0  0  0
 16 21  2  0  0  0  0
 17 19  2  0  0  0  0
 17 21  1  0  0  0  0
 18 23  1  0  0  0  0
 19 20  1  0  0  0  0
 22 23  1  0  0  0  0
  3 24  1  0  0  0  0
  4 25  1  0  0  0  0
  4 26  1  0  0  0  0
  6 27  1  0  0  0  0
  7 28  1  0  0  0  0
  7 29  1  0  0  0  0
  8 30  1  0  0  0  0
  9 31  1  0  0  0  0
 10 32  1  0  0  0  0
 11 33  1  0  0  0  0
 12 34  1  0  0  0  0
 12 35  1  0  0  0  0
 13 36  1  0  0  0  0
 14 37  1  0  0  0  0
 15 38  1  0  0  0  0
 16 39  1  0  0  0  0
 17 40  1  0  0  0  0
 23 41  1  0  0  0  0
  4 42  1  0  0  0  0
M  CHG  1   4   1
M  END
$$$$
3L9M_L9M_A_351
prProtoss 05262315433D 1   1.00000     0.00000     0
Protoss beta proteinsplus
 50 53  0  0  0  0            999 V2000
   30.0540    3.5020    7.6100 S   0  0  0  0  0  0  0  0  0  0  0  0
   30.5300   -0.8930    5.7050 N   0  3  0  0  0  0  0  0  0  0  0  0
   31.5370    4.0450    5.6520 N   0  0  0  0  0  0  0  0  0  0  0  0
   30.8120    5.0500    5.7470 N   0  0  0  0  0  0  0  0  0  0  0  0
   25.6970    8.4820    9.3970 N   0  0  0  0  0  0  0  0  0  0  0  0
   26.2750    9.0600    8.3410 N   0  0  0  0  0  0  0  0  0  0  0  0
   31.9660    1.7630    6.3140 N   0  0  0  0  0  0  0  0  0  0  0  0
   25.7470    6.4170   10.7630 C   0  0  0  0  0  0  0  0  0  0  0  0
   27.6800    3.1600   12.3800 C   0  0  0  0  0  0  0  0  0  0  0  0
   31.4970    0.7340    7.2850 C   0  0  0  0  0  0  0  0  0  0  0  0
   28.1390    8.4110    6.6210 C   0  0  0  0  0  0  0  0  0  0  0  0
   27.3810    2.0450    9.9040 C   0  0  0  0  0  0  0  0  0  0  0  0
   29.3640    1.2250   11.3350 C   0  0  0  0  0  0  0  0  0  0  0  0
   27.7810    1.1500    8.8420 C   0  0  0  0  0  0  0  0  0  0  0  0
   29.7520    0.3440   10.2740 C   0  0  0  0  0  0  0  0  0  0  0  0
   29.0360    7.3230    6.2970 C   0  0  0  0  0  0  0  0  0  0  0  0
   29.4160   -0.6210    7.9330 C   0  0  0  0  0  0  0  0  0  0  0  0
   28.0920    5.9700    8.2750 C   0  0  0  0  0  0  0  0  0  0  0  0
   31.3030    2.9930    6.4540 C   0  0  0  0  0  0  0  0  0  0  0  0
   29.9220    5.0400    6.7610 C   0  0  0  0  0  0  0  0  0  0  0  0
   30.2030    0.0630    6.8040 C   0  0  2  0  0  0  0  0  0  0  0  0
   26.1770    7.2750    9.6450 C   0  0  0  0  0  0  0  0  0  0  0  0
   27.2330    8.2640    7.7620 C   0  0  0  0  0  0  0  0  0  0  0  0
   28.1870    2.0530   11.1160 C   0  0  0  0  0  0  0  0  0  0  0  0
   28.9600    0.3250    9.0570 C   0  0  0  0  0  0  0  0  0  0  0  0
   29.0030    6.1150    7.1230 C   0  0  0  0  0  0  0  0  0  0  0  0
   27.1860    7.0510    8.6160 C   0  0  0  0  0  0  0  0  0  0  0  0
   29.6911   -1.3342    5.3864 H   0  0  0  0  0  0  0  0  0  0  0  0
   30.9544   -0.3973    4.9473 H   0  0  0  0  0  0  0  0  0  0  0  0
   26.0365    9.9724    8.0082 H   0  0  0  0  0  0  0  0  0  0  0  0
   32.6790    1.5949    5.6333 H   0  0  0  0  0  0  0  0  0  0  0  0
   26.2553    5.5562   10.7372 H   0  0  0  0  0  0  0  0  0  0  0  0
   25.9256    6.8837   11.6292 H   0  0  0  0  0  0  0  0  0  0  0  0
   24.7683    6.2287   10.6814 H   0  0  0  0  0  0  0  0  0  0  0  0
   28.3008    3.0820   13.1601 H   0  0  0  0  0  0  0  0  0  0  0  0
   27.7000    4.0967   12.0305 H   0  0  0  0  0  0  0  0  0  0  0  0
   26.7504    2.9320   12.6696 H   0  0  0  0  0  0  0  0  0  0  0  0
   31.3282    1.1721    8.1679 H   0  0  0  0  0  0  0  0  0  0  0  0
   32.2064    0.0369    7.3890 H   0  0  0  0  0  0  0  0  0  0  0  0
   28.1378    9.2489    6.0752 H   0  0  0  0  0  0  0  0  0  0  0  0
   26.5804    2.6367    9.8096 H   0  0  0  0  0  0  0  0  0  0  0  0
   29.8802    1.2693   12.1903 H   0  0  0  0  0  0  0  0  0  0  0  0
   27.2643    1.0994    7.9873 H   0  0  0  0  0  0  0  0  0  0  0  0
   30.5532   -0.2468   10.3697 H   0  0  0  0  0  0  0  0  0  0  0  0
   29.6662    7.3949    5.5239 H   0  0  0  0  0  0  0  0  0  0  0  0
   29.9982   -1.3271    8.3361 H   0  0  0  0  0  0  0  0  0  0  0  0
   28.6037   -1.0464    7.5341 H   0  0  0  0  0  0  0  0  0  0  0  0
   28.0990    5.1304    8.8182 H   0  0  0  0  0  0  0  0  0  0  0  0
   29.6184    0.7769    6.4186 H   0  0  0  0  0  0  0  0  0  0  0  0
   31.1636   -1.5879    6.0452 H   0  0  0  0  0  0  0  0  0  0  0  0
  1 19  1  0  0  0  0
  1 20  1  0  0  0  0
  2 21  1  0  0  0  0
  3  4  1  0  0  0  0
  3 19  2  0  0  0  0
  4 20  2  0  0  0  0
  5  6  1  0  0  0  0
  5 22  2  0  0  0  0
  6 23  1  0  0  0  0
  7 10  1  0  0  0  0
  7 19  1  0  0  0  0
  8 22  1  0  0  0  0
  9 24  1  0  0  0  0
 10 21  1  0  0  0  0
 11 16  1  0  0  0  0
 11 23  2  0  0  0  0
 12 14  1  0  0  0  0
 12 24  2  0  0  0  0
 13 15  2  0  0  0  0
 13 24  1  0  0  0  0
 14 25  2  0  0  0  0
 15 25  1  0  0  0  0
 16 26  2  0  0  0  0
 17 21  1  0  0  0  0
 17 25  1  0  0  0  0
 18 26  1  0  0  0  0
 18 27  2  0  0  0  0
 20 26  1  0  0  0  0
 22 27  1  0  0  0  0
 23 27  1  0  0  0  0
  2 28  1  0  0  0  0
  2 29  1  0  0  0  0
  6 30  1  0  0  0  0
  7 31  1  0  0  0  0
  8 32  1  0  0  0  0
  8 33  1  0  0  0  0
  8 34  1  0  0  0  0
  9 35  1  0  0  0  0
  9 36  1  0  0  0  0
  9 37  1  0  0  0  0
 10 38  1  0  0  0  0
 10 39  1  0  0  0  0
 11 40  1  0  0  0  0
 12 41  1  0  0  0  0
 13 42  1  0  0  0  0
 14 43  1  0  0  0  0
 15 44  1  0  0  0  0
 16 45  1  0  0  0  0
 17 46  1  0  0  0  0
 17 47  1  0  0  0  0
 18 48  1  0  0  0  0
 21 49  1  0  0  0  0
  2 50  1  0  0  0  0
M  CHG  1   2   1
M  END
$$$$
3L9M_L9M_B_351
prProtoss 05262315433D 1   1.00000     0.00000     0
Protoss beta proteinsplus
 50 53  0  0  0  0            999 V2000
   74.4360   94.6250   27.1070 S   0  0  0  0  0  0  0  0  0  0  0  0
   72.7760   99.0520   28.0240 N   0  3  0  0  0  0  0  0  0  0  0  0
   73.0280   94.1480   29.0770 N   0  0  0  0  0  0  0  0  0  0  0  0
   72.9740   93.0810   28.4360 N   0  0  0  0  0  0  0  0  0  0  0  0
   74.8560   89.5510   22.4550 N   0  0  0  0  0  0  0  0  0  0  0  0
   73.9370   89.0350   23.2690 N   0  0  0  0  0  0  0  0  0  0  0  0
   73.7960   96.4950   29.1770 N   0  0  0  0  0  0  0  0  0  0  0  0
   76.3340   91.5580   22.2400 C   0  0  0  0  0  0  0  0  0  0  0  0
   78.0430   95.1220   23.2270 C   0  0  0  0  0  0  0  0  0  0  0  0
   74.6250   97.4460   28.3950 C   0  0  0  0  0  0  0  0  0  0  0  0
   72.7680   89.7310   25.5250 C   0  0  0  0  0  0  0  0  0  0  0  0
   75.6710   96.1670   23.8510 C   0  0  0  0  0  0  0  0  0  0  0  0
   77.7370   97.1090   25.0820 C   0  0  0  0  0  0  0  0  0  0  0  0
   74.8340   97.0770   24.5700 C   0  0  0  0  0  0  0  0  0  0  0  0
   76.8820   98.0130   25.7930 C   0  0  0  0  0  0  0  0  0  0  0  0
   72.7870   90.8260   26.4780 C   0  0  0  0  0  0  0  0  0  0  0  0
   74.5600   98.8980   26.2920 C   0  0  0  0  0  0  0  0  0  0  0  0
   74.5570   92.0550   25.0990 C   0  0  0  0  0  0  0  0  0  0  0  0
   73.7000   95.2030   28.5910 C   0  0  0  0  0  0  0  0  0  0  0  0
   73.6310   93.0600   27.2640 C   0  0  0  0  0  0  0  0  0  0  0  0
   73.7470   98.1410   27.3490 C   0  0  2  0  0  0  0  0  0  0  0  0
   75.3000   90.7320   22.8890 C   0  0  0  0  0  0  0  0  0  0  0  0
   73.6580   89.8270   24.3600 C   0  0  0  0  0  0  0  0  0  0  0  0
   77.0880   96.2190   24.1350 C   0  0  0  0  0  0  0  0  0  0  0  0
   75.4650   97.9600   25.5110 C   0  0  0  0  0  0  0  0  0  0  0  0
   73.6640   91.9680   26.2700 C   0  0  0  0  0  0  0  0  0  0  0  0
   74.5680   90.9800   24.1200 C   0  0  0  0  0  0  0  0  0  0  0  0
   72.2069   99.5017   27.3356 H   0  0  0  0  0  0  0  0  0  0  0  0
   72.1954   98.5216   28.6418 H   0  0  0  0  0  0  0  0  0  0  0  0
   73.4915   88.1552   23.1034 H   0  0  0  0  0  0  0  0  0  0  0  0
   73.3468   96.7401   30.0361 H   0  0  0  0  0  0  0  0  0  0  0  0
   76.4765   92.3926   22.7722 H   0  0  0  0  0  0  0  0  0  0  0  0
   77.1900   91.0433   22.1916 H   0  0  0  0  0  0  0  0  0  0  0  0
   76.0370   91.7985   21.3159 H   0  0  0  0  0  0  0  0  0  0  0  0
   79.0038   95.2242   23.4846 H   0  0  0  0  0  0  0  0  0  0  0  0
   77.7452   94.1861   23.4151 H   0  0  0  0  0  0  0  0  0  0  0  0
   77.9369   95.3159   22.2517 H   0  0  0  0  0  0  0  0  0  0  0  0
   75.3611   96.9484   27.9360 H   0  0  0  0  0  0  0  0  0  0  0  0
   75.0178   98.1303   29.0094 H   0  0  0  0  0  0  0  0  0  0  0  0
   72.1707   88.9399   25.6568 H   0  0  0  0  0  0  0  0  0  0  0  0
   75.2941   95.5250   23.1833 H   0  0  0  0  0  0  0  0  0  0  0  0
   78.7259   97.0918   25.2297 H   0  0  0  0  0  0  0  0  0  0  0  0
   73.8451   97.0978   24.4229 H   0  0  0  0  0  0  0  0  0  0  0  0
   77.2527   98.6582   26.4611 H   0  0  0  0  0  0  0  0  0  0  0  0
   72.1936   90.7951   27.2823 H   0  0  0  0  0  0  0  0  0  0  0  0
   75.1223   99.5884   26.7471 H   0  0  0  0  0  0  0  0  0  0  0  0
   73.9307   99.3462   25.6572 H   0  0  0  0  0  0  0  0  0  0  0  0
   75.1521   92.8497   24.9791 H   0  0  0  0  0  0  0  0  0  0  0  0
   73.2208   97.4336   26.8770 H   0  0  0  0  0  0  0  0  0  0  0  0
   73.2752   99.7429   28.5468 H   0  0  0  0  0  0  0  0  0  0  0  0
  1 19  1  0  0  0  0
  1 20  1  0  0  0  0
  2 21  1  0  0  0  0
  3  4  1  0  0  0  0
  3 19  2  0  0  0  0
  4 20  2  0  0  0  0
  5  6  1  0  0  0  0
  5 22  2  0  0  0  0
  6 23  1  0  0  0  0
  7 10  1  0  0  0  0
  7 19  1  0  0  0  0
  8 22  1  0  0  0  0
  9 24  1  0  0  0  0
 10 21  1  0  0  0  0
 11 16  1  0  0  0  0
 11 23  2  0  0  0  0
 12 14  1  0  0  0  0
 12 24  2  0  0  0  0
 13 15  2  0  0  0  0
 13 24  1  0  0  0  0
 14 25  2  0  0  0  0
 15 25  1  0  0  0  0
 16 26  2  0  0  0  0
 17 21  1  0  0  0  0
 17 25  1  0  0  0  0
 18 26  1  0  0  0  0
 18 27  2  0  0  0  0
 20 26  1  0  0  0  0
 22 27  1  0  0  0  0
 23 27  1  0  0  0  0
  2 28  1  0  0  0  0
  2 29  1  0  0  0  0
  6 30  1  0  0  0  0
  7 31  1  0  0  0  0
  8 32  1  0  0  0  0
  8 33  1  0  0  0  0
  8 34  1  0  0  0  0
  9 35  1  0  0  0  0
  9 36  1  0  0  0  0
  9 37  1  0  0  0  0
 10 38  1  0  0  0  0
 10 39  1  0  0  0  0
 11 40  1  0  0  0  0
 12 41  1  0  0  0  0
 13 42  1  0  0  0  0
 14 43  1  0  0  0  0
 15 44  1  0  0  0  0
 16 45  1  0  0  0  0
 17 46  1  0  0  0  0
 17 47  1  0  0  0  0
 18 48  1  0  0  0  0
 21 49  1  0  0  0  0
  2 50  1  0  0  0  0
M  CHG  1   2   1
M  END
$$$$
5N23_35R_A_401
prProtoss 06132323023D 1   1.00000     0.00000     0
Protoss beta proteinsplus
 52 56  0  0  0  0            999 V2000
  -28.7110   10.4870    1.8410 O   0  0  0  0  0  0  0  0  0  0  0  0
  -27.3290    6.8240   13.5080 O   0  0  0  0  0  0  0  0  0  0  0  0
  -32.8220   10.0780    2.9190 N   0  0  0  0  0  0  0  0  0  0  0  0
  -32.9620   10.0180    4.2450 N   0  0  0  0  0  0  0  0  0  0  0  0
  -26.9690   10.2050    3.3370 N   0  0  0  0  0  0  0  0  0  0  0  0
  -29.3680   10.0780    4.0120 N   0  0  0  0  0  0  0  0  0  0  0  0
  -32.2710    9.8170    7.3170 N   0  0  0  0  0  0  0  0  0  0  0  0
  -30.1810   10.1030    6.7590 N   0  0  0  0  0  0  0  0  0  0  0  0
  -28.4430    9.1360   12.3610 N   0  3  0  0  0  0  0  0  0  0  0  0
  -27.1940    8.0480   14.1500 C   0  0  0  0  0  0  0  0  0  0  0  0
  -28.4900    6.7660   12.7550 C   0  0  0  0  0  0  0  0  0  0  0  0
  -31.5470   10.1140    2.5910 C   0  0  0  0  0  0  0  0  0  0  0  0
  -27.3370    9.2400   13.1900 C   0  0  0  0  0  0  0  0  0  0  0  0
  -28.5080    7.9070   11.7310 C   0  0  0  0  0  0  0  0  0  0  0  0
  -28.4110   10.0910   11.5150 C   0  0  0  0  0  0  0  0  0  0  0  0
  -26.7740   11.0640    5.7350 C   0  0  0  0  0  0  0  0  0  0  0  0
  -25.3710   10.8130    5.1790 C   0  0  0  0  0  0  0  0  0  0  0  0
  -31.8950    9.7410    9.8620 C   0  0  0  0  0  0  0  0  0  0  0  0
  -30.8970    9.8160   10.8440 C   0  0  0  0  0  0  0  0  0  0  0  0
  -29.2080   10.1120    9.1110 C   0  0  0  0  0  0  0  0  0  0  0  0
  -28.3800   10.2690    2.9620 C   0  0  0  0  0  0  0  0  0  0  0  0
  -31.4260    9.9700    6.3060 C   0  0  0  0  0  0  0  0  0  0  0  0
  -26.5430    9.9440    4.7150 C   0  0  0  0  0  0  0  0  0  0  0  0
  -30.8120   10.0890    3.7910 C   0  0  0  0  0  0  0  0  0  0  0  0
  -31.5420    9.8490    8.4760 C   0  0  0  0  0  0  0  0  0  0  0  0
  -30.2230   10.0350    8.1160 C   0  0  0  0  0  0  0  0  0  0  0  0
  -31.7820   10.0130    4.8170 C   0  0  0  0  0  0  0  0  0  0  0  0
  -29.5490    9.9930   10.4620 C   0  0  0  0  0  0  0  0  0  0  0  0
  -33.5792   10.0935    2.2660 H   0  0  0  0  0  0  0  0  0  0  0  0
  -26.2732   10.3434    2.6323 H   0  0  0  0  0  0  0  0  0  0  0  0
  -29.0380    9.9298    4.9443 H   0  0  0  0  0  0  0  0  0  0  0  0
  -33.2615    9.6995    7.2458 H   0  0  0  0  0  0  0  0  0  0  0  0
  -26.2905    8.0875   14.5768 H   0  0  0  0  0  0  0  0  0  0  0  0
  -27.8993    8.1188   14.8554 H   0  0  0  0  0  0  0  0  0  0  0  0
  -29.2817    6.8513   13.3599 H   0  0  0  0  0  0  0  0  0  0  0  0
  -28.5301    5.8896   12.2751 H   0  0  0  0  0  0  0  0  0  0  0  0
  -31.1721   10.1519    1.6647 H   0  0  0  0  0  0  0  0  0  0  0  0
  -27.4214   10.0768   13.7309 H   0  0  0  0  0  0  0  0  0  0  0  0
  -26.5160    9.2919   12.6215 H   0  0  0  0  0  0  0  0  0  0  0  0
  -27.7227    7.8106   11.1195 H   0  0  0  0  0  0  0  0  0  0  0  0
  -29.3531    7.8561   11.1988 H   0  0  0  0  0  0  0  0  0  0  0  0
  -27.5316   10.0686   11.0395 H   0  0  0  0  0  0  0  0  0  0  0  0
  -28.5025   10.9573   12.0060 H   0  0  0  0  0  0  0  0  0  0  0  0
  -27.2774   11.8862    5.4694 H   0  0  0  0  0  0  0  0  0  0  0  0
  -26.9824   10.8384    6.6867 H   0  0  0  0  0  0  0  0  0  0  0  0
  -24.6624   10.4237    5.7675 H   0  0  0  0  0  0  0  0  0  0  0  0
  -24.9574   11.4715    4.5502 H   0  0  0  0  0  0  0  0  0  0  0  0
  -32.8506    9.6125   10.1273 H   0  0  0  0  0  0  0  0  0  0  0  0
  -31.1389    9.7444   11.8116 H   0  0  0  0  0  0  0  0  0  0  0  0
  -28.2541   10.2507    8.8448 H   0  0  0  0  0  0  0  0  0  0  0  0
  -26.5813    9.0002    5.0433 H   0  0  0  0  0  0  0  0  0  0  0  0
  -29.2642    9.2431   12.9215 H   0  0  0  0  0  0  0  0  0  0  0  0
  1 21  2  0  0  0  0
  2 10  1  0  0  0  0
  2 11  1  0  0  0  0
  3  4  1  0  0  0  0
  3 12  1  0  0  0  0
  4 27  2  0  0  0  0
  5 21  1  0  0  0  0
  5 23  1  0  0  0  0
  6 21  1  0  0  0  0
  6 24  1  0  0  0  0
  7 22  1  0  0  0  0
  7 25  1  0  0  0  0
  8 22  2  0  0  0  0
  8 26  1  0  0  0  0
  9 13  1  0  0  0  0
  9 14  1  0  0  0  0
  9 15  1  0  0  0  0
 10 13  1  0  0  0  0
 11 14  1  0  0  0  0
 12 24  2  0  0  0  0
 15 28  1  0  0  0  0
 16 17  1  0  0  0  0
 16 23  1  0  0  0  0
 17 23  1  0  0  0  0
 18 19  1  0  0  0  0
 18 25  2  0  0  0  0
 19 28  2  0  0  0  0
 20 26  2  0  0  0  0
 20 28  1  0  0  0  0
 22 27  1  0  0  0  0
 24 27  1  0  0  0  0
 25 26  1  0  0  0  0
  3 29  1  0  0  0  0
  5 30  1  0  0  0  0
  6 31  1  0  0  0  0
  7 32  1  0  0  0  0
 10 33  1  0  0  0  0
 10 34  1  0  0  0  0
 11 35  1  0  0  0  0
 11 36  1  0  0  0  0
 12 37  1  0  0  0  0
 13 38  1  0  0  0  0
 13 39  1  0  0  0  0
 14 40  1  0  0  0  0
 14 41  1  0  0  0  0
 15 42  1  0  0  0  0
 15 43  1  0  0  0  0
 16 44  1  0  0  0  0
 16 45  1  0  0  0  0
 17 46  1  0  0  0  0
 17 47  1  0  0  0  0
 18 48  1  0  0  0  0
 19 49  1  0  0  0  0
 20 50  1  0  0  0  0
 23 51  1  0  0  0  0
  9 52  1  0  0  0  0
M  CHG  1   9   1
M  END
$$$$
2OH0_2PY_E_351
prProtoss 05262315493D 1   1.00000     0.00000     0
Protoss beta proteinsplus
 51 55  0  0  0  0            999 V2000
   11.6750    8.8550    1.4630 O   0  0  0  0  0  0  0  0  0  0  0  0
   13.5810    7.0080    1.5440 N   0  3  0  0  0  0  0  0  0  0  0  0
    3.3250   10.2010    4.8580 N   0  0  0  0  0  0  0  0  0  0  0  0
    9.5060   10.5300   -0.9050 N   0  0  0  0  0  0  0  0  0  0  0  0
    2.9580   10.1020    3.5760 N   0  0  0  0  0  0  0  0  0  0  0  0
   15.5800   10.4480   -0.1330 N   0  0  0  0  0  0  0  0  0  0  0  0
   11.8040    8.2200    2.7230 C   0  0  0  0  0  0  0  0  0  0  0  0
   13.4490   13.5440    0.2790 C   0  0  0  0  0  0  0  0  0  0  0  0
   12.8190   13.1790    1.5080 C   0  0  0  0  0  0  0  0  0  0  0  0
    4.6670   10.2380    4.9680 C   0  0  0  0  0  0  0  0  0  0  0  0
   10.5650    9.9710   -0.2860 C   0  0  0  0  0  0  0  0  0  0  0  0
    8.2920   10.5480   -0.2800 C   0  0  0  0  0  0  0  0  0  0  0  0
   15.5430    9.4320    0.7880 C   0  0  0  0  0  0  0  0  0  0  0  0
   14.4000   12.6690   -0.3400 C   0  0  0  0  0  0  0  0  0  0  0  0
   13.1290   11.9370    2.1310 C   0  0  0  0  0  0  0  0  0  0  0  0
    4.2100    9.9710    1.3510 C   0  0  0  0  0  0  0  0  0  0  0  0
    5.5260    9.9600    0.8100 C   0  0  0  0  0  0  0  0  0  0  0  0
    9.1970    9.4240    1.6440 C   0  0  0  0  0  0  0  0  0  0  0  0
   14.3050    8.8880    3.0220 C   0  0  0  0  0  0  0  0  0  0  0  0
    6.4860   10.1420    3.0590 C   0  0  0  0  0  0  0  0  0  0  0  0
   10.4730    9.3980    0.9970 C   0  0  0  0  0  0  0  0  0  0  0  0
   13.2770    7.7430    2.7970 C   0  0  2  0  0  0  0  0  0  0  0  0
    4.0270   10.0650    2.7230 C   0  0  0  0  0  0  0  0  0  0  0  0
   14.7040   11.4490    0.2720 C   0  0  0  0  0  0  0  0  0  0  0  0
    5.1800   10.1540    3.6060 C   0  0  0  0  0  0  0  0  0  0  0  0
    8.0730   10.0080    1.0060 C   0  0  0  0  0  0  0  0  0  0  0  0
   14.6510    9.7490    1.8010 C   0  0  0  0  0  0  0  0  0  0  0  0
    6.6950   10.0440    1.6390 C   0  0  0  0  0  0  0  0  0  0  0  0
   14.1020   11.0450    1.4890 C   0  0  0  0  0  0  0  0  0  0  0  0
   14.5283    6.6886    1.5664 H   0  0  0  0  0  0  0  0  0  0  0  0
   12.9666    6.2235    1.4603 H   0  0  0  0  0  0  0  0  0  0  0  0
    2.0058   10.0596    3.2736 H   0  0  0  0  0  0  0  0  0  0  0  0
   16.1436   10.4658   -0.9588 H   0  0  0  0  0  0  0  0  0  0  0  0
   11.1806    7.4407    2.7872 H   0  0  0  0  0  0  0  0  0  0  0  0
   11.6080    8.8653    3.4613 H   0  0  0  0  0  0  0  0  0  0  0  0
   13.2245   14.4175   -0.1530 H   0  0  0  0  0  0  0  0  0  0  0  0
   12.1580   13.7980    1.9322 H   0  0  0  0  0  0  0  0  0  0  0  0
    5.2013   10.3086    5.8104 H   0  0  0  0  0  0  0  0  0  0  0  0
   11.4481    9.9629   -0.7550 H   0  0  0  0  0  0  0  0  0  0  0  0
    7.5186   10.9649   -0.7575 H   0  0  0  0  0  0  0  0  0  0  0  0
   16.0789    8.5893    0.7365 H   0  0  0  0  0  0  0  0  0  0  0  0
   14.8410   12.9277   -1.1994 H   0  0  0  0  0  0  0  0  0  0  0  0
   12.6912   11.6767    2.9916 H   0  0  0  0  0  0  0  0  0  0  0  0
    3.4182    9.9111    0.7432 H   0  0  0  0  0  0  0  0  0  0  0  0
    5.6404    9.8914   -0.1811 H   0  0  0  0  0  0  0  0  0  0  0  0
    9.0967    9.0261    2.5559 H   0  0  0  0  0  0  0  0  0  0  0  0
   15.1534    8.4737    3.3515 H   0  0  0  0  0  0  0  0  0  0  0  0
   13.9348    9.4943    3.7258 H   0  0  0  0  0  0  0  0  0  0  0  0
    7.2757   10.2026    3.6695 H   0  0  0  0  0  0  0  0  0  0  0  0
   13.3567    7.1011    3.5596 H   0  0  0  0  0  0  0  0  0  0  0  0
   13.4529    7.6167    0.7610 H   0  0  0  0  0  0  0  0  0  0  0  0
  1  7  1  0  0  0  0
  1 21  1  0  0  0  0
  2 22  1  0  0  0  0
  3  5  1  0  0  0  0
  3 10  2  0  0  0  0
  4 11  2  0  0  0  0
  4 12  1  0  0  0  0
  5 23  1  0  0  0  0
  6 13  1  0  0  0  0
  6 24  1  0  0  0  0
  7 22  1  0  0  0  0
  8  9  2  0  0  0  0
  8 14  1  0  0  0  0
  9 15  1  0  0  0  0
 10 25  1  0  0  0  0
 11 21  1  0  0  0  0
 12 26  2  0  0  0  0
 13 27  2  0  0  0  0
 14 24  2  0  0  0  0
 15 29  2  0  0  0  0
 16 17  1  0  0  0  0
 16 23  2  0  0  0  0
 17 28  2  0  0  0  0
 18 21  2  0  0  0  0
 18 26  1  0  0  0  0
 19 22  1  0  0  0  0
 19 27  1  0  0  0  0
 20 25  2  0  0  0  0
 20 28  1  0  0  0  0
 23 25  1  0  0  0  0
 24 29  1  0  0  0  0
 26 28  1  0  0  0  0
 27 29  1  0  0  0  0
  2 30  1  0  0  0  0
  2 31  1  0  0  0  0
  5 32  1  0  0  0  0
  6 33  1  0  0  0  0
  7 34  1  0  0  0  0
  7 35  1  0  0  0  0
  8 36  1  0  0  0  0
  9 37  1  0  0  0  0
 10 38  1  0  0  0  0
 11 39  1  0  0  0  0
 12 40  1  0  0  0  0
 13 41  1  0  0  0  0
 14 42  1  0  0  0  0
 15 43  1  0  0  0  0
 16 44  1  0  0  0  0
 17 45  1  0  0  0  0
 18 46  1  0  0  0  0
 19 47  1  0  0  0  0
 19 48  1  0  0  0  0
 20 49  1  0  0  0  0
 22 50  1  0  0  0  0
  2 51  1  0  0  0  0
M  CHG  1   2   1
M  END
$$$$
2OJF_4PY_E_1000
prProtoss 05262315143D 1   1.00000     0.00000     0
Protoss beta proteinsplus
 50 54  0  0  0  0            999 V2000
   12.0090    9.8580    1.8940 O   0  0  0  0  0  0  0  0  0  0  0  0
   14.0050    8.3540    3.3330 N   0  3  0  0  0  0  0  0  0  0  0  0
    3.3670   10.0980    4.2980 N   0  0  0  0  0  0  0  0  0  0  0  0
    9.8470   10.2970   -1.0690 N   0  0  0  0  0  0  0  0  0  0  0  0
    3.1040    9.9740    2.9800 N   0  0  0  0  0  0  0  0  0  0  0  0
    5.8920    9.9360    0.5030 N   0  0  0  0  0  0  0  0  0  0  0  0
   15.6170   10.5960   -0.0110 N   0  0  0  0  0  0  0  0  0  0  0  0
   11.9520    9.6930    3.3180 C   0  0  0  0  0  0  0  0  0  0  0  0
   13.6330   13.7020   -1.0080 C   0  0  0  0  0  0  0  0  0  0  0  0
   13.0650   13.9550    0.2750 C   0  0  0  0  0  0  0  0  0  0  0  0
    4.6750   10.1940    4.5240 C   0  0  0  0  0  0  0  0  0  0  0  0
   10.9420   10.1600   -0.2710 C   0  0  0  0  0  0  0  0  0  0  0  0
    8.5940   10.2670   -0.5150 C   0  0  0  0  0  0  0  0  0  0  0  0
    4.5810    9.8910    0.8800 C   0  0  0  0  0  0  0  0  0  0  0  0
   15.5740   10.1310    1.2720 C   0  0  0  0  0  0  0  0  0  0  0  0
   14.5050   12.5900   -1.1970 C   0  0  0  0  0  0  0  0  0  0  0  0
   13.3740   13.0890    1.3650 C   0  0  0  0  0  0  0  0  0  0  0  0
    9.5220    9.9560    1.6960 C   0  0  0  0  0  0  0  0  0  0  0  0
   14.3980   10.7900    3.5360 C   0  0  0  0  0  0  0  0  0  0  0  0
    6.6430   10.1660    2.7970 C   0  0  0  0  0  0  0  0  0  0  0  0
   10.8350    9.9870    1.1300 C   0  0  0  0  0  0  0  0  0  0  0  0
   13.4150    9.5980    3.8410 C   0  0  2  0  0  0  0  0  0  0  0  0
    4.2500    9.9800    2.2190 C   0  0  0  0  0  0  0  0  0  0  0  0
    6.9620   10.0700    1.4110 C   0  0  0  0  0  0  0  0  0  0  0  0
   14.8100   11.7400   -0.1280 C   0  0  0  0  0  0  0  0  0  0  0  0
    5.3090   10.1230    3.2080 C   0  0  0  0  0  0  0  0  0  0  0  0
    8.3660   10.0990    0.8690 C   0  0  0  0  0  0  0  0  0  0  0  0
   14.7290   10.9640    2.0510 C   0  0  0  0  0  0  0  0  0  0  0  0
   14.2380   11.9930    1.1710 C   0  0  0  0  0  0  0  0  0  0  0  0
   14.9471    8.2745    3.6589 H   0  0  0  0  0  0  0  0  0  0  0  0
   13.4719    7.5740    3.6609 H   0  0  0  0  0  0  0  0  0  0  0  0
    2.1828    9.8878    2.6006 H   0  0  0  0  0  0  0  0  0  0  0  0
   16.1434   10.1844   -0.7550 H   0  0  0  0  0  0  0  0  0  0  0  0
   11.4541    8.8558    3.5444 H   0  0  0  0  0  0  0  0  0  0  0  0
   11.4917   10.4774    3.7338 H   0  0  0  0  0  0  0  0  0  0  0  0
   13.4195   14.3053   -1.7764 H   0  0  0  0  0  0  0  0  0  0  0  0
   12.4537   14.7349    0.4097 H   0  0  0  0  0  0  0  0  0  0  0  0
    5.1295   10.2939    5.4091 H   0  0  0  0  0  0  0  0  0  0  0  0
   11.8507   10.1823   -0.6880 H   0  0  0  0  0  0  0  0  0  0  0  0
    7.8036   10.3689   -1.1190 H   0  0  0  0  0  0  0  0  0  0  0  0
    3.8632    9.7941    0.1906 H   0  0  0  0  0  0  0  0  0  0  0  0
   16.0627    9.3271    1.6108 H   0  0  0  0  0  0  0  0  0  0  0  0
   14.9010   12.4164   -2.0987 H   0  0  0  0  0  0  0  0  0  0  0  0
   12.9775   13.2596    2.2670 H   0  0  0  0  0  0  0  0  0  0  0  0
    9.4118    9.8328    2.6822 H   0  0  0  0  0  0  0  0  0  0  0  0
   15.2516   10.6275    4.0309 H   0  0  0  0  0  0  0  0  0  0  0  0
   13.9777   11.6356    3.8651 H   0  0  0  0  0  0  0  0  0  0  0  0
    7.3729   10.2639    3.4736 H   0  0  0  0  0  0  0  0  0  0  0  0
   13.3634    9.5106    4.8358 H   0  0  0  0  0  0  0  0  0  0  0  0
   13.9980    8.3658    2.3331 H   0  0  0  0  0  0  0  0  0  0  0  0
  1  8  1  0  0  0  0
  1 21  1  0  0  0  0
  2 22  1  0  0  0  0
  3  5  1  0  0  0  0
  3 11  2  0  0  0  0
  4 12  2  0  0  0  0
  4 13  1  0  0  0  0
  5 23  1  0  0  0  0
  6 14  1  0  0  0  0
  6 24  2  0  0  0  0
  7 15  1  0  0  0  0
  7 25  1  0  0  0  0
  8 22  1  0  0  0  0
  9 10  2  0  0  0  0
  9 16  1  0  0  0  0
 10 17  1  0  0  0  0
 11 26  1  0  0  0  0
 12 21  1  0  0  0  0
 13 27  2  0  0  0  0
 14 23  2  0  0  0  0
 15 28  2  0  0  0  0
 16 25  2  0  0  0  0
 17 29  2  0  0  0  0
 18 21  2  0  0  0  0
 18 27  1  0  0  0  0
 19 22  1  0  0  0  0
 19 28  1  0  0  0  0
 20 24  1  0  0  0  0
 20 26  2  0  0  0  0
 23 26  1  0  0  0  0
 24 27  1  0  0  0  0
 25 29  1  0  0  0  0
 28 29  1  0  0  0  0
  2 30  1  0  0  0  0
  2 31  1  0  0  0  0
  5 32  1  0  0  0  0
  7 33  1  0  0  0  0
  8 34  1  0  0  0  0
  8 35  1  0  0  0  0
  9 36  1  0  0  0  0
 10 37  1  0  0  0  0
 11 38  1  0  0  0  0
 12 39  1  0  0  0  0
 13 40  1  0  0  0  0
 14 41  1  0  0  0  0
 15 42  1  0  0  0  0
 16 43  1  0  0  0  0
 17 44  1  0  0  0  0
 18 45  1  0  0  0  0
 19 46  1  0  0  0  0
 19 47  1  0  0  0  0
 20 48  1  0  0  0  0
 22 49  1  0  0  0  0
  2 50  1  0  0  0  0
M  CHG  1   2   1
M  END
$$$$
5OTG_AO8_A_401
prProtoss 06132323053D 1   1.00000     0.00000     0
Protoss beta proteinsplus
 44 46  0  0  0  0            999 V2000
  -27.6850  -13.9030   25.3780 S   0  0  0  0  0  0  0  0  0  0  0  0
  -26.9440  -13.3520   26.4710 O   0  0  0  0  0  0  0  0  0  0  0  0
  -28.9480  -14.5280   25.6270 O   0  0  0  0  0  0  0  0  0  0  0  0
  -27.9480  -12.7040   24.3270 N   0  0  0  0  0  0  0  0  0  0  0  0
  -27.9540   -9.8600   24.7280 N   0  3  0  0  0  0  0  0  0  0  0  0
  -23.8820  -17.6050   26.5090 N   0  0  0  0  0  0  0  0  0  0  0  0
  -26.8300  -11.8630   23.8700 C   0  0  0  0  0  0  0  0  0  0  0  0
  -26.6880  -10.5950   24.6850 C   0  0  0  0  0  0  0  0  0  0  0  0
  -24.7000  -16.8060   27.2110 C   0  0  0  0  0  0  0  0  0  0  0  0
  -31.2080   -6.0680   23.8970 C   0  0  0  0  0  0  0  0  0  0  0  0
  -29.9870   -5.7780   23.3460 C   0  0  0  0  0  0  0  0  0  0  0  0
  -31.4860   -7.3540   24.3260 C   0  0  0  0  0  0  0  0  0  0  0  0
  -25.9280  -15.9690   22.4390 C   0  0  0  0  0  0  0  0  0  0  0  0
  -28.2270   -9.1330   23.4890 C   0  0  0  0  0  0  0  0  0  0  0  0
  -23.9930  -17.5870   25.1880 C   0  0  0  0  0  0  0  0  0  0  0  0
  -26.7350  -15.1070   23.1680 C   0  0  0  0  0  0  0  0  0  0  0  0
  -29.0330   -6.7700   23.2170 C   0  0  0  0  0  0  0  0  0  0  0  0
  -30.5440   -8.3870   24.2140 C   0  0  0  0  0  0  0  0  0  0  0  0
  -25.0350  -16.7880   23.0670 C   0  0  0  0  0  0  0  0  0  0  0  0
  -25.6190  -15.9680   26.6510 C   0  0  0  0  0  0  0  0  0  0  0  0
  -26.6540  -15.0740   24.5330 C   0  0  0  0  0  0  0  0  0  0  0  0
  -29.2920   -8.0730   23.6440 C   0  0  0  0  0  0  0  0  0  0  0  0
  -24.9150  -16.7820   24.4780 C   0  0  0  0  0  0  0  0  0  0  0  0
  -25.7500  -15.9250   25.2440 C   0  0  0  0  0  0  0  0  0  0  0  0
  -28.3484  -13.1195   23.5103 H   0  0  0  0  0  0  0  0  0  0  0  0
  -27.9178   -9.2044   25.4822 H   0  0  0  0  0  0  0  0  0  0  0  0
  -26.9857  -11.6141   22.9141 H   0  0  0  0  0  0  0  0  0  0  0  0
  -25.9823  -12.3884   23.9438 H   0  0  0  0  0  0  0  0  0  0  0  0
  -26.4154  -10.8332   25.6172 H   0  0  0  0  0  0  0  0  0  0  0  0
  -25.9864  -10.0155   24.2703 H   0  0  0  0  0  0  0  0  0  0  0  0
  -24.6315  -16.8262   28.2084 H   0  0  0  0  0  0  0  0  0  0  0  0
  -31.8981   -5.3502   23.9890 H   0  0  0  0  0  0  0  0  0  0  0  0
  -29.7862   -4.8483   23.0372 H   0  0  0  0  0  0  0  0  0  0  0  0
  -32.3810   -7.5517   24.7259 H   0  0  0  0  0  0  0  0  0  0  0  0
  -26.0016  -15.9903   21.4419 H   0  0  0  0  0  0  0  0  0  0  0  0
  -28.5287   -9.7878   22.7960 H   0  0  0  0  0  0  0  0  0  0  0  0
  -27.3819   -8.6926   23.1860 H   0  0  0  0  0  0  0  0  0  0  0  0
  -23.3861  -18.1805   24.6594 H   0  0  0  0  0  0  0  0  0  0  0  0
  -27.3789  -14.5071   22.6931 H   0  0  0  0  0  0  0  0  0  0  0  0
  -28.1452   -6.5509   22.8122 H   0  0  0  0  0  0  0  0  0  0  0  0
  -30.7523   -9.3136   24.5271 H   0  0  0  0  0  0  0  0  0  0  0  0
  -24.4588  -17.3993   22.5245 H   0  0  0  0  0  0  0  0  0  0  0  0
  -26.1942  -15.3899   27.2298 H   0  0  0  0  0  0  0  0  0  0  0  0
  -28.6964  -10.5107   24.8873 H   0  0  0  0  0  0  0  0  0  0  0  0
  1  2  2  0  0  0  0
  1  3  2  0  0  0  0
  1  4  1  0  0  0  0
  1 21  1  0  0  0  0
  4  7  1  0  0  0  0
  5  8  1  0  0  0  0
  5 14  1  0  0  0  0
  6  9  2  0  0  0  0
  6 15  1  0  0  0  0
  7  8  1  0  0  0  0
  9 20  1  0  0  0  0
 10 11  2  0  0  0  0
 10 12  1  0  0  0  0
 11 17  1  0  0  0  0
 12 18  2  0  0  0  0
 13 16  1  0  0  0  0
 13 19  2  0  0  0  0
 14 22  1  0  0  0  0
 15 23  2  0  0  0  0
 16 21  2  0  0  0  0
 17 22  2  0  0  0  0
 18 22  1  0  0  0  0
 19 23  1  0  0  0  0
 20 24  2  0  0  0  0
 21 24  1  0  0  0  0
 23 24  1  0  0  0  0
  4 25  1  0  0  0  0
  5 26  1  0  0  0  0
  7 27  1  0  0  0  0
  7 28  1  0  0  0  0
  8 29  1  0  0  0  0
  8 30  1  0  0  0  0
  9 31  1  0  0  0  0
 10 32  1  0  0  0  0
 11 33  1  0  0  0  0
 12 34  1  0  0  0  0
 13 35  1  0  0  0  0
 14 36  1  0  0  0  0
 14 37  1  0  0  0  0
 15 38  1  0  0  0  0
 16 39  1  0  0  0  0
 17 40  1  0  0  0  0
 18 41  1  0  0  0  0
 19 42  1  0  0  0  0
 20 43  1  0  0  0  0
  5 44  1  0  0  0  0
M  CHG  1   5   1
M  END
$$$$
5OUC_AO8_A_401
prProtoss 03132510193D 1   1.00000     0.00000     0
Protoss beta proteinsplus
 44 46  0  0  0  0            999 V2000
  -13.7540  -25.0420   27.4370 S   0  0  0  0  0  0  0  0  0  0  0  0
  -13.2090  -26.1340   26.6860 O   0  0  0  0  0  0  0  0  0  0  0  0
  -14.3520  -25.2940   28.7080 O   0  0  0  0  0  0  0  0  0  0  0  0
  -12.5370  -24.0080   27.6770 N   0  0  0  0  0  0  0  0  0  0  0  0
   -9.7810  -24.2740   27.6340 N   0  3  0  0  0  0  0  0  0  0  0  0
  -17.4130  -26.2180   23.6420 N   0  0  0  0  0  0  0  0  0  0  0  0
  -11.8230  -23.4280   26.5360 C   0  0  0  0  0  0  0  0  0  0  0  0
  -10.4660  -24.0710   26.3500 C   0  0  0  0  0  0  0  0  0  0  0  0
  -16.6610  -26.9090   24.5070 C   0  0  0  0  0  0  0  0  0  0  0  0
   -5.3700  -24.0030   30.1220 C   0  0  0  0  0  0  0  0  0  0  0  0
   -5.6100  -22.7370   29.6560 C   0  0  0  0  0  0  0  0  0  0  0  0
   -6.3150  -24.9980   29.9420 C   0  0  0  0  0  0  0  0  0  0  0  0
  -15.8440  -22.1260   25.6780 C   0  0  0  0  0  0  0  0  0  0  0  0
   -9.0530  -23.0950   28.1010 C   0  0  0  0  0  0  0  0  0  0  0  0
  -17.4000  -24.8970   23.7350 C   0  0  0  0  0  0  0  0  0  0  0  0
  -14.9790  -22.8440   26.4880 C   0  0  0  0  0  0  0  0  0  0  0  0
   -6.7960  -22.4520   29.0060 C   0  0  0  0  0  0  0  0  0  0  0  0
   -7.5320  -24.7490   29.2880 C   0  0  0  0  0  0  0  0  0  0  0  0
  -16.6530  -22.7660   24.7840 C   0  0  0  0  0  0  0  0  0  0  0  0
  -15.8550  -26.3380   25.4440 C   0  0  0  0  0  0  0  0  0  0  0  0
  -14.9510  -24.2110   26.4310 C   0  0  0  0  0  0  0  0  0  0  0  0
   -7.7630  -23.4380   28.8150 C   0  0  0  0  0  0  0  0  0  0  0  0
  -16.6370  -24.1780   24.6770 C   0  0  0  0  0  0  0  0  0  0  0  0
  -15.8060  -24.9310   25.5430 C   0  0  0  0  0  0  0  0  0  0  0  0
  -12.9095  -23.2427   28.2019 H   0  0  0  0  0  0  0  0  0  0  0  0
   -9.1308  -25.0266   27.5301 H   0  0  0  0  0  0  0  0  0  0  0  0
  -11.7001  -22.4481   26.6930 H   0  0  0  0  0  0  0  0  0  0  0  0
  -12.3655  -23.5674   25.7076 H   0  0  0  0  0  0  0  0  0  0  0  0
  -10.5858  -24.9574   25.9028 H   0  0  0  0  0  0  0  0  0  0  0  0
   -9.9034  -23.4795   25.7724 H   0  0  0  0  0  0  0  0  0  0  0  0
  -16.6931  -27.9075   24.4623 H   0  0  0  0  0  0  0  0  0  0  0  0
   -4.5117  -24.2081   30.5923 H   0  0  0  0  0  0  0  0  0  0  0  0
   -4.9266  -22.0187   29.7863 H   0  0  0  0  0  0  0  0  0  0  0  0
   -6.1261  -25.9176   30.2865 H   0  0  0  0  0  0  0  0  0  0  0  0
  -15.8759  -21.1290   25.7490 H   0  0  0  0  0  0  0  0  0  0  0  0
   -9.6403  -22.5873   28.7313 H   0  0  0  0  0  0  0  0  0  0  0  0
   -8.8367  -22.5210   27.3112 H   0  0  0  0  0  0  0  0  0  0  0  0
  -17.9673  -24.3768   23.0966 H   0  0  0  0  0  0  0  0  0  0  0  0
  -14.3715  -22.3603   27.1181 H   0  0  0  0  0  0  0  0  0  0  0  0
   -6.9628  -21.5257   28.6680 H   0  0  0  0  0  0  0  0  0  0  0  0
   -8.2103  -25.4728   29.1616 H   0  0  0  0  0  0  0  0  0  0  0  0
  -17.2633  -22.2323   24.1986 H   0  0  0  0  0  0  0  0  0  0  0  0
  -15.3049  -26.9081   26.0542 H   0  0  0  0  0  0  0  0  0  0  0  0
  -10.4646  -24.5168   28.3223 H   0  0  0  0  0  0  0  0  0  0  0  0
  1  2  2  0  0  0  0
  1  3  2  0  0  0  0
  1  4  1  0  0  0  0
  1 21  1  0  0  0  0
  4  7  1  0  0  0  0
  5  8  1  0  0  0  0
  5 14  1  0  0  0  0
  6  9  2  0  0  0  0
  6 15  1  0  0  0  0
  7  8  1  0  0  0  0
  9 20  1  0  0  0  0
 10 11  2  0  0  0  0
 10 12  1  0  0  0  0
 11 17  1  0  0  0  0
 12 18  2  0  0  0  0
 13 16  1  0  0  0  0
 13 19  2  0  0  0  0
 14 22  1  0  0  0  0
 15 23  2  0  0  0  0
 16 21  2  0  0  0  0
 17 22  2  0  0  0  0
 18 22  1  0  0  0  0
 19 23  1  0  0  0  0
 20 24  2  0  0  0  0
 21 24  1  0  0  0  0
 23 24  1  0  0  0  0
  4 25  1  0  0  0  0
  5 26  1  0  0  0  0
  7 27  1  0  0  0  0
  7 28  1  0  0  0  0
  8 29  1  0  0  0  0
  8 30  1  0  0  0  0
  9 31  1  0  0  0  0
 10 32  1  0  0  0  0
 11 33  1  0  0  0  0
 12 34  1  0  0  0  0
 13 35  1  0  0  0  0
 14 36  1  0  0  0  0
 14 37  1  0  0  0  0
 15 38  1  0  0  0  0
 16 39  1  0  0  0  0
 17 40  1  0  0  0  0
 18 41  1  0  0  0  0
 19 42  1  0  0  0  0
 20 43  1  0  0  0  0
  5 44  1  0  0  0  0
M  CHG  1   5   1
M  END
$$$$
5OUC_CL_E_102
prProtoss 03132510193D 1   1.00000     0.00000     0
Protoss beta proteinsplus
  1  0  0  0  0  0            999 V2000
   -2.6910  -31.2760   32.4290 Cl  0  5  0  0  0  0  0  0  0  0  0  0
M  CHG  1   1  -1
M  END
$$$$
5OUC_RIP_E_101
prProtoss 03132510193D 1   1.00000     0.00000     0
Protoss beta proteinsplus
 17 17  0  0  0  0            999 V2000
   -7.1640  -17.1070   34.0400 O   0  0  0  0  0  0  0  0  0  0  0  0
   -5.1030  -15.3800   32.9910 O   0  0  0  0  0  0  0  0  0  0  0  0
   -4.5370  -14.8160   34.1820 C   0  0  0  0  0  0  0  0  0  0  0  0
   -5.0430  -16.8050   32.9480 C   0  0  1  0  0  0  0  0  0  0  0  0
   -5.2630  -15.3120   35.4180 C   0  0  0  0  0  0  0  0  0  0  0  0
   -5.2220  -16.8310   35.4430 C   0  0  0  0  0  0  0  0  0  0  0  0
   -5.7750  -17.4010   34.1450 C   0  0  1  0  0  0  0  0  0  0  0  0
   -4.6096  -13.8196   34.1382 H   0  0  0  0  0  0  0  0  0  0  0  0
   -3.5737  -15.0778   34.2417 H   0  0  0  0  0  0  0  0  0  0  0  0
   -5.4542  -17.1367   32.0989 H   0  0  0  0  0  0  0  0  0  0  0  0
   -6.2138  -15.0031   35.3944 H   0  0  0  0  0  0  0  0  0  0  0  0
   -4.8156  -14.9515   36.2364 H   0  0  0  0  0  0  0  0  0  0  0  0
   -5.7729  -17.1624   36.2089 H   0  0  0  0  0  0  0  0  0  0  0  0
   -4.2756  -17.1327   35.5580 H   0  0  0  0  0  0  0  0  0  0  0  0
   -5.6498  -18.3931   34.1440 H   0  0  0  0  0  0  0  0  0  0  0  0
   -7.6474  -17.4967   34.8239 H   0  0  0  0  0  0  0  0  0  0  0  0
   -3.7050  -17.1120   32.9690 R#  0  0  0  0  0  0  0  0  0  0  0  0
  6  7  1  0  0  0  0
  4 17  1  0  0  0  0
  1  7  1  0  0  0  0
  2  3  1  0  0  0  0
  2  4  1  0  0  0  0
  3  5  1  0  0  0  0
  4  7  1  0  0  0  0
  5  6  1  0  0  0  0
  3  8  1  0  0  0  0
  3  9  1  0  0  0  0
  4 10  1  0  0  0  0
  5 11  1  0  0  0  0
  5 12  1  0  0  0  0
  6 13  1  0  0  0  0
  6 14  1  0  0  0  0
  7 15  1  0  0  0  0
  1 16  1  0  0  0  0
M  RGP  1  17   1
M  END
$$$$
6I2H_AO8_A_401
prProtoss 03132510193D 1   1.00000     0.00000     0
Protoss beta proteinsplus
 44 46  0  0  0  0            999 V2000
   13.4370  -22.8380  -27.9700 S   0  0  0  0  0  0  0  0  0  0  0  0
   12.6940  -23.8860  -27.3430 O   0  0  0  0  0  0  0  0  0  0  0  0
   14.1450  -23.0960  -29.1850 O   0  0  0  0  0  0  0  0  0  0  0  0
   12.4190  -21.6160  -28.2340 N   0  0  0  0  0  0  0  0  0  0  0  0
    9.4930  -22.1720  -27.9240 N   0  3  0  0  0  0  0  0  0  0  0  0
   16.9620  -24.4410  -24.1540 N   0  0  0  0  0  0  0  0  0  0  0  0
   11.5680  -21.1190  -27.1310 C   0  0  0  0  0  0  0  0  0  0  0  0
   10.3910  -22.0000  -26.7790 C   0  0  0  0  0  0  0  0  0  0  0  0
   16.1500  -25.0420  -25.0460 C   0  0  0  0  0  0  0  0  0  0  0  0
    5.7550  -21.0880  -31.2110 C   0  0  0  0  0  0  0  0  0  0  0  0
    5.6860  -20.3410  -30.0660 C   0  0  0  0  0  0  0  0  0  0  0  0
    6.9030  -21.8010  -31.5070 C   0  0  0  0  0  0  0  0  0  0  0  0
   15.4270  -20.1580  -25.7840 C   0  0  0  0  0  0  0  0  0  0  0  0
    9.1100  -20.9030  -28.5400 C   0  0  0  0  0  0  0  0  0  0  0  0
   16.9890  -23.1200  -24.1510 C   0  0  0  0  0  0  0  0  0  0  0  0
   14.6100  -20.7730  -26.7130 C   0  0  0  0  0  0  0  0  0  0  0  0
    6.7670  -20.2940  -29.2050 C   0  0  0  0  0  0  0  0  0  0  0  0
    8.0220  -21.7790  -30.6600 C   0  0  0  0  0  0  0  0  0  0  0  0
   16.2160  -20.8930  -24.9520 C   0  0  0  0  0  0  0  0  0  0  0  0
   15.3640  -24.3750  -25.9410 C   0  0  0  0  0  0  0  0  0  0  0  0
   14.5700  -22.1380  -26.7970 C   0  0  0  0  0  0  0  0  0  0  0  0
    7.9360  -21.0000  -29.4830 C   0  0  0  0  0  0  0  0  0  0  0  0
   16.2170  -22.3050  -25.0160 C   0  0  0  0  0  0  0  0  0  0  0  0
   15.3750  -22.9600  -25.9510 C   0  0  0  0  0  0  0  0  0  0  0  0
   11.8036  -21.9047  -28.9674 H   0  0  0  0  0  0  0  0  0  0  0  0
    8.6651  -22.6389  -27.6133 H   0  0  0  0  0  0  0  0  0  0  0  0
   11.2147  -20.2210  -27.3933 H   0  0  0  0  0  0  0  0  0  0  0  0
   12.1402  -21.0270  -26.3161 H   0  0  0  0  0  0  0  0  0  0  0  0
   10.7293  -22.8965  -26.4929 H   0  0  0  0  0  0  0  0  0  0  0  0
    9.8831  -21.5798  -26.0270 H   0  0  0  0  0  0  0  0  0  0  0  0
   16.1214  -26.0416  -25.0527 H   0  0  0  0  0  0  0  0  0  0  0  0
    4.9740  -21.1184  -31.8348 H   0  0  0  0  0  0  0  0  0  0  0  0
    4.8539  -19.8293  -29.8522 H   0  0  0  0  0  0  0  0  0  0  0  0
    6.9364  -22.3455  -32.3451 H   0  0  0  0  0  0  0  0  0  0  0  0
   15.4392  -19.1600  -25.7216 H   0  0  0  0  0  0  0  0  0  0  0  0
    9.8949  -20.5538  -29.0519 H   0  0  0  0  0  0  0  0  0  0  0  0
    8.8743  -20.2598  -27.8115 H   0  0  0  0  0  0  0  0  0  0  0  0
   17.5932  -22.6660  -23.4961 H   0  0  0  0  0  0  0  0  0  0  0  0
   14.0464  -20.2190  -27.3257 H   0  0  0  0  0  0  0  0  0  0  0  0
    6.7091  -19.7455  -28.3708 H   0  0  0  0  0  0  0  0  0  0  0  0
    8.8495  -22.2952  -30.8808 H   0  0  0  0  0  0  0  0  0  0  0  0
   16.8016  -20.4281  -24.2879 H   0  0  0  0  0  0  0  0  0  0  0  0
   14.7870  -24.8807  -26.5823 H   0  0  0  0  0  0  0  0  0  0  0  0
    9.9548  -22.7337  -28.6105 H   0  0  0  0  0  0  0  0  0  0  0  0
  1  2  2  0  0  0  0
  1  3  2  0  0  0  0
  1  4  1  0  0  0  0
  1 21  1  0  0  0  0
  4  7  1  0  0  0  0
  5  8  1  0  0  0  0
  5 14  1  0  0  0  0
  6  9  2  0  0  0  0
  6 15  1  0  0  0  0
  7  8  1  0  0  0  0
  9 20  1  0  0  0  0
 10 11  2  0  0  0  0
 10 12  1  0  0  0  0
 11 17  1  0  0  0  0
 12 18  2  0  0  0  0
 13 16  1  0  0  0  0
 13 19  2  0  0  0  0
 14 22  1  0  0  0  0
 15 23  2  0  0  0  0
 16 21  2  0  0  0  0
 17 22  2  0  0  0  0
 18 22  1  0  0  0  0
 19 23  1  0  0  0  0
 20 24  2  0  0  0  0
 21 24  1  0  0  0  0
 23 24  1  0  0  0  0
  4 25  1  0  0  0  0
  5 26  1  0  0  0  0
  7 27  1  0  0  0  0
  7 28  1  0  0  0  0
  8 29  1  0  0  0  0
  8 30  1  0  0  0  0
  9 31  1  0  0  0  0
 10 32  1  0  0  0  0
 11 33  1  0  0  0  0
 12 34  1  0  0  0  0
 13 35  1  0  0  0  0
 14 36  1  0  0  0  0
 14 37  1  0  0  0  0
 15 38  1  0  0  0  0
 16 39  1  0  0  0  0
 17 40  1  0  0  0  0
 18 41  1  0  0  0  0
 19 42  1  0  0  0  0
 20 43  1  0  0  0  0
  5 44  1  0  0  0  0
M  CHG  1   5   1
M  END
$$$$
6I2H_CL_D_102
prProtoss 03132510193D 1   1.00000     0.00000     0
Protoss beta proteinsplus
  1  0  0  0  0  0            999 V2000
    3.5800  -27.5970  -33.6090 Cl  0  5  0  0  0  0  0  0  0  0  0  0
M  CHG  1   1  -1
M  END
$$$$
6I2H_RIP_D_101
prProtoss 03132510193D 1   1.00000     0.00000     0
Protoss beta proteinsplus
 19 19  0  0  0  0            999 V2000
   -0.4080  -30.3890  -37.0230 O   0  0  0  0  0  0  0  0  0  0  0  0
   -2.7320  -29.3510  -37.7950 O   0  0  0  0  0  0  0  0  0  0  0  0
   -2.8590  -31.4040  -35.9050 O   0  0  0  0  0  0  0  0  0  0  0  0
   -1.0010  -27.6970  -36.2370 O   0  0  0  0  0  0  0  0  0  0  0  0
   -0.3130  -28.6440  -35.4130 C   0  0  1  0  0  0  0  0  0  0  0  0
   -2.4250  -27.7120  -36.0670 C   0  0  0  0  0  0  0  0  0  0  0  0
   -0.8180  -30.0560  -35.7060 C   0  0  1  0  0  0  0  0  0  0  0  0
   -3.0000  -29.0690  -36.4170 C   0  0  2  0  0  0  0  0  0  0  0  0
   -2.3350  -30.1260  -35.5520 C   0  0  1  0  0  0  0  0  0  0  0  0
    0.6788  -28.5764  -35.5216 H   0  0  0  0  0  0  0  0  0  0  0  0
   -2.8327  -27.0205  -36.6634 H   0  0  0  0  0  0  0  0  0  0  0  0
   -2.6427  -27.5006  -35.1141 H   0  0  0  0  0  0  0  0  0  0  0  0
   -0.3952  -30.6936  -35.0620 H   0  0  0  0  0  0  0  0  0  0  0  0
   -3.9870  -29.0709  -36.2561 H   0  0  0  0  0  0  0  0  0  0  0  0
   -2.5647  -29.9429  -34.5961 H   0  0  0  0  0  0  0  0  0  0  0  0
   -0.2670  -31.3768  -37.0885 H   0  0  0  0  0  0  0  0  0  0  0  0
   -1.8547  -29.8244  -37.8739 H   0  0  0  0  0  0  0  0  0  0  0  0
   -2.2794  -31.8199  -36.6058 H   0  0  0  0  0  0  0  0  0  0  0  0
   -0.6940  -28.4660  -34.1040 R#  0  0  0  0  0  0  0  0  0  0  0  0
  8  9  1  0  0  0  0
  5 19  1  0  0  0  0
  1  7  1  0  0  0  0
  2  8  1  0  0  0  0
  3  9  1  0  0  0  0
  4  5  1  0  0  0  0
  4  6  1  0  0  0  0
  5  7  1  0  0  0  0
  6  8  1  0  0  0  0
  7  9  1  0  0  0  0
  5 10  1  0  0  0  0
  6 11  1  0  0  0  0
  6 12  1  0  0  0  0
  7 13  1  0  0  0  0
  8 14  1  0  0  0  0
  9 15  1  0  0  0  0
  1 16  1  0  0  0  0
  2 17  1  0  0  0  0
  3 18  1  0  0  0  0
M  RGP  1  19   1
M  END
$$$$
4UJ9_S3N_A_1351
prProtoss 05262315083D 1   1.00000     0.00000     0
Protoss beta proteinsplus
 45 48  0  0  0  0            999 V2000
   20.7560   12.9120    1.4360 F   0  0  0  0  0  0  0  0  0  0  0  0
   22.4060   13.1520    2.5970 F   0  0  0  0  0  0  0  0  0  0  0  0
   22.0250   14.6600    1.2660 F   0  0  0  0  0  0  0  0  0  0  0  0
   32.9170   10.1460   -4.5960 O   0  0  0  0  0  0  0  0  0  0  0  0
   25.5350   11.4170   -3.7050 O   0  0  0  0  0  0  0  0  0  0  0  0
   25.2070    7.1810   -3.0690 N   0  3  0  0  0  0  0  0  0  0  0  0
   32.9340    9.9370   -2.3040 N   0  0  0  0  0  0  0  0  0  0  0  0
   30.7740    9.5340   -1.1170 N   0  0  0  0  0  0  0  0  0  0  0  0
   32.2040    9.7160   -1.0940 C   0  0  0  0  0  0  0  0  0  0  0  0
   24.5330    8.4010   -2.6370 C   0  0  0  0  0  0  0  0  0  0  0  0
   26.4930    7.6010   -3.6950 C   0  0  0  0  0  0  0  0  0  0  0  0
   23.8670   12.8260   -1.8240 C   0  0  0  0  0  0  0  0  0  0  0  0
   24.0150   10.7940   -0.5050 C   0  0  0  0  0  0  0  0  0  0  0  0
   28.6970    9.6260   -4.8720 C   0  0  0  0  0  0  0  0  0  0  0  0
   23.0950   13.4300   -0.8230 C   0  0  0  0  0  0  0  0  0  0  0  0
   23.2240   11.4070    0.4950 C   0  0  0  0  0  0  0  0  0  0  0  0
   30.0870    9.8190   -4.8330 C   0  0  0  0  0  0  0  0  0  0  0  0
   28.7140    9.3500   -2.4650 C   0  0  0  0  0  0  0  0  0  0  0  0
   32.2980    9.9800   -3.5630 C   0  0  0  0  0  0  0  0  0  0  0  0
   25.1910   10.8150   -2.6790 C   0  0  0  0  0  0  0  0  0  0  0  0
   30.1230    9.5470   -2.4190 C   0  0  0  0  0  0  0  0  0  0  0  0
   24.3320   11.5160   -1.6400 C   0  0  0  0  0  0  0  0  0  0  0  0
   28.0010    9.3740   -3.6670 C   0  0  0  0  0  0  0  0  0  0  0  0
   22.7750   12.7090    0.3290 C   0  0  0  0  0  0  0  0  0  0  0  0
   30.8090    9.7800   -3.5840 C   0  0  0  0  0  0  0  0  0  0  0  0
   25.6540    9.4060   -2.4940 C   0  0  2  0  0  0  0  0  0  0  0  0
   26.5350    9.1280   -3.6570 C   0  0  2  0  0  0  0  0  0  0  0  0
   21.9700   13.3680    1.3890 C   0  0  0  0  0  0  0  0  0  0  0  0
   24.6428    6.6928   -3.7349 H   0  0  0  0  0  0  0  0  0  0  0  0
   33.9246   10.0649   -2.2564 H   0  0  0  0  0  0  0  0  0  0  0  0
   32.6915    9.6874   -0.2213 H   0  0  0  0  0  0  0  0  0  0  0  0
   24.0681    8.2600   -1.7629 H   0  0  0  0  0  0  0  0  0  0  0  0
   23.8701    8.7028   -3.3222 H   0  0  0  0  0  0  0  0  0  0  0  0
   26.5345    7.2803   -4.6413 H   0  0  0  0  0  0  0  0  0  0  0  0
   27.2636    7.2240   -3.1812 H   0  0  0  0  0  0  0  0  0  0  0  0
   24.0846   13.3250   -2.6628 H   0  0  0  0  0  0  0  0  0  0  0  0
   24.3391    9.8547   -0.3926 H   0  0  0  0  0  0  0  0  0  0  0  0
   28.2049    9.6662   -5.7416 H   0  0  0  0  0  0  0  0  0  0  0  0
   22.7753   14.3711   -0.9329 H   0  0  0  0  0  0  0  0  0  0  0  0
   22.9878   10.9002    1.3241 H   0  0  0  0  0  0  0  0  0  0  0  0
   30.5847    9.9861   -5.6841 H   0  0  0  0  0  0  0  0  0  0  0  0
   28.2190    9.1895   -1.6111 H   0  0  0  0  0  0  0  0  0  0  0  0
   26.1417    9.2908   -1.6286 H   0  0  0  0  0  0  0  0  0  0  0  0
   26.1237    9.4989   -4.4896 H   0  0  0  0  0  0  0  0  0  0  0  0
   25.3836    6.5881   -2.2833 H   0  0  0  0  0  0  0  0  0  0  0  0
  1 28  1  0  0  0  0
  2 28  1  0  0  0  0
  3 28  1  0  0  0  0
  4 19  2  0  0  0  0
  5 20  2  0  0  0  0
  6 10  1  0  0  0  0
  6 11  1  0  0  0  0
  7  9  1  0  0  0  0
  7 19  1  0  0  0  0
  8  9  2  0  0  0  0
  8 21  1  0  0  0  0
 10 26  1  0  0  0  0
 11 27  1  0  0  0  0
 12 15  1  0  0  0  0
 12 22  2  0  0  0  0
 13 16  2  0  0  0  0
 13 22  1  0  0  0  0
 14 17  1  0  0  0  0
 14 23  2  0  0  0  0
 15 24  2  0  0  0  0
 16 24  1  0  0  0  0
 17 25  2  0  0  0  0
 18 21  2  0  0  0  0
 18 23  1  0  0  0  0
 19 25  1  0  0  0  0
 20 22  1  0  0  0  0
 20 26  1  0  0  0  0
 21 25  1  0  0  0  0
 23 27  1  0  0  0  0
 24 28  1  0  0  0  0
 26 27  1  0  0  0  0
  6 29  1  0  0  0  0
  7 30  1  0  0  0  0
  9 31  1  0  0  0  0
 10 32  1  0  0  0  0
 10 33  1  0  0  0  0
 11 34  1  0  0  0  0
 11 35  1  0  0  0  0
 12 36  1  0  0  0  0
 13 37  1  0  0  0  0
 14 38  1  0  0  0  0
 15 39  1  0  0  0  0
 16 40  1  0  0  0  0
 17 41  1  0  0  0  0
 18 42  1  0  0  0  0
 26 43  1  0  0  0  0
 27 44  1  0  0  0  0
  6 45  1  0  0  0  0
M  CHG  1   6   1
M  END
$$$$
4UJ9_MPD_A_1352
prProtoss 05262315083D 1   1.00000     0.00000     0
Protoss beta proteinsplus
 22 21  0  0  0  0            999 V2000
   27.4030    7.0350  -15.6350 O   0  0  0  0  0  0  0  0  0  0  0  0
   30.4620    3.8380  -16.9770 O   0  0  0  0  0  0  0  0  0  0  0  0
   26.4300    5.8130  -17.3250 C   0  0  0  0  0  0  0  0  0  0  0  0
   28.3830    2.8650  -16.2460 C   0  0  0  0  0  0  0  0  0  0  0  0
   28.7110    3.7770  -18.4490 C   0  0  0  0  0  0  0  0  0  0  0  0
   28.7220    5.3300  -16.5800 C   0  0  0  0  0  0  0  0  0  0  0  0
   27.3440    5.7490  -16.1660 C   0  0  1  0  0  0  0  0  0  0  0  0
   29.0720    3.9490  -17.0310 C   0  0  0  0  0  0  0  0  0  0  0  0
   28.0138    7.0410  -14.8432 H   0  0  0  0  0  0  0  0  0  0  0  0
   30.8763    4.5756  -17.5102 H   0  0  0  0  0  0  0  0  0  0  0  0
   26.3558    4.9069  -17.7414 H   0  0  0  0  0  0  0  0  0  0  0  0
   25.5266    6.1151  -17.0208 H   0  0  0  0  0  0  0  0  0  0  0  0
   26.7890    6.4604  -17.9973 H   0  0  0  0  0  0  0  0  0  0  0  0
   27.3923    2.9836  -16.3126 H   0  0  0  0  0  0  0  0  0  0  0  0
   28.6375    1.9718  -16.6168 H   0  0  0  0  0  0  0  0  0  0  0  0
   28.6615    2.9195  -15.2871 H   0  0  0  0  0  0  0  0  0  0  0  0
   27.7187    3.8471  -18.5512 H   0  0  0  0  0  0  0  0  0  0  0  0
   29.1534    4.4890  -18.9943 H   0  0  0  0  0  0  0  0  0  0  0  0
   29.0158    2.8782  -18.7639 H   0  0  0  0  0  0  0  0  0  0  0  0
   29.3105    5.5162  -15.7932 H   0  0  0  0  0  0  0  0  0  0  0  0
   28.9744    5.9347  -17.3355 H   0  0  0  0  0  0  0  0  0  0  0  0
   26.9848    5.1135  -15.4825 H   0  0  0  0  0  0  0  0  0  0  0  0
  1  7  1  0  0  0  0
  2  8  1  0  0  0  0
  3  7  1  0  0  0  0
  4  8  1  0  0  0  0
  5  8  1  0  0  0  0
  6  7  1  0  0  0  0
  6  8  1  0  0  0  0
  1  9  1  0  0  0  0
  2 10  1  0  0  0  0
  3 11  1  0  0  0  0
  3 12  1  0  0  0  0
  3 13  1  0  0  0  0
  4 14  1  0  0  0  0
  4 15  1  0  0  0  0
  4 16  1  0  0  0  0
  5 17  1  0  0  0  0
  5 18  1  0  0  0  0
  5 19  1  0  0  0  0
  6 20  1  0  0  0  0
  6 21  1  0  0  0  0
  7 22  1  0  0  0  0
M  END
$$$$
4UJ9_MPD_A_1353
prProtoss 05262315083D 1   1.00000     0.00000     0
Protoss beta proteinsplus
 22 21  0  0  0  0            999 V2000
   38.7760   -9.6000    9.9160 O   0  0  0  0  0  0  0  0  0  0  0  0
   41.2830   -9.0280    7.1190 O   0  0  0  0  0  0  0  0  0  0  0  0
   38.1050   -7.3850    9.4830 C   0  0  0  0  0  0  0  0  0  0  0  0
   42.7390   -8.8330    8.9740 C   0  0  0  0  0  0  0  0  0  0  0  0
   41.0550  -10.5310    8.8720 C   0  0  0  0  0  0  0  0  0  0  0  0
   40.4100   -8.1640    9.1190 C   0  0  0  0  0  0  0  0  0  0  0  0
   38.9670   -8.5350    9.0630 C   0  0  1  0  0  0  0  0  0  0  0  0
   41.3660   -9.1260    8.4950 C   0  0  0  0  0  0  0  0  0  0  0  0
   38.0357  -10.1760    9.5695 H   0  0  0  0  0  0  0  0  0  0  0  0
   40.3485   -9.2303    6.8262 H   0  0  0  0  0  0  0  0  0  0  0  0
   38.2485   -6.6160    8.8601 H   0  0  0  0  0  0  0  0  0  0  0  0
   37.1443   -7.6612    9.4559 H   0  0  0  0  0  0  0  0  0  0  0  0
   38.3466   -7.1098   10.4135 H   0  0  0  0  0  0  0  0  0  0  0  0
   42.7682   -8.9115    9.9705 H   0  0  0  0  0  0  0  0  0  0  0  0
   43.3796   -9.4856    8.5693 H   0  0  0  0  0  0  0  0  0  0  0  0
   42.9948   -7.9044    8.7051 H   0  0  0  0  0  0  0  0  0  0  0  0
   41.1083  -10.6291    9.8657 H   0  0  0  0  0  0  0  0  0  0  0  0
   40.1325  -10.7626    8.5632 H   0  0  0  0  0  0  0  0  0  0  0  0
   41.7151  -11.1458    8.4405 H   0  0  0  0  0  0  0  0  0  0  0  0
   40.6619   -8.0656   10.0817 H   0  0  0  0  0  0  0  0  0  0  0  0
   40.5165   -7.2846    8.6550 H   0  0  0  0  0  0  0  0  0  0  0  0
   38.7286   -8.8074    8.1308 H   0  0  0  0  0  0  0  0  0  0  0  0
  1  7  1  0  0  0  0
  2  8  1  0  0  0  0
  3  7  1  0  0  0  0
  4  8  1  0  0  0  0
  5  8  1  0  0  0  0
  6  7  1  0  0  0  0
  6  8  1  0  0  0  0
  1  9  1  0  0  0  0
  2 10  1  0  0  0  0
  3 11  1  0  0  0  0
  3 12  1  0  0  0  0
  3 13  1  0  0  0  0
  4 14  1  0  0  0  0
  4 15  1  0  0  0  0
  4 16  1  0  0  0  0
  5 17  1  0  0  0  0
  5 18  1  0  0  0  0
  5 19  1  0  0  0  0
  6 20  1  0  0  0  0
  6 21  1  0  0  0  0
  7 22  1  0  0  0  0
M  END
$$$$
4UJ9_TPO_A_1354
prProtoss 05262315083D 1   1.00000     0.00000     0
Protoss beta proteinsplus
 20 19  0  0  0  0            999 V2000
   17.0790    4.3410   15.2210 P   0  0  0  0  0  0  0  0  0  0  0  0
   17.3070    2.8260   15.2430 O   0  0  0  0  0  0  0  0  0  0  0  0
   17.0080    4.9030   16.6510 O   0  5  0  0  0  0  0  0  0  0  0  0
   18.0130    5.0880   14.2180 O   0  5  0  0  0  0  0  0  0  0  0  0
   12.8040    2.3350   12.1880 O   0  0  0  0  0  0  0  0  0  0  0  0
   14.6420    1.3830   11.7890 O   0  0  0  0  0  0  0  0  0  0  0  0
   15.6260    4.5100   14.6700 O   0  0  0  0  0  0  0  0  0  0  0  0
   14.7440    2.0480   14.7940 N   0  0  0  0  0  0  0  0  0  0  0  0
   14.9620    4.9240   12.4070 C   0  0  0  0  0  0  0  0  0  0  0  0
   13.9690    2.1490   12.5210 C   0  0  0  0  0  0  0  0  0  0  0  0
   15.4100    3.9060   13.4390 C   0  0  2  0  0  0  0  0  0  0  0  0
   14.3230    2.9240   13.7230 C   0  0  2  0  0  0  0  0  0  0  0  0
   14.8130    4.4665   11.5304 H   0  0  0  0  0  0  0  0  0  0  0  0
   14.1100    5.3518   12.7088 H   0  0  0  0  0  0  0  0  0  0  0  0
   15.6677    5.6246   12.3017 H   0  0  0  0  0  0  0  0  0  0  0  0
   16.2361    3.4346   13.1303 H   0  0  0  0  0  0  0  0  0  0  0  0
   13.5132    3.4269   14.0252 H   0  0  0  0  0  0  0  0  0  0  0  0
   15.6125    2.0906   15.2879 H   0  0  0  0  0  0  0  0  0  0  0  0
   13.4870    0.9310   15.0580 R#  0  0  0  0  0  0  0  0  0  0  0  0
   12.5060    3.1880   11.3560 R#  0  0  0  0  0  0  0  0  0  0  0  0
  8 18  1  0  0  0  0
  9 14  1  0  0  0  0
 11 12  1  0  0  0  0
 10 12  1  0  0  0  0
  9 11  1  0  0  0  0
  8 12  1  0  0  0  0
  7 11  1  0  0  0  0
  5 20  1  0  0  0  0
  9 15  1  0  0  0  0
 11 16  1  0  0  0  0
  9 13  1  0  0  0  0
  5 10  1  0  0  0  0
  6 10  2  0  0  0  0
 12 17  1  0  0  0  0
  8 19  1  0  0  0  0
  1  2  2  0  0  0  0
  1  3  1  0  0  0  0
  1  4  1  0  0  0  0
  1  7  1  0  0  0  0
M  CHG  2   3  -1   4  -1
M  RGP  2  19   1  20   2
M  END
$$$$
6E99_J0G_A_601
prProtoss 05262315223D 1   1.00000     0.00000     0
Protoss beta proteinsplus
 56 58  0  0  0  0            999 V2000
   -5.3110   12.0010  -14.1620 O   0  0  0  0  0  0  0  0  0  0  0  0
    0.7370   13.2410  -11.5300 O   0  0  0  0  0  0  0  0  0  0  0  0
   -3.7140    6.3400  -16.5900 N   0  3  0  0  0  0  0  0  0  0  0  0
  -12.3510    6.3750  -12.7910 N   0  0  0  0  0  0  0  0  0  0  0  0
   -5.7180    8.3320  -15.7440 N   0  0  0  0  0  0  0  0  0  0  0  0
   -3.9520   10.1270  -14.0500 N   0  0  0  0  0  0  0  0  0  0  0  0
    0.9880   14.0410  -12.6850 C   0  0  0  0  0  0  0  0  0  0  0  0
   -1.6900    9.9800  -14.9250 C   0  0  0  0  0  0  0  0  0  0  0  0
   -4.8030    6.8110  -17.4250 C   0  0  0  0  0  0  0  0  0  0  0  0
   -5.9860    7.1410  -16.5410 C   0  0  0  0  0  0  0  0  0  0  0  0
  -12.3100    7.7090  -12.8810 C   0  0  0  0  0  0  0  0  0  0  0  0
  -11.1820    5.7430  -12.9600 C   0  0  0  0  0  0  0  0  0  0  0  0
   -1.7730   10.8470  -10.4950 C   0  0  0  0  0  0  0  0  0  0  0  0
   -0.7300   11.7470  -10.4880 C   0  0  0  0  0  0  0  0  0  0  0  0
  -11.1640    8.4370  -13.1240 C   0  0  0  0  0  0  0  0  0  0  0  0
   -9.9820    6.3830  -13.2050 C   0  0  0  0  0  0  0  0  0  0  0  0
   -2.4210   10.5500  -11.6740 C   0  0  0  0  0  0  0  0  0  0  0  0
   -8.4550    9.6400  -12.8010 C   0  0  0  0  0  0  0  0  0  0  0  0
   -7.2940   10.3450  -13.0250 C   0  0  0  0  0  0  0  0  0  0  0  0
   -0.9950   12.0590  -12.8440 C   0  0  0  0  0  0  0  0  0  0  0  0
   -7.8150    8.0930  -14.4890 C   0  0  0  0  0  0  0  0  0  0  0  0
   -5.1720   10.7830  -14.0870 C   0  0  0  0  0  0  0  0  0  0  0  0
   -0.3440   12.3660  -11.6600 C   0  0  0  0  0  0  0  0  0  0  0  0
   -2.6860   10.8360  -14.1640 C   0  0  2  0  0  0  0  0  0  0  0  0
   -6.6300    8.7850  -14.7430 C   0  0  0  0  0  0  0  0  0  0  0  0
   -2.0380   11.1550  -12.8520 C   0  0  0  0  0  0  0  0  0  0  0  0
   -9.9660    7.7640  -13.2870 C   0  0  0  0  0  0  0  0  0  0  0  0
   -8.7290    8.5010  -13.5310 C   0  0  0  0  0  0  0  0  0  0  0  0
   -6.3830    9.9260  -13.9760 C   0  0  0  0  0  0  0  0  0  0  0  0
   -3.7776    5.3473  -16.4879 H   0  0  0  0  0  0  0  0  0  0  0  0
   -2.8408    6.5760  -17.0165 H   0  0  0  0  0  0  0  0  0  0  0  0
   -4.8741    8.8446  -15.9024 H   0  0  0  0  0  0  0  0  0  0  0  0
   -3.9410    9.1330  -13.9413 H   0  0  0  0  0  0  0  0  0  0  0  0
    1.7724   14.6371  -12.5136 H   0  0  0  0  0  0  0  0  0  0  0  0
    1.1847   13.4474  -13.4653 H   0  0  0  0  0  0  0  0  0  0  0  0
    0.1828   14.5991  -12.8854 H   0  0  0  0  0  0  0  0  0  0  0  0
   -0.8210   10.4687  -15.0023 H   0  0  0  0  0  0  0  0  0  0  0  0
   -1.5465    9.1202  -14.4349 H   0  0  0  0  0  0  0  0  0  0  0  0
   -2.0464    9.7871  -15.8392 H   0  0  0  0  0  0  0  0  0  0  0  0
   -5.0593    6.0978  -18.0774 H   0  0  0  0  0  0  0  0  0  0  0  0
   -4.5158    7.6298  -17.9220 H   0  0  0  0  0  0  0  0  0  0  0  0
   -6.7889    7.3037  -17.1145 H   0  0  0  0  0  0  0  0  0  0  0  0
   -6.1639    6.3700  -15.9294 H   0  0  0  0  0  0  0  0  0  0  0  0
  -13.1667    8.2115  -12.7644 H   0  0  0  0  0  0  0  0  0  0  0  0
  -11.1774    4.7445  -12.9054 H   0  0  0  0  0  0  0  0  0  0  0  0
   -2.0601   10.4087   -9.6432 H   0  0  0  0  0  0  0  0  0  0  0  0
   -0.2524   11.9520   -9.6337 H   0  0  0  0  0  0  0  0  0  0  0  0
  -11.1983    9.4348  -13.1814 H   0  0  0  0  0  0  0  0  0  0  0  0
   -9.1395    5.8569  -13.3210 H   0  0  0  0  0  0  0  0  0  0  0  0
   -3.1737    9.8916  -11.6752 H   0  0  0  0  0  0  0  0  0  0  0  0
   -9.1024    9.9543  -12.1067 H   0  0  0  0  0  0  0  0  0  0  0  0
   -7.1075   11.1708  -12.4928 H   0  0  0  0  0  0  0  0  0  0  0  0
   -0.7077   12.4946  -13.6971 H   0  0  0  0  0  0  0  0  0  0  0  0
   -8.0125    7.2690  -15.0201 H   0  0  0  0  0  0  0  0  0  0  0  0
   -2.8346   11.6868  -14.6680 H   0  0  0  0  0  0  0  0  0  0  0  0
   -3.7730    6.7721  -15.6901 H   0  0  0  0  0  0  0  0  0  0  0  0
  1 22  2  0  0  0  0
  2  7  1  0  0  0  0
  2 23  1  0  0  0  0
  3  9  1  0  0  0  0
  4 11  2  0  0  0  0
  4 12  1  0  0  0  0
  5 10  1  0  0  0  0
  5 25  1  0  0  0  0
  6 22  1  0  0  0  0
  6 24  1  0  0  0  0
  8 24  1  0  0  0  0
  9 10  1  0  0  0  0
 11 15  1  0  0  0  0
 12 16  2  0  0  0  0
 13 14  2  0  0  0  0
 13 17  1  0  0  0  0
 14 23  1  0  0  0  0
 15 27  2  0  0  0  0
 16 27  1  0  0  0  0
 17 26  2  0  0  0  0
 18 19  1  0  0  0  0
 18 28  2  0  0  0  0
 19 29  2  0  0  0  0
 20 23  2  0  0  0  0
 20 26  1  0  0  0  0
 21 25  2  0  0  0  0
 21 28  1  0  0  0  0
 22 29  1  0  0  0  0
 24 26  1  0  0  0  0
 25 29  1  0  0  0  0
 27 28  1  0  0  0  0
  3 30  1  0  0  0  0
  3 31  1  0  0  0  0
  5 32  1  0  0  0  0
  6 33  1  0  0  0  0
  7 34  1  0  0  0  0
  7 35  1  0  0  0  0
  7 36  1  0  0  0  0
  8 37  1  0  0  0  0
  8 38  1  0  0  0  0
  8 39  1  0  0  0  0
  9 40  1  0  0  0  0
  9 41  1  0  0  0  0
 10 42  1  0  0  0  0
 10 43  1  0  0  0  0
 11 44  1  0  0  0  0
 12 45  1  0  0  0  0
 13 46  1  0  0  0  0
 14 47  1  0  0  0  0
 15 48  1  0  0  0  0
 16 49  1  0  0  0  0
 17 50  1  0  0  0  0
 18 51  1  0  0  0  0
 19 52  1  0  0  0  0
 20 53  1  0  0  0  0
 21 54  1  0  0  0  0
 24 55  1  0  0  0  0
  3 56  1  0  0  0  0
M  CHG  1   3   1
M  END
$$$$
3AMA_SKE_A_351
prProtoss 05262315313D 1   1.00000     0.00000     0
Protoss beta proteinsplus
 39 41  0  0  0  0            999 V2000
  -28.6830   10.0970   11.9220 S   0  0  0  0  0  0  0  0  0  0  0  0
  -28.7600   11.7680    5.1630 F   0  0  0  0  0  0  0  0  0  0  0  0
  -28.0770    7.7870    2.6430 F   0  0  0  0  0  0  0  0  0  0  0  0
  -29.5200   10.0720   13.1440 O   0  0  0  0  0  0  0  0  0  0  0  0
  -27.9410   11.4000   11.7950 O   0  0  0  0  0  0  0  0  0  0  0  0
  -29.9410   10.0090    1.9880 O   0  0  0  0  0  0  0  0  0  0  0  0
  -27.6010    8.8890   11.9620 N   0  0  0  0  0  0  0  0  0  0  0  0
  -32.7050    9.9840    2.5270 N   0  0  0  0  0  0  0  0  0  0  0  0
  -30.7180    9.7660    5.3140 N   0  0  0  0  0  0  0  0  0  0  0  0
  -32.8470    9.7610    4.8840 N   0  0  0  0  0  0  0  0  0  0  0  0
  -32.2440    9.5780    7.1800 N   0  0  0  0  0  0  0  0  0  0  0  0
  -30.8520    9.9000    4.0690 N   0  0  0  0  0  0  0  0  0  0  0  0
  -25.9770    9.4020    5.1640 C   0  0  0  0  0  0  0  0  0  0  0  0
  -29.1850    9.8560    9.2300 C   0  0  0  0  0  0  0  0  0  0  0  0
  -31.1380    9.8940   10.6410 C   0  0  0  0  0  0  0  0  0  0  0  0
  -26.7610   10.5130    5.4890 C   0  0  0  0  0  0  0  0  0  0  0  0
  -26.4190    8.4880    4.2010 C   0  0  0  0  0  0  0  0  0  0  0  0
  -30.0060    9.7340    8.1000 C   0  0  0  0  0  0  0  0  0  0  0  0
  -31.9640    9.7690    9.5190 C   0  0  0  0  0  0  0  0  0  0  0  0
  -29.7490    9.9280   10.5000 C   0  0  0  0  0  0  0  0  0  0  0  0
  -27.9940   10.7000    4.8540 C   0  0  0  0  0  0  0  0  0  0  0  0
  -27.6450    8.6810    3.5630 C   0  0  0  0  0  0  0  0  0  0  0  0
  -32.1560    9.8830    3.7540 C   0  0  0  0  0  0  0  0  0  0  0  0
  -29.8050    9.9720    3.2190 C   0  0  0  0  0  0  0  0  0  0  0  0
  -31.9350    9.7100    5.8650 C   0  0  0  0  0  0  0  0  0  0  0  0
  -31.4040    9.6890    8.2320 C   0  0  0  0  0  0  0  0  0  0  0  0
  -28.4260    9.7910    3.8830 C   0  0  0  0  0  0  0  0  0  0  0  0
  -27.9950    8.0743   11.5365 H   0  0  0  0  0  0  0  0  0  0  0  0
  -26.7787    9.1614   11.4624 H   0  0  0  0  0  0  0  0  0  0  0  0
  -32.1180   10.0732    1.7224 H   0  0  0  0  0  0  0  0  0  0  0  0
  -33.6993    9.9698    2.4214 H   0  0  0  0  0  0  0  0  0  0  0  0
  -33.1998    9.3761    7.3938 H   0  0  0  0  0  0  0  0  0  0  0  0
  -25.0987    9.2602    5.6206 H   0  0  0  0  0  0  0  0  0  0  0  0
  -28.1914    9.8914    9.1229 H   0  0  0  0  0  0  0  0  0  0  0  0
  -31.5456    9.9596   11.5518 H   0  0  0  0  0  0  0  0  0  0  0  0
  -26.4424   11.1706    6.1717 H   0  0  0  0  0  0  0  0  0  0  0  0
  -25.8553    7.6951    3.9696 H   0  0  0  0  0  0  0  0  0  0  0  0
  -29.5925    9.6785    7.1912 H   0  0  0  0  0  0  0  0  0  0  0  0
  -32.9570    9.7364    9.6329 H   0  0  0  0  0  0  0  0  0  0  0  0
  1  4  2  0  0  0  0
  1  5  2  0  0  0  0
  1  7  1  0  0  0  0
  1 20  1  0  0  0  0
  2 21  1  0  0  0  0
  3 22  1  0  0  0  0
  6 24  2  0  0  0  0
  8 23  1  0  0  0  0
  9 12  1  0  0  0  0
  9 25  2  0  0  0  0
 10 23  2  0  0  0  0
 10 25  1  0  0  0  0
 11 25  1  0  0  0  0
 11 26  1  0  0  0  0
 12 23  1  0  0  0  0
 12 24  1  0  0  0  0
 13 16  2  0  0  0  0
 13 17  1  0  0  0  0
 14 18  1  0  0  0  0
 14 20  2  0  0  0  0
 15 19  2  0  0  0  0
 15 20  1  0  0  0  0
 16 21  1  0  0  0  0
 17 22  2  0  0  0  0
 18 26  2  0  0  0  0
 19 26  1  0  0  0  0
 21 27  2  0  0  0  0
 22 27  1  0  0  0  0
 24 27  1  0  0  0  0
  7 28  1  0  0  0  0
  7 29  1  0  0  0  0
  8 30  1  0  0  0  0
  8 31  1  0  0  0  0
 11 32  1  0  0  0  0
 13 33  1  0  0  0  0
 14 34  1  0  0  0  0
 15 35  1  0  0  0  0
 16 36  1  0  0  0  0
 17 37  1  0  0  0  0
 18 38  1  0  0  0  0
 19 39  1  0  0  0  0
M  END
$$$$
7BAQ_T82_A_401
prProtoss 06142302293D 1   1.00000     0.00000     0
Protoss beta proteinsplus
 39 40  0  0  0  0            999 V2000
  -11.4070    8.9610   -7.0150 Br  0  0  0  0  0  0  0  0  0  0  0  0
   -2.9980   16.3170   -4.0650 Cl  0  0  0  0  0  0  0  0  0  0  0  0
   -5.5940   12.2060   -8.5230 O   0  0  0  0  0  0  0  0  0  0  0  0
  -13.8130   10.7580   -6.8010 O   0  0  0  0  0  0  0  0  0  0  0  0
   -4.8020   14.1570  -11.0690 N   0  3  0  0  0  0  0  0  0  0  0  0
   -8.0230   13.1310   -7.9060 N   0  0  0  0  0  0  0  0  0  0  0  0
   -6.9470   13.9670   -8.1270 N   0  0  0  0  0  0  0  0  0  0  0  0
   -3.8830   14.0850   -9.8990 C   0  0  0  0  0  0  0  0  0  0  0  0
   -2.3320   12.8980   -5.9770 C   0  0  0  0  0  0  0  0  0  0  0  0
   -9.1110   13.7190   -7.5990 C   0  0  0  0  0  0  0  0  0  0  0  0
   -2.2850   13.9050   -5.0290 C   0  0  0  0  0  0  0  0  0  0  0  0
   -3.0610   13.0710   -7.1430 C   0  0  0  0  0  0  0  0  0  0  0  0
  -12.6950   12.8860   -6.9950 C   0  0  0  0  0  0  0  0  0  0  0  0
  -11.5280   13.6030   -7.1620 C   0  0  0  0  0  0  0  0  0  0  0  0
  -10.2940   11.5570   -7.2900 C   0  0  0  0  0  0  0  0  0  0  0  0
   -3.6990   15.2570   -6.4310 C   0  0  0  0  0  0  0  0  0  0  0  0
  -11.4660   10.8580   -7.1020 C   0  0  0  0  0  0  0  0  0  0  0  0
   -2.9830   15.0770   -5.2670 C   0  0  0  0  0  0  0  0  0  0  0  0
   -5.7680   13.4150   -8.4340 C   0  0  0  0  0  0  0  0  0  0  0  0
  -12.6890   11.4970   -6.9570 C   0  0  0  0  0  0  0  0  0  0  0  0
  -10.3180   12.9570   -7.3250 C   0  0  0  0  0  0  0  0  0  0  0  0
   -3.7580   14.2570   -7.3820 C   0  0  0  0  0  0  0  0  0  0  0  0
   -4.6280   14.4160   -8.6100 C   0  0  1  0  0  0  0  0  0  0  0  0
  -14.6998   11.2105   -6.7068 H   0  0  0  0  0  0  0  0  0  0  0  0
   -4.7948   15.0848  -11.4419 H   0  0  0  0  0  0  0  0  0  0  0  0
   -4.4985   13.5131  -11.7713 H   0  0  0  0  0  0  0  0  0  0  0  0
   -7.0464   14.9597   -8.0593 H   0  0  0  0  0  0  0  0  0  0  0  0
   -3.1380   14.7400  -10.0255 H   0  0  0  0  0  0  0  0  0  0  0  0
   -3.5067   13.1608   -9.8331 H   0  0  0  0  0  0  0  0  0  0  0  0
   -1.8383   12.0426   -5.8202 H   0  0  0  0  0  0  0  0  0  0  0  0
   -9.1347   14.7173   -7.5459 H   0  0  0  0  0  0  0  0  0  0  0  0
   -1.7569   13.7885   -4.1879 H   0  0  0  0  0  0  0  0  0  0  0  0
   -3.0881   12.3371   -7.8217 H   0  0  0  0  0  0  0  0  0  0  0  0
  -13.5618   13.3754   -6.8995 H   0  0  0  0  0  0  0  0  0  0  0  0
  -11.5586   14.6025   -7.1651 H   0  0  0  0  0  0  0  0  0  0  0  0
   -9.4295   11.0668   -7.4011 H   0  0  0  0  0  0  0  0  0  0  0  0
   -4.1801   16.1194   -6.5884 H   0  0  0  0  0  0  0  0  0  0  0  0
   -4.9923   15.3462   -8.6539 H   0  0  0  0  0  0  0  0  0  0  0  0
   -5.7296   13.9214  -10.7792 H   0  0  0  0  0  0  0  0  0  0  0  0
  1 17  1  0  0  0  0
  2 18  1  0  0  0  0
  3 19  2  0  0  0  0
  4 20  1  0  0  0  0
  5  8  1  0  0  0  0
  6  7  1  0  0  0  0
  6 10  2  0  0  0  0
  7 19  1  0  0  0  0
  8 23  1  0  0  0  0
  9 11  2  0  0  0  0
  9 12  1  0  0  0  0
 10 21  1  0  0  0  0
 11 18  1  0  0  0  0
 12 22  2  0  0  0  0
 13 14  1  0  0  0  0
 13 20  2  0  0  0  0
 14 21  2  0  0  0  0
 15 17  2  0  0  0  0
 15 21  1  0  0  0  0
 16 18  2  0  0  0  0
 16 22  1  0  0  0  0
 17 20  1  0  0  0  0
 19 23  1  0  0  0  0
 22 23  1  0  0  0  0
  4 24  1  0  0  0  0
  5 25  1  0  0  0  0
  5 26  1  0  0  0  0
  7 27  1  0  0  0  0
  8 28  1  0  0  0  0
  8 29  1  0  0  0  0
  9 30  1  0  0  0  0
 10 31  1  0  0  0  0
 11 32  1  0  0  0  0
 12 33  1  0  0  0  0
 13 34  1  0  0  0  0
 14 35  1  0  0  0  0
 15 36  1  0  0  0  0
 16 37  1  0  0  0  0
 23 38  1  0  0  0  0
  5 39  1  0  0  0  0
M  CHG  1   5   1
M  END
$$$$
7BAR_T82_A_401
prProtoss 06142302443D 1   1.00000     0.00000     0
Protoss beta proteinsplus
 39 40  0  0  0  0            999 V2000
   15.4020    1.2090   19.9100 Br  0  0  0  0  0  0  0  0  0  0  0  0
    8.0250    5.8230   12.8840 Cl  0  0  0  0  0  0  0  0  0  0  0  0
    9.2680    2.6700   17.1450 O   0  0  0  0  0  0  0  0  0  0  0  0
   17.1820    3.6030   20.2910 O   0  0  0  0  0  0  0  0  0  0  0  0
    6.8070    2.0340   18.8660 N   0  3  0  0  0  0  0  0  0  0  0  0
   11.1520    4.1600   18.4130 N   0  0  0  0  0  0  0  0  0  0  0  0
    9.8270    4.5180   18.3470 N   0  0  0  0  0  0  0  0  0  0  0  0
    6.5800    2.9750   17.7380 C   0  0  0  0  0  0  0  0  0  0  0  0
    6.3190    7.3760   16.1260 C   0  0  0  0  0  0  0  0  0  0  0  0
   11.9760    5.0730   18.7560 C   0  0  0  0  0  0  0  0  0  0  0  0
    6.7520    7.1960   14.8240 C   0  0  0  0  0  0  0  0  0  0  0  0
    6.5640    6.4060   17.0840 C   0  0  0  0  0  0  0  0  0  0  0  0
   15.5800    5.3500   19.7760 C   0  0  0  0  0  0  0  0  0  0  0  0
   14.2930    5.6960   19.4100 C   0  0  0  0  0  0  0  0  0  0  0  0
   13.6790    3.3830   19.3320 C   0  0  0  0  0  0  0  0  0  0  0  0
    7.6730    5.0590   15.4480 C   0  0  0  0  0  0  0  0  0  0  0  0
   14.9660    3.0400   19.7000 C   0  0  0  0  0  0  0  0  0  0  0  0
    7.4310    6.0410   14.5070 C   0  0  0  0  0  0  0  0  0  0  0  0
    8.9470    3.6990   17.7470 C   0  0  0  0  0  0  0  0  0  0  0  0
   15.9390    4.0050   19.9310 C   0  0  0  0  0  0  0  0  0  0  0  0
   13.3250    4.7240   19.1890 C   0  0  0  0  0  0  0  0  0  0  0  0
    7.2360    5.2380   16.7560 C   0  0  0  0  0  0  0  0  0  0  0  0
    7.5020    4.1900   17.8270 C   0  0  1  0  0  0  0  0  0  0  0  0
    5.9616    1.9319   19.3902 H   0  0  0  0  0  0  0  0  0  0  0  0
    7.0858    1.1435   18.5063 H   0  0  0  0  0  0  0  0  0  0  0  0
   11.4558    3.2307   18.2029 H   0  0  0  0  0  0  0  0  0  0  0  0
    9.5195    5.3831   18.7433 H   0  0  0  0  0  0  0  0  0  0  0  0
    5.6298    3.2860   17.7606 H   0  0  0  0  0  0  0  0  0  0  0  0
    6.7541    2.4976   16.8767 H   0  0  0  0  0  0  0  0  0  0  0  0
    5.8271    8.2099   16.3763 H   0  0  0  0  0  0  0  0  0  0  0  0
   11.6953    6.0324   18.7277 H   0  0  0  0  0  0  0  0  0  0  0  0
    6.5752    7.8911   14.1272 H   0  0  0  0  0  0  0  0  0  0  0  0
    6.2526    6.5496   18.0234 H   0  0  0  0  0  0  0  0  0  0  0  0
   16.2607    6.0659   19.9315 H   0  0  0  0  0  0  0  0  0  0  0  0
   14.0547    6.6612   19.3025 H   0  0  0  0  0  0  0  0  0  0  0  0
   12.9998    2.6676   19.1678 H   0  0  0  0  0  0  0  0  0  0  0  0
    8.1596    4.2243   15.1901 H   0  0  0  0  0  0  0  0  0  0  0  0
    7.3677    4.6176   18.7209 H   0  0  0  0  0  0  0  0  0  0  0  0
    7.5264    2.3935   19.4604 H   0  0  0  0  0  0  0  0  0  0  0  0
  1 17  1  0  0  0  0
  2 18  1  0  0  0  0
  3 19  2  0  0  0  0
  4 20  2  0  0  0  0
  5  8  1  0  0  0  0
  6  7  1  0  0  0  0
  6 10  1  0  0  0  0
  7 19  1  0  0  0  0
  8 23  1  0  0  0  0
  9 11  2  0  0  0  0
  9 12  1  0  0  0  0
 10 21  2  0  0  0  0
 11 18  1  0  0  0  0
 12 22  2  0  0  0  0
 13 14  2  0  0  0  0
 13 20  1  0  0  0  0
 14 21  1  0  0  0  0
 15 17  2  0  0  0  0
 15 21  1  0  0  0  0
 16 18  2  0  0  0  0
 16 22  1  0  0  0  0
 17 20  1  0  0  0  0
 19 23  1  0  0  0  0
 22 23  1  0  0  0  0
  5 24  1  0  0  0  0
  5 25  1  0  0  0  0
  6 26  1  0  0  0  0
  7 27  1  0  0  0  0
  8 28  1  0  0  0  0
  8 29  1  0  0  0  0
  9 30  1  0  0  0  0
 10 31  1  0  0  0  0
 11 32  1  0  0  0  0
 12 33  1  0  0  0  0
 13 34  1  0  0  0  0
 14 35  1  0  0  0  0
 15 36  1  0  0  0  0
 16 37  1  0  0  0  0
 23 38  1  0  0  0  0
  5 39  1  0  0  0  0
M  CHG  1   5   1
M  END
$$$$
2JDS_L20_A_1351
prProtoss 06142303403D 1   1.00000     0.00000     0
Protoss beta proteinsplus
 54 58  0  0  0  0            999 V2000
   11.8460    9.1220    1.4320 O   0  0  0  0  0  0  0  0  0  0  0  0
   13.6780    6.9530    1.0090 N   0  3  0  0  0  0  0  0  0  0  0  0
    3.2910   10.2130    3.9520 N   0  0  0  0  0  0  0  0  0  0  0  0
    3.0470   10.0550    2.6330 N   0  0  0  0  0  0  0  0  0  0  0  0
    9.7940   10.4900   -1.2240 N   0  0  0  0  0  0  0  0  0  0  0  0
   15.2870   10.6400   -0.6800 N   0  0  0  0  0  0  0  0  0  0  0  0
    5.2660   10.4400    5.5250 C   0  0  0  0  0  0  0  0  0  0  0  0
   11.9780    8.1240    2.4350 C   0  0  0  0  0  0  0  0  0  0  0  0
   10.8200   10.0540   -0.4890 C   0  0  0  0  0  0  0  0  0  0  0  0
    8.5930   10.4500   -0.6350 C   0  0  0  0  0  0  0  0  0  0  0  0
   15.3690    9.5750    0.2160 C   0  0  0  0  0  0  0  0  0  0  0  0
   13.2600   13.7160    0.1230 C   0  0  0  0  0  0  0  0  0  0  0  0
   12.8400   13.2790    1.4070 C   0  0  0  0  0  0  0  0  0  0  0  0
   14.0800   12.9000   -0.6610 C   0  0  0  0  0  0  0  0  0  0  0  0
   13.2220   12.0460    1.9290 C   0  0  0  0  0  0  0  0  0  0  0  0
    4.5590    9.8680    0.5620 C   0  0  0  0  0  0  0  0  0  0  0  0
    5.8810    9.8780    0.1840 C   0  0  0  0  0  0  0  0  0  0  0  0
    9.4230    9.4970    1.4340 C   0  0  0  0  0  0  0  0  0  0  0  0
   14.4850    8.9090    2.5360 C   0  0  0  0  0  0  0  0  0  0  0  0
    6.6500   10.1370    2.5050 C   0  0  0  0  0  0  0  0  0  0  0  0
   10.6840    9.5480    0.8020 C   0  0  0  0  0  0  0  0  0  0  0  0
   13.4770    7.7060    2.3250 C   0  0  2  0  0  0  0  0  0  0  0  0
    4.6210   10.2650    4.1860 C   0  0  0  0  0  0  0  0  0  0  0  0
    4.2510   10.0170    1.9210 C   0  0  0  0  0  0  0  0  0  0  0  0
   14.4790   11.6510   -0.1260 C   0  0  0  0  0  0  0  0  0  0  0  0
    8.3300    9.9810    0.6680 C   0  0  0  0  0  0  0  0  0  0  0  0
   14.6420    9.8410    1.3870 C   0  0  0  0  0  0  0  0  0  0  0  0
    6.9390    9.9970    1.1450 C   0  0  0  0  0  0  0  0  0  0  0  0
    5.3130   10.1620    2.9070 C   0  0  0  0  0  0  0  0  0  0  0  0
   14.0590   11.1890    1.1860 C   0  0  0  0  0  0  0  0  0  0  0  0
   14.6359    6.6785    0.9250 H   0  0  0  0  0  0  0  0  0  0  0  0
   13.0961    6.1398    0.9980 H   0  0  0  0  0  0  0  0  0  0  0  0
    2.1376    9.9765    2.2244 H   0  0  0  0  0  0  0  0  0  0  0  0
   15.7318   10.6795   -1.5748 H   0  0  0  0  0  0  0  0  0  0  0  0
    6.2603   10.4444    5.4180 H   0  0  0  0  0  0  0  0  0  0  0  0
    4.9701   11.3066    5.9268 H   0  0  0  0  0  0  0  0  0  0  0  0
    4.9986    9.6859    6.1249 H   0  0  0  0  0  0  0  0  0  0  0  0
   11.3747    7.3481    2.2507 H   0  0  0  0  0  0  0  0  0  0  0  0
   11.7749    8.4964    3.3406 H   0  0  0  0  0  0  0  0  0  0  0  0
   11.7365   10.0928   -0.8871 H   0  0  0  0  0  0  0  0  0  0  0  0
    7.8135   10.7821   -1.1661 H   0  0  0  0  0  0  0  0  0  0  0  0
   15.8791    8.7317    0.0466 H   0  0  0  0  0  0  0  0  0  0  0  0
   12.9687   14.6087   -0.2207 H   0  0  0  0  0  0  0  0  0  0  0  0
   12.2517   13.8752    1.9533 H   0  0  0  0  0  0  0  0  0  0  0  0
   14.3758   13.1891   -1.5715 H   0  0  0  0  0  0  0  0  0  0  0  0
   12.9014   11.7674    2.8343 H   0  0  0  0  0  0  0  0  0  0  0  0
    3.8337    9.7569   -0.1175 H   0  0  0  0  0  0  0  0  0  0  0  0
    6.1107    9.8003   -0.7861 H   0  0  0  0  0  0  0  0  0  0  0  0
    9.3069    9.1427    2.3619 H   0  0  0  0  0  0  0  0  0  0  0  0
   15.3841    8.5219    2.7404 H   0  0  0  0  0  0  0  0  0  0  0  0
   14.1653    9.4415    3.3198 H   0  0  0  0  0  0  0  0  0  0  0  0
    7.3861   10.2177    3.1770 H   0  0  0  0  0  0  0  0  0  0  0  0
   13.6494    7.0519    3.0615 H   0  0  0  0  0  0  0  0  0  0  0  0
   13.4334    7.5483    0.2436 H   0  0  0  0  0  0  0  0  0  0  0  0
  1  8  1  0  0  0  0
  1 21  1  0  0  0  0
  2 22  1  0  0  0  0
  3  4  1  0  0  0  0
  3 23  2  0  0  0  0
  4 24  1  0  0  0  0
  5  9  2  0  0  0  0
  5 10  1  0  0  0  0
  6 11  1  0  0  0  0
  6 25  1  0  0  0  0
  7 23  1  0  0  0  0
  8 22  1  0  0  0  0
  9 21  1  0  0  0  0
 10 26  2  0  0  0  0
 11 27  2  0  0  0  0
 12 13  2  0  0  0  0
 12 14  1  0  0  0  0
 13 15  1  0  0  0  0
 14 25  2  0  0  0  0
 15 30  2  0  0  0  0
 16 17  1  0  0  0  0
 16 24  2  0  0  0  0
 17 28  2  0  0  0  0
 18 21  2  0  0  0  0
 18 26  1  0  0  0  0
 19 22  1  0  0  0  0
 19 27  1  0  0  0  0
 20 28  1  0  0  0  0
 20 29  2  0  0  0  0
 23 29  1  0  0  0  0
 24 29  1  0  0  0  0
 25 30  1  0  0  0  0
 26 28  1  0  0  0  0
 27 30  1  0  0  0  0
  2 31  1  0  0  0  0
  2 32  1  0  0  0  0
  4 33  1  0  0  0  0
  6 34  1  0  0  0  0
  7 35  1  0  0  0  0
  7 36  1  0  0  0  0
  7 37  1  0  0  0  0
  8 38  1  0  0  0  0
  8 39  1  0  0  0  0
  9 40  1  0  0  0  0
 10 41  1  0  0  0  0
 11 42  1  0  0  0  0
 12 43  1  0  0  0  0
 13 44  1  0  0  0  0
 14 45  1  0  0  0  0
 15 46  1  0  0  0  0
 16 47  1  0  0  0  0
 17 48  1  0  0  0  0
 18 49  1  0  0  0  0
 19 50  1  0  0  0  0
 19 51  1  0  0  0  0
 20 52  1  0  0  0  0
 22 53  1  0  0  0  0
  2 54  1  0  0  0  0
M  CHG  1   2   1
M  END
$$$$
2JDV_L20_A_1351
prProtoss 05262315053D 1   1.00000     0.00000     0
Protoss beta proteinsplus
 54 58  0  0  0  0            999 V2000
   11.1580    8.8460    1.6870 O   0  0  0  0  0  0  0  0  0  0  0  0
   13.3660    7.2540    1.7530 N   0  3  0  0  0  0  0  0  0  0  0  0
    2.6600    9.5430    3.9270 N   0  0  0  0  0  0  0  0  0  0  0  0
    2.4940    9.5320    2.5900 N   0  0  0  0  0  0  0  0  0  0  0  0
    9.3890   10.7540   -0.8510 N   0  0  0  0  0  0  0  0  0  0  0  0
   11.4120    8.2470    7.1860 N   0  0  0  0  0  0  0  0  0  0  0  0
    4.6300    9.6460    5.4830 C   0  0  0  0  0  0  0  0  0  0  0  0
   11.0350    7.5980    2.3610 C   0  0  0  0  0  0  0  0  0  0  0  0
   10.3620   10.1750   -0.1680 C   0  0  0  0  0  0  0  0  0  0  0  0
    8.1180   10.6090   -0.4380 C   0  0  0  0  0  0  0  0  0  0  0  0
   12.4130    7.9870    6.2650 C   0  0  0  0  0  0  0  0  0  0  0  0
    8.5450   10.4530    6.3380 C   0  0  0  0  0  0  0  0  0  0  0  0
    8.9440   10.7100    5.0060 C   0  0  0  0  0  0  0  0  0  0  0  0
    9.2970    9.6280    7.1460 C   0  0  0  0  0  0  0  0  0  0  0  0
   10.1130   10.2060    4.4590 C   0  0  0  0  0  0  0  0  0  0  0  0
    3.9820    9.6390    0.5150 C   0  0  0  0  0  0  0  0  0  0  0  0
    5.3300    9.7180    0.2000 C   0  0  0  0  0  0  0  0  0  0  0  0
    8.7980    9.2870    1.4520 C   0  0  0  0  0  0  0  0  0  0  0  0
   12.9710    8.5600    3.8470 C   0  0  0  0  0  0  0  0  0  0  0  0
    6.0380    9.7610    2.5410 C   0  0  0  0  0  0  0  0  0  0  0  0
   10.1120    9.4190    0.9860 C   0  0  0  0  0  0  0  0  0  0  0  0
   12.4580    7.3990    2.9270 C   0  0  2  0  0  0  0  0  0  0  0  0
    3.9820    9.6170    4.1620 C   0  0  0  0  0  0  0  0  0  0  0  0
    3.6740    9.6100    1.9010 C   0  0  0  0  0  0  0  0  0  0  0  0
   10.4700    9.0920    6.6090 C   0  0  0  0  0  0  0  0  0  0  0  0
    7.7610    9.8900    0.7360 C   0  0  0  0  0  0  0  0  0  0  0  0
   12.1550    8.6550    5.0680 C   0  0  0  0  0  0  0  0  0  0  0  0
    6.3620    9.7830    1.1680 C   0  0  0  0  0  0  0  0  0  0  0  0
    4.6930    9.6820    2.9080 C   0  0  0  0  0  0  0  0  0  0  0  0
   10.9140    9.3830    5.2540 C   0  0  0  0  0  0  0  0  0  0  0  0
   14.2735    7.6020    1.9885 H   0  0  0  0  0  0  0  0  0  0  0  0
   13.4341    6.2885    1.5015 H   0  0  0  0  0  0  0  0  0  0  0  0
    1.5998    9.4729    2.1463 H   0  0  0  0  0  0  0  0  0  0  0  0
   11.3728    7.8849    8.1173 H   0  0  0  0  0  0  0  0  0  0  0  0
    5.6216    9.7033    5.3667 H   0  0  0  0  0  0  0  0  0  0  0  0
    4.3079   10.4424    5.9949 H   0  0  0  0  0  0  0  0  0  0  0  0
    4.4009    8.8121    5.9850 H   0  0  0  0  0  0  0  0  0  0  0  0
   10.7902    6.8648    1.7266 H   0  0  0  0  0  0  0  0  0  0  0  0
   10.3558    7.6457    3.0934 H   0  0  0  0  0  0  0  0  0  0  0  0
   11.3049   10.2795   -0.4842 H   0  0  0  0  0  0  0  0  0  0  0  0
    7.3896   11.0261   -0.9816 H   0  0  0  0  0  0  0  0  0  0  0  0
   13.2074    7.4036    6.4340 H   0  0  0  0  0  0  0  0  0  0  0  0
    7.7111   10.8729    6.6962 H   0  0  0  0  0  0  0  0  0  0  0  0
    8.3561   11.2811    4.4331 H   0  0  0  0  0  0  0  0  0  0  0  0
    9.0135    9.4206    8.0823 H   0  0  0  0  0  0  0  0  0  0  0  0
   10.3763   10.4257    3.5196 H   0  0  0  0  0  0  0  0  0  0  0  0
    3.2723    9.6047   -0.1886 H   0  0  0  0  0  0  0  0  0  0  0  0
    5.5884    9.7298   -0.7660 H   0  0  0  0  0  0  0  0  0  0  0  0
    8.6048    8.7687    2.2851 H   0  0  0  0  0  0  0  0  0  0  0  0
   12.9154    9.4242    3.3469 H   0  0  0  0  0  0  0  0  0  0  0  0
   13.9218    8.3822    4.1006 H   0  0  0  0  0  0  0  0  0  0  0  0
    6.7558    9.8011    3.2361 H   0  0  0  0  0  0  0  0  0  0  0  0
   12.4760    6.5470    3.4502 H   0  0  0  0  0  0  0  0  0  0  0  0
   12.9993    7.7743    0.9817 H   0  0  0  0  0  0  0  0  0  0  0  0
  1  8  1  0  0  0  0
  1 21  1  0  0  0  0
  2 22  1  0  0  0  0
  3  4  1  0  0  0  0
  3 23  2  0  0  0  0
  4 24  1  0  0  0  0
  5  9  2  0  0  0  0
  5 10  1  0  0  0  0
  6 11  1  0  0  0  0
  6 25  1  0  0  0  0
  7 23  1  0  0  0  0
  8 22  1  0  0  0  0
  9 21  1  0  0  0  0
 10 26  2  0  0  0  0
 11 27  2  0  0  0  0
 12 13  2  0  0  0  0
 12 14  1  0  0  0  0
 13 15  1  0  0  0  0
 14 25  2  0  0  0  0
 15 30  2  0  0  0  0
 16 17  1  0  0  0  0
 16 24  2  0  0  0  0
 17 28  2  0  0  0  0
 18 21  2  0  0  0  0
 18 26  1  0  0  0  0
 19 22  1  0  0  0  0
 19 27  1  0  0  0  0
 20 28  1  0  0  0  0
 20 29  2  0  0  0  0
 23 29  1  0  0  0  0
 24 29  1  0  0  0  0
 25 30  1  0  0  0  0
 26 28  1  0  0  0  0
 27 30  1  0  0  0  0
  2 31  1  0  0  0  0
  2 32  1  0  0  0  0
  4 33  1  0  0  0  0
  6 34  1  0  0  0  0
  7 35  1  0  0  0  0
  7 36  1  0  0  0  0
  7 37  1  0  0  0  0
  8 38  1  0  0  0  0
  8 39  1  0  0  0  0
  9 40  1  0  0  0  0
 10 41  1  0  0  0  0
 11 42  1  0  0  0  0
 12 43  1  0  0  0  0
 13 44  1  0  0  0  0
 14 45  1  0  0  0  0
 15 46  1  0  0  0  0
 16 47  1  0  0  0  0
 17 48  1  0  0  0  0
 18 49  1  0  0  0  0
 19 50  1  0  0  0  0
 19 51  1  0  0  0  0
 20 52  1  0  0  0  0
 22 53  1  0  0  0  0
  2 54  1  0  0  0  0
M  CHG  1   2   1
M  END
$$$$
2UZU_L20_E_1351
prProtoss 05262315343D 1   1.00000     0.00000     0
Protoss beta proteinsplus
 54 58  0  0  0  0            999 V2000
   11.9000    9.7590    2.9480 O   0  0  0  0  0  0  0  0  0  0  0  0
   15.0300   10.4440    1.1710 N   0  3  0  0  0  0  0  0  0  0  0  0
    3.3450   10.0070    4.1530 N   0  0  0  0  0  0  0  0  0  0  0  0
    3.1400    9.9260    2.8250 N   0  0  0  0  0  0  0  0  0  0  0  0
   10.3780    9.6360   -0.5320 N   0  0  0  0  0  0  0  0  0  0  0  0
   13.2580   14.5320   -0.9600 N   0  0  0  0  0  0  0  0  0  0  0  0
    5.2220   10.1080    5.8130 C   0  0  0  0  0  0  0  0  0  0  0  0
   13.3650    9.7060    2.8200 C   0  0  0  0  0  0  0  0  0  0  0  0
   11.3250    9.6510    0.4630 C   0  0  0  0  0  0  0  0  0  0  0  0
    9.0510    9.6900   -0.2270 C   0  0  0  0  0  0  0  0  0  0  0  0
   13.2080   14.1710    0.3420 C   0  0  0  0  0  0  0  0  0  0  0  0
   13.8150   11.9970   -3.7460 C   0  0  0  0  0  0  0  0  0  0  0  0
   13.9140   10.8670   -2.9170 C   0  0  0  0  0  0  0  0  0  0  0  0
   13.5930   13.2810   -3.1470 C   0  0  0  0  0  0  0  0  0  0  0  0
   13.7890   11.0210   -1.4910 C   0  0  0  0  0  0  0  0  0  0  0  0
    4.6810    9.7990    0.7850 C   0  0  0  0  0  0  0  0  0  0  0  0
    6.0700    9.7720    0.4430 C   0  0  0  0  0  0  0  0  0  0  0  0
    9.5930    9.7880    2.1130 C   0  0  0  0  0  0  0  0  0  0  0  0
   13.3590   12.2040    1.8940 C   0  0  0  0  0  0  0  0  0  0  0  0
    6.6660    9.9030    2.8040 C   0  0  0  0  0  0  0  0  0  0  0  0
   10.9890    9.7290    1.8260 C   0  0  0  0  0  0  0  0  0  0  0  0
   14.2000   10.9520    2.2780 C   0  0  2  0  0  0  0  0  0  0  0  0
    4.6390   10.0200    4.4290 C   0  0  0  0  0  0  0  0  0  0  0  0
    4.3090    9.8780    2.1200 C   0  0  0  0  0  0  0  0  0  0  0  0
   13.4730   13.4220   -1.7560 C   0  0  0  0  0  0  0  0  0  0  0  0
    8.5810    9.7680    1.1040 C   0  0  0  0  0  0  0  0  0  0  0  0
   13.3900   12.8060    0.4880 C   0  0  0  0  0  0  0  0  0  0  0  0
    7.1040    9.8180    1.4450 C   0  0  0  0  0  0  0  0  0  0  0  0
    5.3220    9.9350    3.1550 C   0  0  0  0  0  0  0  0  0  0  0  0
   13.5690   12.2800   -0.8880 C   0  0  0  0  0  0  0  0  0  0  0  0
   15.1829   11.1752    0.5062 H   0  0  0  0  0  0  0  0  0  0  0  0
   15.9092   10.1308    1.5301 H   0  0  0  0  0  0  0  0  0  0  0  0
    2.2340    9.9035    2.4023 H   0  0  0  0  0  0  0  0  0  0  0  0
   13.1544   15.4672   -1.2986 H   0  0  0  0  0  0  0  0  0  0  0  0
    6.2203   10.1004    5.7553 H   0  0  0  0  0  0  0  0  0  0  0  0
    4.9198   10.9558    6.2487 H   0  0  0  0  0  0  0  0  0  0  0  0
    4.9135    9.3263    6.3550 H   0  0  0  0  0  0  0  0  0  0  0  0
   13.5671    8.9427    2.2064 H   0  0  0  0  0  0  0  0  0  0  0  0
   13.7207    9.5035    3.7324 H   0  0  0  0  0  0  0  0  0  0  0  0
   12.2908    9.6046    0.2080 H   0  0  0  0  0  0  0  0  0  0  0  0
    8.3847    9.6739   -0.9725 H   0  0  0  0  0  0  0  0  0  0  0  0
   13.0592   14.8062    1.0999 H   0  0  0  0  0  0  0  0  0  0  0  0
   13.8981   11.9073   -4.7385 H   0  0  0  0  0  0  0  0  0  0  0  0
   14.0701    9.9627   -3.3144 H   0  0  0  0  0  0  0  0  0  0  0  0
   13.5225   14.0899   -3.7307 H   0  0  0  0  0  0  0  0  0  0  0  0
   13.8601   10.2112   -0.9086 H   0  0  0  0  0  0  0  0  0  0  0  0
    3.9843    9.7613    0.0686 H   0  0  0  0  0  0  0  0  0  0  0  0
    6.3310    9.7196   -0.5209 H   0  0  0  0  0  0  0  0  0  0  0  0
    9.3077    9.8464    3.0696 H   0  0  0  0  0  0  0  0  0  0  0  0
   13.6438   12.9332    2.5162 H   0  0  0  0  0  0  0  0  0  0  0  0
   12.4048   11.9655    2.0746 H   0  0  0  0  0  0  0  0  0  0  0  0
    7.3534    9.9408    3.5293 H   0  0  0  0  0  0  0  0  0  0  0  0
   14.8230   11.2292    3.0095 H   0  0  0  0  0  0  0  0  0  0  0  0
   14.5611    9.6813    0.7256 H   0  0  0  0  0  0  0  0  0  0  0  0
  1  8  1  0  0  0  0
  1 21  1  0  0  0  0
  2 22  1  0  0  0  0
  3  4  1  0  0  0  0
  3 23  2  0  0  0  0
  4 24  1  0  0  0  0
  5  9  2  0  0  0  0
  5 10  1  0  0  0  0
  6 11  1  0  0  0  0
  6 25  1  0  0  0  0
  7 23  1  0  0  0  0
  8 22  1  0  0  0  0
  9 21  1  0  0  0  0
 10 26  2  0  0  0  0
 11 27  2  0  0  0  0
 12 13  2  0  0  0  0
 12 14  1  0  0  0  0
 13 15  1  0  0  0  0
 14 25  2  0  0  0  0
 15 30  2  0  0  0  0
 16 17  1  0  0  0  0
 16 24  2  0  0  0  0
 17 28  2  0  0  0  0
 18 21  2  0  0  0  0
 18 26  1  0  0  0  0
 19 22  1  0  0  0  0
 19 27  1  0  0  0  0
 20 28  1  0  0  0  0
 20 29  2  0  0  0  0
 23 29  1  0  0  0  0
 24 29  1  0  0  0  0
 25 30  1  0  0  0  0
 26 28  1  0  0  0  0
 27 30  1  0  0  0  0
  2 31  1  0  0  0  0
  2 32  1  0  0  0  0
  4 33  1  0  0  0  0
  6 34  1  0  0  0  0
  7 35  1  0  0  0  0
  7 36  1  0  0  0  0
  7 37  1  0  0  0  0
  8 38  1  0  0  0  0
  8 39  1  0  0  0  0
  9 40  1  0  0  0  0
 10 41  1  0  0  0  0
 11 42  1  0  0  0  0
 12 43  1  0  0  0  0
 13 44  1  0  0  0  0
 14 45  1  0  0  0  0
 15 46  1  0  0  0  0
 16 47  1  0  0  0  0
 17 48  1  0  0  0  0
 18 49  1  0  0  0  0
 19 50  1  0  0  0  0
 19 51  1  0  0  0  0
 20 52  1  0  0  0  0
 22 53  1  0  0  0  0
  2 54  1  0  0  0  0
M  CHG  1   2   1
M  END
$$$$
4UJA_4L7_A_1351
prProtoss 08192305103D 1   1.00000     0.00000     0
Protoss beta proteinsplus
 39 42  0  0  0  0            999 V2000
  -22.1210   14.3580   -0.7520 Br  0  0  0  0  0  0  0  0  0  0  0  0
  -23.6760   13.0830    1.6380 S   0  0  0  0  0  0  0  0  0  0  0  0
  -32.9220   10.1390    4.6570 O   0  0  0  0  0  0  0  0  0  0  0  0
  -25.3920   11.6590    3.6400 O   0  0  0  0  0  0  0  0  0  0  0  0
  -25.0510    7.2520    3.1220 N   0  3  0  0  0  0  0  0  0  0  0  0
  -32.7980    9.8230    2.4120 N   0  0  0  0  0  0  0  0  0  0  0  0
  -30.7690    9.3920    1.2760 N   0  0  0  0  0  0  0  0  0  0  0  0
  -32.0730    9.5410    1.3020 C   0  0  0  0  0  0  0  0  0  0  0  0
  -24.4950    8.5130    2.6660 C   0  0  0  0  0  0  0  0  0  0  0  0
  -26.3590    7.5680    3.7160 C   0  0  0  0  0  0  0  0  0  0  0  0
  -23.1970   11.6900   -0.4750 C   0  0  0  0  0  0  0  0  0  0  0  0
  -23.9650   10.8590    0.3780 C   0  0  0  0  0  0  0  0  0  0  0  0
  -28.6910    9.8580    4.8730 C   0  0  0  0  0  0  0  0  0  0  0  0
  -30.0590   10.0590    4.8640 C   0  0  0  0  0  0  0  0  0  0  0  0
  -28.7140    9.3890    2.5200 C   0  0  0  0  0  0  0  0  0  0  0  0
  -22.9820   12.9050    0.0660 C   0  0  0  0  0  0  0  0  0  0  0  0
  -24.3210   11.4670    1.5640 C   0  0  0  0  0  0  0  0  0  0  0  0
  -32.2390    9.9970    3.6470 C   0  0  0  0  0  0  0  0  0  0  0  0
  -25.1360   10.9650    2.6720 C   0  0  0  0  0  0  0  0  0  0  0  0
  -30.0990    9.5710    2.4960 C   0  0  0  0  0  0  0  0  0  0  0  0
  -28.0070    9.5030    3.7150 C   0  0  0  0  0  0  0  0  0  0  0  0
  -30.7760    9.8890    3.6790 C   0  0  0  0  0  0  0  0  0  0  0  0
  -25.6440    9.5380    2.5840 C   0  0  2  0  0  0  0  0  0  0  0  0
  -26.5480    9.0970    3.7790 C   0  0  2  0  0  0  0  0  0  0  0  0
  -24.4514    6.8364    3.8060 H   0  0  0  0  0  0  0  0  0  0  0  0
  -33.7904    9.9079    2.3230 H   0  0  0  0  0  0  0  0  0  0  0  0
  -32.5680    9.4389    0.4391 H   0  0  0  0  0  0  0  0  0  0  0  0
  -24.0806    8.3947    1.7636 H   0  0  0  0  0  0  0  0  0  0  0  0
  -23.8014    8.8316    3.3121 H   0  0  0  0  0  0  0  0  0  0  0  0
  -26.4040    7.1895    4.6405 H   0  0  0  0  0  0  0  0  0  0  0  0
  -27.0837    7.1667    3.1559 H   0  0  0  0  0  0  0  0  0  0  0  0
  -22.8554   11.4082   -1.3716 H   0  0  0  0  0  0  0  0  0  0  0  0
  -24.2239    9.9222    0.1429 H   0  0  0  0  0  0  0  0  0  0  0  0
  -28.1841    9.9699    5.7277 H   0  0  0  0  0  0  0  0  0  0  0  0
  -30.5327   10.3252    5.7035 H   0  0  0  0  0  0  0  0  0  0  0  0
  -28.2267    9.1754    1.6733 H   0  0  0  0  0  0  0  0  0  0  0  0
  -26.1416    9.4134    1.7256 H   0  0  0  0  0  0  0  0  0  0  0  0
  -26.1517    9.4394    4.6309 H   0  0  0  0  0  0  0  0  0  0  0  0
  -25.1632    6.6243    2.3516 H   0  0  0  0  0  0  0  0  0  0  0  0
  1 16  1  0  0  0  0
  2 16  1  0  0  0  0
  2 17  1  0  0  0  0
  3 18  2  0  0  0  0
  4 19  2  0  0  0  0
  5  9  1  0  0  0  0
  5 10  1  0  0  0  0
  6  8  1  0  0  0  0
  6 18  1  0  0  0  0
  7  8  2  0  0  0  0
  7 20  1  0  0  0  0
  9 23  1  0  0  0  0
 10 24  1  0  0  0  0
 11 12  1  0  0  0  0
 11 16  2  0  0  0  0
 12 17  2  0  0  0  0
 13 14  1  0  0  0  0
 13 21  2  0  0  0  0
 14 22  2  0  0  0  0
 15 20  2  0  0  0  0
 15 21  1  0  0  0  0
 17 19  1  0  0  0  0
 18 22  1  0  0  0  0
 19 23  1  0  0  0  0
 20 22  1  0  0  0  0
 21 24  1  0  0  0  0
 23 24  1  0  0  0  0
  5 25  1  0  0  0  0
  6 26  1  0  0  0  0
  8 27  1  0  0  0  0
  9 28  1  0  0  0  0
  9 29  1  0  0  0  0
 10 30  1  0  0  0  0
 10 31  1  0  0  0  0
 11 32  1  0  0  0  0
 12 33  1  0  0  0  0
 13 34  1  0  0  0  0
 14 35  1  0  0  0  0
 15 36  1  0  0  0  0
 23 37  1  0  0  0  0
 24 38  1  0  0  0  0
  5 39  1  0  0  0  0
M  CHG  1   5   1
M  END
$$$$
4UJA_BR_A_1352
prProtoss 08192305103D 1   1.00000     0.00000     0
Protoss beta proteinsplus
  1  0  0  0  0  0            999 V2000
  -20.1720   13.1230   -2.0110 Br  0  5  0  0  0  0  0  0  0  0  0  0
M  CHG  1   1  -1
M  END
$$$$
4UJA_MPD_A_1353
prProtoss 08192305103D 1   1.00000     0.00000     0
Protoss beta proteinsplus
 22 21  0  0  0  0            999 V2000
  -26.2300    5.1580   16.6430 O   0  0  0  0  0  0  0  0  0  0  0  0
  -28.1020    3.1570   16.4110 O   0  0  0  0  0  0  0  0  0  0  0  0
  -26.8900    7.1940   15.5510 C   0  0  0  0  0  0  0  0  0  0  0  0
  -30.3330    3.8640   16.9430 C   0  0  0  0  0  0  0  0  0  0  0  0
  -28.3870    4.2080   18.5260 C   0  0  0  0  0  0  0  0  0  0  0  0
  -28.5980    5.5440   16.3830 C   0  0  0  0  0  0  0  0  0  0  0  0
  -27.2190    6.1590   16.6190 C   0  0  1  0  0  0  0  0  0  0  0  0
  -28.8460    4.2030   17.0760 C   0  0  0  0  0  0  0  0  0  0  0  0
  -26.6488    4.2709   16.4490 H   0  0  0  0  0  0  0  0  0  0  0  0
  -28.6490    2.7836   15.6618 H   0  0  0  0  0  0  0  0  0  0  0  0
  -27.5979    7.9002   15.5419 H   0  0  0  0  0  0  0  0  0  0  0  0
  -26.0045    7.6122   15.7537 H   0  0  0  0  0  0  0  0  0  0  0  0
  -26.8515    6.7491   14.6563 H   0  0  0  0  0  0  0  0  0  0  0  0
  -30.8777    4.5708   17.3944 H   0  0  0  0  0  0  0  0  0  0  0  0
  -30.5797    3.8205   15.9749 H   0  0  0  0  0  0  0  0  0  0  0  0
  -30.5129    2.9792   17.3729 H   0  0  0  0  0  0  0  0  0  0  0  0
  -28.8775    4.9200   19.0285 H   0  0  0  0  0  0  0  0  0  0  0  0
  -28.5773    3.3173   18.9389 H   0  0  0  0  0  0  0  0  0  0  0  0
  -27.4044    4.3900   18.5640 H   0  0  0  0  0  0  0  0  0  0  0  0
  -28.7108    5.4081   15.3987 H   0  0  0  0  0  0  0  0  0  0  0  0
  -29.2851    6.1924   16.7109 H   0  0  0  0  0  0  0  0  0  0  0  0
  -27.2261    6.6159   17.5085 H   0  0  0  0  0  0  0  0  0  0  0  0
  1  7  1  0  0  0  0
  2  8  1  0  0  0  0
  3  7  1  0  0  0  0
  4  8  1  0  0  0  0
  5  8  1  0  0  0  0
  6  7  1  0  0  0  0
  6  8  1  0  0  0  0
  1  9  1  0  0  0  0
  2 10  1  0  0  0  0
  3 11  1  0  0  0  0
  3 12  1  0  0  0  0
  3 13  1  0  0  0  0
  4 14  1  0  0  0  0
  4 15  1  0  0  0  0
  4 16  1  0  0  0  0
  5 17  1  0  0  0  0
  5 18  1  0  0  0  0
  5 19  1  0  0  0  0
  6 20  1  0  0  0  0
  6 21  1  0  0  0  0
  7 22  1  0  0  0  0
M  END
$$$$
4Z83_4L7_E_401
prProtoss 08192303223D 1   1.00000     0.00000     0
Protoss beta proteinsplus
 39 42  0  0  0  0            999 V2000
  -17.6600  -14.4300    3.0810 Br  0  0  0  0  0  0  0  0  0  0  0  0
  -15.8770  -13.4150    5.4410 S   0  0  0  0  0  0  0  0  0  0  0  0
   -6.2640  -11.0620    8.5610 O   0  0  0  0  0  0  0  0  0  0  0  0
  -13.9750  -12.1680    7.4320 O   0  0  0  0  0  0  0  0  0  0  0  0
  -13.9330   -7.7840    6.8710 N   0  3  0  0  0  0  0  0  0  0  0  0
   -6.2990  -10.7780    6.2880 N   0  0  0  0  0  0  0  0  0  0  0  0
   -8.3200  -10.3810    5.0860 N   0  0  0  0  0  0  0  0  0  0  0  0
   -6.9990  -10.5670    5.1480 C   0  0  0  0  0  0  0  0  0  0  0  0
  -14.5410   -8.9990    6.3040 C   0  0  0  0  0  0  0  0  0  0  0  0
  -12.5910   -8.1410    7.2840 C   0  0  0  0  0  0  0  0  0  0  0  0
  -16.0080  -12.0710    3.2500 C   0  0  0  0  0  0  0  0  0  0  0  0
  -15.1130  -11.3740    4.0820 C   0  0  0  0  0  0  0  0  0  0  0  0
  -10.5100  -10.5970    8.6370 C   0  0  0  0  0  0  0  0  0  0  0  0
   -9.1420  -10.8000    8.6840 C   0  0  0  0  0  0  0  0  0  0  0  0
  -10.3980  -10.2140    6.2720 C   0  0  0  0  0  0  0  0  0  0  0  0
  -16.4860  -13.1810    3.8380 C   0  0  0  0  0  0  0  0  0  0  0  0
  -14.9260  -11.9540    5.3040 C   0  0  0  0  0  0  0  0  0  0  0  0
   -6.9160  -10.8610    7.5380 C   0  0  0  0  0  0  0  0  0  0  0  0
  -14.1230  -11.4860    6.4350 C   0  0  0  0  0  0  0  0  0  0  0  0
   -9.0170  -10.4310    6.3010 C   0  0  0  0  0  0  0  0  0  0  0  0
  -11.1430  -10.2420    7.4510 C   0  0  0  0  0  0  0  0  0  0  0  0
   -8.3810  -10.6910    7.5230 C   0  0  0  0  0  0  0  0  0  0  0  0
  -13.4780  -10.1140    6.3050 C   0  0  2  0  0  0  0  0  0  0  0  0
  -12.5510   -9.6830    7.4800 C   0  0  2  0  0  0  0  0  0  0  0  0
  -14.4631   -7.4690    7.6582 H   0  0  0  0  0  0  0  0  0  0  0  0
   -5.3055  -10.8779    6.2327 H   0  0  0  0  0  0  0  0  0  0  0  0
   -6.4885  -10.5491    4.2883 H   0  0  0  0  0  0  0  0  0  0  0  0
  -14.8439   -8.8208    5.3678 H   0  0  0  0  0  0  0  0  0  0  0  0
  -15.3240   -9.2771    6.8604 H   0  0  0  0  0  0  0  0  0  0  0  0
  -12.3659   -7.6825    8.1437 H   0  0  0  0  0  0  0  0  0  0  0  0
  -11.9346   -7.8701    6.5799 H   0  0  0  0  0  0  0  0  0  0  0  0
  -16.2593  -11.7750    2.3284 H   0  0  0  0  0  0  0  0  0  0  0  0
  -14.6550  -10.5298    3.8036 H   0  0  0  0  0  0  0  0  0  0  0  0
  -11.0524  -10.7075    9.4699 H   0  0  0  0  0  0  0  0  0  0  0  0
   -8.6997  -11.0251    9.5522 H   0  0  0  0  0  0  0  0  0  0  0  0
  -10.8547  -10.0375    5.4001 H   0  0  0  0  0  0  0  0  0  0  0  0
  -12.9617  -10.0748    5.4495 H   0  0  0  0  0  0  0  0  0  0  0  0
  -12.9847   -9.9191    8.3496 H   0  0  0  0  0  0  0  0  0  0  0  0
  -13.8999   -7.0613    6.1807 H   0  0  0  0  0  0  0  0  0  0  0  0
  1 16  1  0  0  0  0
  2 16  1  0  0  0  0
  2 17  1  0  0  0  0
  3 18  2  0  0  0  0
  4 19  2  0  0  0  0
  5  9  1  0  0  0  0
  5 10  1  0  0  0  0
  6  8  1  0  0  0  0
  6 18  1  0  0  0  0
  7  8  2  0  0  0  0
  7 20  1  0  0  0  0
  9 23  1  0  0  0  0
 10 24  1  0  0  0  0
 11 12  1  0  0  0  0
 11 16  2  0  0  0  0
 12 17  2  0  0  0  0
 13 14  1  0  0  0  0
 13 21  2  0  0  0  0
 14 22  2  0  0  0  0
 15 20  2  0  0  0  0
 15 21  1  0  0  0  0
 17 19  1  0  0  0  0
 18 22  1  0  0  0  0
 19 23  1  0  0  0  0
 20 22  1  0  0  0  0
 21 24  1  0  0  0  0
 23 24  1  0  0  0  0
  5 25  1  0  0  0  0
  6 26  1  0  0  0  0
  8 27  1  0  0  0  0
  9 28  1  0  0  0  0
  9 29  1  0  0  0  0
 10 30  1  0  0  0  0
 10 31  1  0  0  0  0
 11 32  1  0  0  0  0
 12 33  1  0  0  0  0
 13 34  1  0  0  0  0
 14 35  1  0  0  0  0
 15 36  1  0  0  0  0
 23 37  1  0  0  0  0
 24 38  1  0  0  0  0
  5 39  1  0  0  0  0
M  CHG  1   5   1
M  END
$$$$
4Z83_4L7_E_402
prProtoss 08192303223D 1   1.00000     0.00000     0
Protoss beta proteinsplus
 14 14  0  0  0  0            999 V2000
   -0.1110    5.7620   -5.1710 Br  0  0  0  0  0  0  0  0  0  0  0  0
    2.6190    6.5540   -6.4280 S   0  0  0  0  0  0  0  0  0  0  0  0
    5.3670    7.1690   -7.3770 O   0  0  0  0  0  0  0  0  0  0  0  0
    6.6750    6.3930   -5.5520 C   0  0  0  0  0  0  0  0  0  0  0  0
    2.5310    5.6750   -4.0240 C   0  0  0  0  0  0  0  0  0  0  0  0
    3.8920    5.8810   -4.3140 C   0  0  0  0  0  0  0  0  0  0  0  0
    1.7450    5.9720   -5.0700 C   0  0  0  0  0  0  0  0  0  0  0  0
    4.1180    6.3530   -5.5790 C   0  0  0  0  0  0  0  0  0  0  0  0
    5.3670    6.6820   -6.2640 C   0  0  0  0  0  0  0  0  0  0  0  0
    6.4851    5.9967   -4.6537 H   0  0  0  0  0  0  0  0  0  0  0  0
    7.2140    5.7480   -6.0937 H   0  0  0  0  0  0  0  0  0  0  0  0
    7.1882    7.2438   -5.4392 H   0  0  0  0  0  0  0  0  0  0  0  0
    2.1900    5.3464   -3.1432 H   0  0  0  0  0  0  0  0  0  0  0  0
    4.6249    5.6998   -3.6583 H   0  0  0  0  0  0  0  0  0  0  0  0
  1  7  1  0  0  0  0
  2  7  1  0  0  0  0
  2  8  1  0  0  0  0
  3  9  2  0  0  0  0
  4  9  1  0  0  0  0
  5  6  1  0  0  0  0
  5  7  2  0  0  0  0
  6  8  2  0  0  0  0
  8  9  1  0  0  0  0
  4 10  1  0  0  0  0
  4 11  1  0  0  0  0
  4 12  1  0  0  0  0
  5 13  1  0  0  0  0
  6 14  1  0  0  0  0
M  END
$$$$
7BB0_T7W_A_401
prProtoss 08172315303D 1   1.00000     0.00000     0
Protoss beta proteinsplus
 52 55  0  0  0  0            999 V2000
   11.8040  -20.4900  -35.4880 O   0  0  0  0  0  0  0  0  0  0  0  0
   11.1360  -18.6450  -34.4470 O   0  5  0  0  0  0  0  0  0  0  0  0
   13.2840  -23.7120  -32.4290 O   0  0  0  0  0  0  0  0  0  0  0  0
   14.4890  -22.6070  -28.4070 O   0  0  0  0  0  0  0  0  0  0  0  0
   15.2930  -22.7530  -27.2510 N   0  0  0  0  0  0  0  0  0  0  0  0
   17.4130  -25.8930  -23.8620 N   0  0  0  0  0  0  0  0  0  0  0  0
   10.0690  -21.7700  -27.9980 N   0  3  0  0  0  0  0  0  0  0  0  0
    9.9230  -23.9530  -27.6260 N   0  0  0  0  0  0  0  0  0  0  0  0
   14.4250  -24.7420  -27.8630 N   0  0  0  0  0  0  0  0  0  0  0  0
   12.6580  -22.8060  -30.4860 N   0  0  0  0  0  0  0  0  0  0  0  0
   14.3520  -21.6740  -34.3240 C   0  0  0  0  0  0  0  0  0  0  0  0
   14.8610  -20.4470  -32.2050 C   0  0  0  0  0  0  0  0  0  0  0  0
    9.4300  -22.7530  -27.3410 C   0  0  0  0  0  0  0  0  0  0  0  0
   16.7100  -26.6090  -24.7450 C   0  0  0  0  0  0  0  0  0  0  0  0
   17.3830  -24.5640  -23.9960 C   0  0  0  0  0  0  0  0  0  0  0  0
   12.0400  -21.7390  -29.7000 C   0  0  0  0  0  0  0  0  0  0  0  0
   15.9800  -26.0490  -25.7730 C   0  0  0  0  0  0  0  0  0  0  0  0
   16.6890  -23.9130  -24.9960 C   0  0  0  0  0  0  0  0  0  0  0  0
   11.7680  -24.7250  -29.2300 C   0  0  0  0  0  0  0  0  0  0  0  0
   13.2620  -19.4570  -33.8760 C   0  0  0  0  0  0  0  0  0  0  0  0
   12.5710  -21.4390  -32.5370 C   0  0  0  0  0  0  0  0  0  0  0  0
   12.0010  -19.5920  -34.6900 C   0  0  0  0  0  0  0  0  0  0  0  0
   12.8770  -22.7360  -31.8190 C   0  0  0  0  0  0  0  0  0  0  0  0
   14.0110  -23.8340  -28.6790 C   0  0  0  0  0  0  0  0  0  0  0  0
   15.2140  -24.0250  -26.9910 C   0  0  0  0  0  0  0  0  0  0  0  0
   11.0430  -22.3600  -28.7660 C   0  0  0  0  0  0  0  0  0  0  0  0
   10.9380  -23.6920  -28.5350 C   0  0  0  0  0  0  0  0  0  0  0  0
   13.0260  -24.0490  -29.7930 C   0  0  2  0  0  0  0  0  0  0  0  0
   15.9730  -24.6680  -25.9100 C   0  0  0  0  0  0  0  0  0  0  0  0
   13.7770  -20.7670  -33.2350 C   0  0  0  0  0  0  0  0  0  0  0  0
    9.8720  -20.7914  -27.9387 H   0  0  0  0  0  0  0  0  0  0  0  0
   13.6405  -21.8810  -34.9955 H   0  0  0  0  0  0  0  0  0  0  0  0
   15.1130  -21.2096  -34.7771 H   0  0  0  0  0  0  0  0  0  0  0  0
   14.6785  -22.5244  -33.9115 H   0  0  0  0  0  0  0  0  0  0  0  0
   14.4814  -19.8540  -31.4949 H   0  0  0  0  0  0  0  0  0  0  0  0
   15.1880  -21.2962  -31.7905 H   0  0  0  0  0  0  0  0  0  0  0  0
   15.6224  -19.9815  -32.6561 H   0  0  0  0  0  0  0  0  0  0  0  0
    8.6701  -22.5986  -26.7096 H   0  0  0  0  0  0  0  0  0  0  0  0
   16.7134  -27.6050  -24.6556 H   0  0  0  0  0  0  0  0  0  0  0  0
   17.8910  -24.0107  -23.3358 H   0  0  0  0  0  0  0  0  0  0  0  0
   11.5774  -21.0947  -30.3090 H   0  0  0  0  0  0  0  0  0  0  0  0
   12.7408  -21.2565  -29.1746 H   0  0  0  0  0  0  0  0  0  0  0  0
   15.4660  -26.6268  -26.4070 H   0  0  0  0  0  0  0  0  0  0  0  0
   16.7030  -22.9151  -25.0593 H   0  0  0  0  0  0  0  0  0  0  0  0
   11.2422  -25.1324  -29.9767 H   0  0  0  0  0  0  0  0  0  0  0  0
   12.0314  -25.4379  -28.5801 H   0  0  0  0  0  0  0  0  0  0  0  0
   13.0871  -18.8014  -33.1415 H   0  0  0  0  0  0  0  0  0  0  0  0
   13.9802  -19.1028  -34.4750 H   0  0  0  0  0  0  0  0  0  0  0  0
   12.2040  -20.7943  -31.8665 H   0  0  0  0  0  0  0  0  0  0  0  0
   11.8776  -21.6274  -33.2325 H   0  0  0  0  0  0  0  0  0  0  0  0
   13.4403  -24.6675  -30.4607 H   0  0  0  0  0  0  0  0  0  0  0  0
    9.6302  -24.8397  -27.2681 H   0  0  0  0  0  0  0  0  0  0  0  0
  1 22  2  0  0  0  0
  2 22  1  0  0  0  0
  3 23  2  0  0  0  0
  4  5  1  0  0  0  0
  4 24  1  0  0  0  0
  5 25  2  0  0  0  0
  6 14  2  0  0  0  0
  6 15  1  0  0  0  0
  7 13  2  0  0  0  0
  7 26  1  0  0  0  0
  8 13  1  0  0  0  0
  8 27  1  0  0  0  0
  9 24  2  0  0  0  0
  9 25  1  0  0  0  0
 10 16  1  0  0  0  0
 10 23  1  0  0  0  0
 10 28  1  0  0  0  0
 11 30  1  0  0  0  0
 12 30  1  0  0  0  0
 14 17  1  0  0  0  0
 15 18  2  0  0  0  0
 16 26  1  0  0  0  0
 17 29  2  0  0  0  0
 18 29  1  0  0  0  0
 19 27  1  0  0  0  0
 19 28  1  0  0  0  0
 20 22  1  0  0  0  0
 20 30  1  0  0  0  0
 21 23  1  0  0  0  0
 21 30  1  0  0  0  0
 24 28  1  0  0  0  0
 25 29  1  0  0  0  0
 26 27  2  0  0  0  0
 28 51  1  0  0  0  0
  7 31  1  0  0  0  0
 11 32  1  0  0  0  0
 11 33  1  0  0  0  0
 11 34  1  0  0  0  0
 12 35  1  0  0  0  0
 12 36  1  0  0  0  0
 12 37  1  0  0  0  0
 13 38  1  0  0  0  0
 14 39  1  0  0  0  0
 15 40  1  0  0  0  0
 16 41  1  0  0  0  0
 16 42  1  0  0  0  0
 17 43  1  0  0  0  0
 18 44  1  0  0  0  0
 19 45  1  0  0  0  0
 19 46  1  0  0  0  0
 20 47  1  0  0  0  0
 20 48  1  0  0  0  0
 21 49  1  0  0  0  0
 21 50  1  0  0  0  0
  8 52  1  0  0  0  0
M  CHG  2   2  -1   7   1
M  END
$$$$
2JDT_I5S_A_1351
prProtoss 05262315233D 1   1.00000     0.00000     0
Protoss beta proteinsplus
 51 53  0  0  0  0            999 V2000
   13.2310   14.5970   -0.2260 Cl  0  0  0  0  0  0  0  0  0  0  0  0
    8.8330   10.5260    3.6980 S   0  0  0  0  0  0  0  0  0  0  0  0
    8.6970   11.3800    4.8170 O   0  0  0  0  0  0  0  0  0  0  0  0
    9.8540   10.7370    2.7460 O   0  0  0  0  0  0  0  0  0  0  0  0
   13.9830    9.0340    2.7510 O   0  0  0  0  0  0  0  0  0  0  0  0
    9.0510    9.0620    4.3610 N   0  0  0  0  0  0  0  0  0  0  0  0
   11.6830    7.3230    2.8470 N   0  3  0  0  0  0  0  0  0  0  0  0
    3.6290   10.1700    4.8120 N   0  0  0  0  0  0  0  0  0  0  0  0
   14.2990    7.6970    3.1980 C   0  0  0  0  0  0  0  0  0  0  0  0
   14.8320   10.1160    3.3140 C   0  0  0  0  0  0  0  0  0  0  0  0
   13.0100    6.7910    3.3550 C   0  0  0  0  0  0  0  0  0  0  0  0
    9.5550    8.0250    3.5140 C   0  0  0  0  0  0  0  0  0  0  0  0
   11.0070    7.9290    3.8850 C   0  0  0  0  0  0  0  0  0  0  0  0
    4.7420   10.3040    5.5250 C   0  0  0  0  0  0  0  0  0  0  0  0
    6.1460   10.1500    0.7510 C   0  0  0  0  0  0  0  0  0  0  0  0
    3.6650   10.0830    3.4860 C   0  0  0  0  0  0  0  0  0  0  0  0
    7.3180   10.2840    1.4770 C   0  0  0  0  0  0  0  0  0  0  0  0
    5.9800   10.3920    4.9460 C   0  0  0  0  0  0  0  0  0  0  0  0
   13.0560   13.1470    1.9910 C   0  0  0  0  0  0  0  0  0  0  0  0
   14.7010   12.4640    0.3530 C   0  0  0  0  0  0  0  0  0  0  0  0
    4.9440   10.0720    1.3880 C   0  0  0  0  0  0  0  0  0  0  0  0
   13.4400   12.1090    2.8110 C   0  0  0  0  0  0  0  0  0  0  0  0
   15.0880   11.4220    1.1800 C   0  0  0  0  0  0  0  0  0  0  0  0
   13.6970   13.3090    0.7800 C   0  0  0  0  0  0  0  0  0  0  0  0
    7.3160   10.3780    2.8450 C   0  0  0  0  0  0  0  0  0  0  0  0
   14.4570   11.2710    2.4130 C   0  0  0  0  0  0  0  0  0  0  0  0
    4.8970   10.1480    2.7960 C   0  0  0  0  0  0  0  0  0  0  0  0
    6.0960   10.3200    3.5370 C   0  0  0  0  0  0  0  0  0  0  0  0
    8.1663    8.7577    4.7140 H   0  0  0  0  0  0  0  0  0  0  0  0
   11.1355    6.5671    2.4881 H   0  0  0  0  0  0  0  0  0  0  0  0
   14.7601    7.7553    4.0834 H   0  0  0  0  0  0  0  0  0  0  0  0
   14.9108    7.2718    2.5309 H   0  0  0  0  0  0  0  0  0  0  0  0
   15.8046    9.8949    3.2428 H   0  0  0  0  0  0  0  0  0  0  0  0
   14.6020   10.3047    4.2687 H   0  0  0  0  0  0  0  0  0  0  0  0
   13.1900    5.9354    2.8696 H   0  0  0  0  0  0  0  0  0  0  0  0
   12.8984    6.6035    4.3309 H   0  0  0  0  0  0  0  0  0  0  0  0
    9.4495    8.2701    2.5503 H   0  0  0  0  0  0  0  0  0  0  0  0
    9.0846    7.1606    3.6915 H   0  0  0  0  0  0  0  0  0  0  0  0
   11.3772    8.8450    4.0398 H   0  0  0  0  0  0  0  0  0  0  0  0
   11.1075    7.3838    4.7173 H   0  0  0  0  0  0  0  0  0  0  0  0
    4.6732   10.3420    6.5219 H   0  0  0  0  0  0  0  0  0  0  0  0
    6.1823   10.1102   -0.2476 H   0  0  0  0  0  0  0  0  0  0  0  0
    2.8141    9.9707    2.9728 H   0  0  0  0  0  0  0  0  0  0  0  0
    8.1906   10.3130    0.9895 H   0  0  0  0  0  0  0  0  0  0  0  0
    6.7952   10.5062    5.5138 H   0  0  0  0  0  0  0  0  0  0  0  0
   12.3260   13.7717    2.2683 H   0  0  0  0  0  0  0  0  0  0  0  0
   15.1401   12.6009   -0.5349 H   0  0  0  0  0  0  0  0  0  0  0  0
    4.1012    9.9617    0.8612 H   0  0  0  0  0  0  0  0  0  0  0  0
   12.9834   11.9652    3.6890 H   0  0  0  0  0  0  0  0  0  0  0  0
   15.8083   10.7888    0.8967 H   0  0  0  0  0  0  0  0  0  0  0  0
   11.8468    7.9903    2.1204 H   0  0  0  0  0  0  0  0  0  0  0  0
  1 24  1  0  0  0  0
  2  3  2  0  0  0  0
  2  4  2  0  0  0  0
  2  6  1  0  0  0  0
  2 25  1  0  0  0  0
  5  9  1  0  0  0  0
  5 10  1  0  0  0  0
  6 12  1  0  0  0  0
  7 11  1  0  0  0  0
  7 13  1  0  0  0  0
  8 14  2  0  0  0  0
  8 16  1  0  0  0  0
  9 11  1  0  0  0  0
 10 26  1  0  0  0  0
 12 13  1  0  0  0  0
 14 18  1  0  0  0  0
 15 17  1  0  0  0  0
 15 21  2  0  0  0  0
 16 27  2  0  0  0  0
 17 25  2  0  0  0  0
 18 28  2  0  0  0  0
 19 22  2  0  0  0  0
 19 24  1  0  0  0  0
 20 23  1  0  0  0  0
 20 24  2  0  0  0  0
 21 27  1  0  0  0  0
 22 26  1  0  0  0  0
 23 26  2  0  0  0  0
 25 28  1  0  0  0  0
 27 28  1  0  0  0  0
  6 29  1  0  0  0  0
  7 30  1  0  0  0  0
  9 31  1  0  0  0  0
  9 32  1  0  0  0  0
 10 33  1  0  0  0  0
 10 34  1  0  0  0  0
 11 35  1  0  0  0  0
 11 36  1  0  0  0  0
 12 37  1  0  0  0  0
 12 38  1  0  0  0  0
 13 39  1  0  0  0  0
 13 40  1  0  0  0  0
 14 41  1  0  0  0  0
 15 42  1  0  0  0  0
 16 43  1  0  0  0  0
 17 44  1  0  0  0  0
 18 45  1  0  0  0  0
 19 46  1  0  0  0  0
 20 47  1  0  0  0  0
 21 48  1  0  0  0  0
 22 49  1  0  0  0  0
 23 50  1  0  0  0  0
  7 51  1  0  0  0  0
M  CHG  1   7   1
M  END
$$$$
3OW3_SMY_A_401
prProtoss 05262315403D 1   1.00000     0.00000     0
Protoss beta proteinsplus
 57 61  0  0  0  0            999 V2000
   12.0440   30.0140   36.5100 S   0  0  0  0  0  0  0  0  0  0  0  0
    4.3660   34.8540   36.0780 O   0  0  0  0  0  0  0  0  0  0  0  0
    3.5340   34.6350   33.5480 N   0  3  0  0  0  0  0  0  0  0  0  0
   11.1820   34.7530   36.8670 N   0  0  0  0  0  0  0  0  0  0  0  0
   13.3080   33.6550   36.9970 N   0  0  0  0  0  0  0  0  0  0  0  0
    3.3040   29.1480   36.7880 N   0  0  0  0  0  0  0  0  0  0  0  0
    6.3570   33.8360   35.6400 N   0  0  0  0  0  0  0  0  0  0  0  0
    9.1770   33.6140   36.4220 N   0  0  0  0  0  0  0  0  0  0  0  0
    9.5300   30.4410   37.3110 C   0  0  0  0  0  0  0  0  0  0  0  0
   13.4410   31.2100   36.6910 C   0  0  0  0  0  0  0  0  0  0  0  0
   12.5280   34.7370   37.0060 C   0  0  0  0  0  0  0  0  0  0  0  0
    2.7250   30.3540   36.3700 C   0  0  0  0  0  0  0  0  0  0  0  0
    7.0290   34.5900   36.7170 C   0  0  0  0  0  0  0  0  0  0  0  0
    7.2220   32.9550   34.8370 C   0  0  0  0  0  0  0  0  0  0  0  0
    8.2040   33.9320   37.4140 C   0  0  0  0  0  0  0  0  0  0  0  0
    8.6780   32.8090   35.2940 C   0  0  0  0  0  0  0  0  0  0  0  0
    6.8150   28.3140   35.6180 C   0  0  0  0  0  0  0  0  0  0  0  0
    6.9990   29.4830   34.8510 C   0  0  0  0  0  0  0  0  0  0  0  0
    5.5740   28.1660   36.2820 C   0  0  0  0  0  0  0  0  0  0  0  0
    5.9530   30.4420   34.7800 C   0  0  0  0  0  0  0  0  0  0  0  0
    3.0950   32.4720   34.9260 C   0  0  0  0  0  0  0  0  0  0  0  0
   10.5960   31.0650   36.3230 C   0  0  1  0  0  0  0  0  0  0  0  0
    5.0120   34.0590   35.3900 C   0  0  0  0  0  0  0  0  0  0  0  0
   10.5370   33.6060   36.6420 C   0  0  0  0  0  0  0  0  0  0  0  0
    4.1210   33.4490   34.2950 C   0  0  2  0  0  0  0  0  0  0  0  0
   12.6840   32.4930   36.7520 C   0  0  0  0  0  0  0  0  0  0  0  0
    4.5380   29.1270   36.2120 C   0  0  0  0  0  0  0  0  0  0  0  0
    3.5140   31.1160   35.5470 C   0  0  0  0  0  0  0  0  0  0  0  0
    4.7210   30.2770   35.4630 C   0  0  0  0  0  0  0  0  0  0  0  0
   11.2740   32.4060   36.6120 C   0  0  0  0  0  0  0  0  0  0  0  0
    4.2748   35.1985   33.1825 H   0  0  0  0  0  0  0  0  0  0  0  0
    2.9633   34.3058   32.7957 H   0  0  0  0  0  0  0  0  0  0  0  0
    2.8984   28.4527   37.3814 H   0  0  0  0  0  0  0  0  0  0  0  0
    8.6842   30.9728   37.2679 H   0  0  0  0  0  0  0  0  0  0  0  0
    9.3430   29.4952   37.0455 H   0  0  0  0  0  0  0  0  0  0  0  0
    9.8889   30.4605   38.2442 H   0  0  0  0  0  0  0  0  0  0  0  0
   14.0577   31.1809   35.9043 H   0  0  0  0  0  0  0  0  0  0  0  0
   13.9618   31.0471   37.5290 H   0  0  0  0  0  0  0  0  0  0  0  0
   12.9809   35.6203   37.1270 H   0  0  0  0  0  0  0  0  0  0  0  0
    1.8077   30.6369   36.6502 H   0  0  0  0  0  0  0  0  0  0  0  0
    6.3415   34.7893   37.4153 H   0  0  0  0  0  0  0  0  0  0  0  0
    7.3591   35.4465   36.3202 H   0  0  0  0  0  0  0  0  0  0  0  0
    7.2328   33.3119   33.9029 H   0  0  0  0  0  0  0  0  0  0  0  0
    6.8113   32.0432   34.8407 H   0  0  0  0  0  0  0  0  0  0  0  0
    8.5961   34.5602   38.0860 H   0  0  0  0  0  0  0  0  0  0  0  0
    7.9023   33.0972   37.8745 H   0  0  0  0  0  0  0  0  0  0  0  0
    8.8080   31.8494   35.5436 H   0  0  0  0  0  0  0  0  0  0  0  0
    9.2521   33.0290   34.5053 H   0  0  0  0  0  0  0  0  0  0  0  0
    7.5308   27.6194   35.6896 H   0  0  0  0  0  0  0  0  0  0  0  0
    7.8576   29.6356   34.3616 H   0  0  0  0  0  0  0  0  0  0  0  0
    5.4219   27.3417   36.8274 H   0  0  0  0  0  0  0  0  0  0  0  0
    6.0907   31.2642   34.2277 H   0  0  0  0  0  0  0  0  0  0  0  0
    2.4365   32.2562   34.2050 H   0  0  0  0  0  0  0  0  0  0  0  0
    2.6369   32.9818   35.6542 H   0  0  0  0  0  0  0  0  0  0  0  0
   10.2608   31.0367   35.3813 H   0  0  0  0  0  0  0  0  0  0  0  0
    4.7020   32.9341   33.6647 H   0  0  0  0  0  0  0  0  0  0  0  0
    2.9776   35.1811   34.1742 H   0  0  0  0  0  0  0  0  0  0  0  0
  1 10  1  0  0  0  0
  1 22  1  0  0  0  0
  2 23  2  0  0  0  0
  3 25  1  0  0  0  0
  4 11  2  0  0  0  0
  4 24  1  0  0  0  0
  5 11  1  0  0  0  0
  5 26  2  0  0  0  0
  6 12  1  0  0  0  0
  6 27  1  0  0  0  0
  7 13  1  0  0  0  0
  7 14  1  0  0  0  0
  7 23  1  0  0  0  0
  8 15  1  0  0  0  0
  8 16  1  0  0  0  0
  8 24  1  0  0  0  0
  9 22  1  0  0  0  0
 10 26  1  0  0  0  0
 12 28  2  0  0  0  0
 13 15  1  0  0  0  0
 14 16  1  0  0  0  0
 17 18  2  0  0  0  0
 17 19  1  0  0  0  0
 18 20  1  0  0  0  0
 19 27  2  0  0  0  0
 20 29  2  0  0  0  0
 21 25  1  0  0  0  0
 21 28  1  0  0  0  0
 22 30  1  0  0  0  0
 23 25  1  0  0  0  0
 24 30  2  0  0  0  0
 26 30  1  0  0  0  0
 27 29  1  0  0  0  0
 28 29  1  0  0  0  0
  3 31  1  0  0  0  0
  3 32  1  0  0  0  0
  6 33  1  0  0  0  0
  9 34  1  0  0  0  0
  9 35  1  0  0  0  0
  9 36  1  0  0  0  0
 10 37  1  0  0  0  0
 10 38  1  0  0  0  0
 11 39  1  0  0  0  0
 12 40  1  0  0  0  0
 13 41  1  0  0  0  0
 13 42  1  0  0  0  0
 14 43  1  0  0  0  0
 14 44  1  0  0  0  0
 15 45  1  0  0  0  0
 15 46  1  0  0  0  0
 16 47  1  0  0  0  0
 16 48  1  0  0  0  0
 17 49  1  0  0  0  0
 18 50  1  0  0  0  0
 19 51  1  0  0  0  0
 20 52  1  0  0  0  0
 21 53  1  0  0  0  0
 21 54  1  0  0  0  0
 22 55  1  0  0  0  0
 25 56  1  0  0  0  0
  3 57  1  0  0  0  0
M  CHG  1   3   1
M  END
$$$$
5O5M_9LQ_A_401
prProtoss 08192305033D 1   1.00000     0.00000     0
Protoss beta proteinsplus
 55 58  0  0  0  0            999 V2000
   -8.0690   10.9930   -8.1840 S   0  0  0  0  0  0  0  0  0  0  0  0
   -7.4180   10.5790   -6.9820 O   0  0  0  0  0  0  0  0  0  0  0  0
   -8.3340   10.0340   -9.2120 O   0  0  0  0  0  0  0  0  0  0  0  0
   -4.6100   16.2000   -8.7520 O   0  0  0  0  0  0  0  0  0  0  0  0
   -3.3350   18.0390   -8.0260 O   0  0  0  0  0  0  0  0  0  0  0  0
  -13.0110    9.4280   -6.7660 N   0  0  0  0  0  0  0  0  0  0  0  0
   -7.1240   12.1470   -8.8590 N   0  0  0  0  0  0  0  0  0  0  0  0
   -4.3520   13.4880   -8.7670 N   0  3  0  0  0  0  0  0  0  0  0  0
  -11.8190    8.8400   -6.9570 C   0  0  0  0  0  0  0  0  0  0  0  0
  -13.0630   10.7460   -6.8440 C   0  0  0  0  0  0  0  0  0  0  0  0
   -6.6370   13.1890   -7.9370 C   0  0  0  0  0  0  0  0  0  0  0  0
   -5.2230   13.0390   -7.6810 C   0  0  0  0  0  0  0  0  0  0  0  0
   -7.1490   12.4780  -10.2990 C   0  0  0  0  0  0  0  0  0  0  0  0
   -4.6280   12.8610  -10.0620 C   0  0  0  0  0  0  0  0  0  0  0  0
   -2.9320   13.6960   -8.4400 C   0  0  0  0  0  0  0  0  0  0  0  0
   -5.9200   13.2500  -10.7670 C   0  0  0  0  0  0  0  0  0  0  0  0
   -2.0440   14.1230   -4.7930 C   0  0  0  0  0  0  0  0  0  0  0  0
   -2.2840   15.4580   -4.5780 C   0  0  0  0  0  0  0  0  0  0  0  0
  -10.9450   13.7060   -7.6180 C   0  0  0  0  0  0  0  0  0  0  0  0
  -10.6720    9.5150   -7.2340 C   0  0  0  0  0  0  0  0  0  0  0  0
   -9.7320   13.0890   -7.8680 C   0  0  0  0  0  0  0  0  0  0  0  0
   -2.2440   13.5790   -6.0470 C   0  0  0  0  0  0  0  0  0  0  0  0
  -12.0380   12.9730   -7.2620 C   0  0  0  0  0  0  0  0  0  0  0  0
   -2.7390   16.2550   -5.6110 C   0  0  0  0  0  0  0  0  0  0  0  0
   -9.6080   11.7320   -7.7440 C   0  0  0  0  0  0  0  0  0  0  0  0
  -11.9510   11.5680   -7.1180 C   0  0  0  0  0  0  0  0  0  0  0  0
   -2.7140   14.3640   -7.1030 C   0  0  0  0  0  0  0  0  0  0  0  0
  -10.7090   10.9230   -7.3390 C   0  0  0  0  0  0  0  0  0  0  0  0
   -2.9860   15.7340   -6.8880 C   0  0  0  0  0  0  0  0  0  0  0  0
   -3.6470   16.7120   -7.9400 B   0  0  0  0  0  0  0  0  0  0  0  0
   -4.9744   16.9257   -9.3356 H   0  0  0  0  0  0  0  0  0  0  0  0
   -3.0157   18.2471   -8.9505 H   0  0  0  0  0  0  0  0  0  0  0  0
  -11.7721    7.8433   -6.8914 H   0  0  0  0  0  0  0  0  0  0  0  0
  -13.9479   11.1888   -6.6994 H   0  0  0  0  0  0  0  0  0  0  0  0
   -7.1345   13.1183   -7.0724 H   0  0  0  0  0  0  0  0  0  0  0  0
   -6.8015   14.0876   -8.3438 H   0  0  0  0  0  0  0  0  0  0  0  0
   -4.9973   13.5673   -6.8625 H   0  0  0  0  0  0  0  0  0  0  0  0
   -5.0381   12.0705   -7.5141 H   0  0  0  0  0  0  0  0  0  0  0  0
   -7.9603   13.0332  -10.4821 H   0  0  0  0  0  0  0  0  0  0  0  0
   -7.2042   11.6255  -10.8188 H   0  0  0  0  0  0  0  0  0  0  0  0
   -4.6511   11.8718   -9.9175 H   0  0  0  0  0  0  0  0  0  0  0  0
   -3.8713   13.0909  -10.6740 H   0  0  0  0  0  0  0  0  0  0  0  0
   -2.5241   14.2692   -9.1506 H   0  0  0  0  0  0  0  0  0  0  0  0
   -2.4763   12.8060   -8.4273 H   0  0  0  0  0  0  0  0  0  0  0  0
   -6.0826   14.2237  -10.6074 H   0  0  0  0  0  0  0  0  0  0  0  0
   -5.8029   13.0878  -11.7468 H   0  0  0  0  0  0  0  0  0  0  0  0
   -1.7246   13.5449   -4.0421 H   0  0  0  0  0  0  0  0  0  0  0  0
   -2.1293   15.8538   -3.6728 H   0  0  0  0  0  0  0  0  0  0  0  0
  -11.0207   14.6998   -7.6993 H   0  0  0  0  0  0  0  0  0  0  0  0
   -9.8123    9.0205   -7.3619 H   0  0  0  0  0  0  0  0  0  0  0  0
   -8.9418   13.6378   -8.1408 H   0  0  0  0  0  0  0  0  0  0  0  0
   -2.0498   12.6102   -6.2010 H   0  0  0  0  0  0  0  0  0  0  0  0
  -12.9110   13.4334   -7.1008 H   0  0  0  0  0  0  0  0  0  0  0  0
   -2.8960   17.2282   -5.4429 H   0  0  0  0  0  0  0  0  0  0  0  0
   -4.6708   14.4240   -8.9164 H   0  0  0  0  0  0  0  0  0  0  0  0
  1  2  2  0  0  0  0
  1  3  2  0  0  0  0
  1  7  1  0  0  0  0
  1 25  1  0  0  0  0
  4 30  1  0  0  0  0
  5 30  1  0  0  0  0
  6  9  2  0  0  0  0
  6 10  1  0  0  0  0
  7 11  1  0  0  0  0
  7 13  1  0  0  0  0
  8 12  1  0  0  0  0
  8 14  1  0  0  0  0
  8 15  1  0  0  0  0
  9 20  1  0  0  0  0
 10 26  2  0  0  0  0
 11 12  1  0  0  0  0
 13 16  1  0  0  0  0
 14 16  1  0  0  0  0
 15 27  1  0  0  0  0
 17 18  2  0  0  0  0
 17 22  1  0  0  0  0
 18 24  1  0  0  0  0
 19 21  1  0  0  0  0
 19 23  2  0  0  0  0
 20 28  2  0  0  0  0
 21 25  2  0  0  0  0
 22 27  2  0  0  0  0
 23 26  1  0  0  0  0
 24 29  2  0  0  0  0
 25 28  1  0  0  0  0
 26 28  1  0  0  0  0
 27 29  1  0  0  0  0
 29 30  1  0  0  0  0
  4 31  1  0  0  0  0
  5 32  1  0  0  0  0
  9 33  1  0  0  0  0
 10 34  1  0  0  0  0
 11 35  1  0  0  0  0
 11 36  1  0  0  0  0
 12 37  1  0  0  0  0
 12 38  1  0  0  0  0
 13 39  1  0  0  0  0
 13 40  1  0  0  0  0
 14 41  1  0  0  0  0
 14 42  1  0  0  0  0
 15 43  1  0  0  0  0
 15 44  1  0  0  0  0
 16 45  1  0  0  0  0
 16 46  1  0  0  0  0
 17 47  1  0  0  0  0
 18 48  1  0  0  0  0
 19 49  1  0  0  0  0
 20 50  1  0  0  0  0
 21 51  1  0  0  0  0
 22 52  1  0  0  0  0
 23 53  1  0  0  0  0
 24 54  1  0  0  0  0
  8 55  1  0  0  0  0
M  CHG  1   8   1
M  END
$$$$
5O5M_CL_C_101
prProtoss 08192305033D 1   1.00000     0.00000     0
Protoss beta proteinsplus
  1  0  0  0  0  0            999 V2000
    2.2880    5.4670  -13.4550 Cl  0  5  0  0  0  0  0  0  0  0  0  0
M  CHG  1   1  -1
M  END
$$$$
5OL3_9LQ_A_401
prProtoss 08192303243D 1   1.00000     0.00000     0
Protoss beta proteinsplus
 55 58  0  0  0  0            999 V2000
    8.1470   10.9360    8.1060 S   0  0  0  0  0  0  0  0  0  0  0  0
    8.3940    9.9670    9.1280 O   0  0  0  0  0  0  0  0  0  0  0  0
    7.5300   10.5300    6.8820 O   0  0  0  0  0  0  0  0  0  0  0  0
    4.6420   15.9670    8.6590 O   0  0  0  0  0  0  0  0  0  0  0  0
    3.2530   17.7780    8.0960 O   0  0  0  0  0  0  0  0  0  0  0  0
   13.1510    9.5500    6.6800 N   0  0  0  0  0  0  0  0  0  0  0  0
    7.1650   12.0610    8.7720 N   0  0  0  0  0  0  0  0  0  0  0  0
    4.3310   13.3170    8.7570 N   0  3  0  0  0  0  0  0  0  0  0  0
   11.9840    8.9190    6.8680 C   0  0  0  0  0  0  0  0  0  0  0  0
   13.1580   10.8700    6.7740 C   0  0  0  0  0  0  0  0  0  0  0  0
    6.6290   13.0940    7.8660 C   0  0  0  0  0  0  0  0  0  0  0  0
    5.1820   12.9290    7.6230 C   0  0  0  0  0  0  0  0  0  0  0  0
    7.1700   12.3290   10.2240 C   0  0  0  0  0  0  0  0  0  0  0  0
    4.6440   12.6880   10.0450 C   0  0  0  0  0  0  0  0  0  0  0  0
    2.8960   13.4690    8.4770 C   0  0  0  0  0  0  0  0  0  0  0  0
    5.9520   13.1100   10.7010 C   0  0  0  0  0  0  0  0  0  0  0  0
    1.8330   13.8840    4.8730 C   0  0  0  0  0  0  0  0  0  0  0  0
    2.0930   15.2090    4.6360 C   0  0  0  0  0  0  0  0  0  0  0  0
   10.9470   13.7420    7.6170 C   0  0  0  0  0  0  0  0  0  0  0  0
   10.8140    9.5470    7.1660 C   0  0  0  0  0  0  0  0  0  0  0  0
    9.7550   13.0800    7.8550 C   0  0  0  0  0  0  0  0  0  0  0  0
    2.0790   13.3440    6.1210 C   0  0  0  0  0  0  0  0  0  0  0  0
   12.0620   13.0540    7.2460 C   0  0  0  0  0  0  0  0  0  0  0  0
    2.6100   16.0060    5.6420 C   0  0  0  0  0  0  0  0  0  0  0  0
    9.6730   11.7210    7.7060 C   0  0  0  0  0  0  0  0  0  0  0  0
   12.0230   11.6460    7.0810 C   0  0  0  0  0  0  0  0  0  0  0  0
    2.6150   14.1270    7.1480 C   0  0  0  0  0  0  0  0  0  0  0  0
   10.8040   10.9570    7.2960 C   0  0  0  0  0  0  0  0  0  0  0  0
    2.8980   15.4890    6.9120 C   0  0  0  0  0  0  0  0  0  0  0  0
    3.6030   16.4680    7.9370 B   0  0  0  0  0  0  0  0  0  0  0  0
    5.0213   16.6866    9.2407 H   0  0  0  0  0  0  0  0  0  0  0  0
    2.4781   17.9906    7.5008 H   0  0  0  0  0  0  0  0  0  0  0  0
   11.9720    7.9226    6.7839 H   0  0  0  0  0  0  0  0  0  0  0  0
   14.0231   11.3465    6.6173 H   0  0  0  0  0  0  0  0  0  0  0  0
    7.1107   13.0363    6.9916 H   0  0  0  0  0  0  0  0  0  0  0  0
    6.7862   13.9931    8.2745 H   0  0  0  0  0  0  0  0  0  0  0  0
    4.9304   13.4916    6.8355 H   0  0  0  0  0  0  0  0  0  0  0  0
    5.0070   11.9667    7.4147 H   0  0  0  0  0  0  0  0  0  0  0  0
    7.9907   12.8555   10.4460 H   0  0  0  0  0  0  0  0  0  0  0  0
    7.1944   11.4540   10.7075 H   0  0  0  0  0  0  0  0  0  0  0  0
    4.6807   11.6992    9.9004 H   0  0  0  0  0  0  0  0  0  0  0  0
    3.9014   12.9049   10.6786 H   0  0  0  0  0  0  0  0  0  0  0  0
    2.4886   14.0268    9.2001 H   0  0  0  0  0  0  0  0  0  0  0  0
    2.4744   12.5622    8.4780 H   0  0  0  0  0  0  0  0  0  0  0  0
    6.1036   14.0786   10.5039 H   0  0  0  0  0  0  0  0  0  0  0  0
    5.8636   12.9807   11.6887 H   0  0  0  0  0  0  0  0  0  0  0  0
    1.4653   13.3082    4.1427 H   0  0  0  0  0  0  0  0  0  0  0  0
    1.9087   15.6002    3.7344 H   0  0  0  0  0  0  0  0  0  0  0  0
   10.9898   14.7359    7.7186 H   0  0  0  0  0  0  0  0  0  0  0  0
    9.9733    9.0202    7.2914 H   0  0  0  0  0  0  0  0  0  0  0  0
    8.9476   13.5978    8.1379 H   0  0  0  0  0  0  0  0  0  0  0  0
    1.8710   12.3809    6.2918 H   0  0  0  0  0  0  0  0  0  0  0  0
   12.9176   13.5469    7.0882 H   0  0  0  0  0  0  0  0  0  0  0  0
    2.7821   16.9738    5.4583 H   0  0  0  0  0  0  0  0  0  0  0  0
    4.6132   14.2634    8.9141 H   0  0  0  0  0  0  0  0  0  0  0  0
  1  2  2  0  0  0  0
  1  3  2  0  0  0  0
  1  7  1  0  0  0  0
  1 25  1  0  0  0  0
  4 30  1  0  0  0  0
  5 30  1  0  0  0  0
  6  9  2  0  0  0  0
  6 10  1  0  0  0  0
  7 11  1  0  0  0  0
  7 13  1  0  0  0  0
  8 12  1  0  0  0  0
  8 14  1  0  0  0  0
  8 15  1  0  0  0  0
  9 20  1  0  0  0  0
 10 26  2  0  0  0  0
 11 12  1  0  0  0  0
 13 16  1  0  0  0  0
 14 16  1  0  0  0  0
 15 27  1  0  0  0  0
 17 18  2  0  0  0  0
 17 22  1  0  0  0  0
 18 24  1  0  0  0  0
 19 21  1  0  0  0  0
 19 23  2  0  0  0  0
 20 28  2  0  0  0  0
 21 25  2  0  0  0  0
 22 27  2  0  0  0  0
 23 26  1  0  0  0  0
 24 29  2  0  0  0  0
 25 28  1  0  0  0  0
 26 28  1  0  0  0  0
 27 29  1  0  0  0  0
 29 30  1  0  0  0  0
  4 31  1  0  0  0  0
  5 32  1  0  0  0  0
  9 33  1  0  0  0  0
 10 34  1  0  0  0  0
 11 35  1  0  0  0  0
 11 36  1  0  0  0  0
 12 37  1  0  0  0  0
 12 38  1  0  0  0  0
 13 39  1  0  0  0  0
 13 40  1  0  0  0  0
 14 41  1  0  0  0  0
 14 42  1  0  0  0  0
 15 43  1  0  0  0  0
 15 44  1  0  0  0  0
 16 45  1  0  0  0  0
 16 46  1  0  0  0  0
 17 47  1  0  0  0  0
 18 48  1  0  0  0  0
 19 49  1  0  0  0  0
 20 50  1  0  0  0  0
 21 51  1  0  0  0  0
 22 52  1  0  0  0  0
 23 53  1  0  0  0  0
 24 54  1  0  0  0  0
  8 55  1  0  0  0  0
M  CHG  1   8   1
M  END
$$$$
5OL3_MPD_A_402
prProtoss 08192303243D 1   1.00000     0.00000     0
Protoss beta proteinsplus
 22 21  0  0  0  0            999 V2000
   22.7320   22.6740   22.8340 O   0  0  0  0  0  0  0  0  0  0  0  0
   26.7780   21.6300   22.5570 O   0  0  0  0  0  0  0  0  0  0  0  0
   24.2220   24.2070   23.7900 C   0  0  0  0  0  0  0  0  0  0  0  0
   26.9200   22.3130   24.8090 C   0  0  0  0  0  0  0  0  0  0  0  0
   26.3460   19.9420   24.2610 C   0  0  0  0  0  0  0  0  0  0  0  0
   24.6470   21.7020   23.8770 C   0  0  0  0  0  0  0  0  0  0  0  0
   24.1090   22.8790   23.0650 C   0  0  1  0  0  0  0  0  0  0  0  0
   26.1570   21.4090   23.8520 C   0  0  0  0  0  0  0  0  0  0  0  0
   22.5999   21.8061   22.3551 H   0  0  0  0  0  0  0  0  0  0  0  0
   26.3248   21.0633   21.8689 H   0  0  0  0  0  0  0  0  0  0  0  0
   25.1842   24.4025   23.9795 H   0  0  0  0  0  0  0  0  0  0  0  0
   23.8409   24.9329   23.2174 H   0  0  0  0  0  0  0  0  0  0  0  0
   23.7153   24.1609   24.6509 H   0  0  0  0  0  0  0  0  0  0  0  0
   26.5452   22.2145   25.7309 H   0  0  0  0  0  0  0  0  0  0  0  0
   27.8861   22.0549   24.8126 H   0  0  0  0  0  0  0  0  0  0  0  0
   26.8301   23.2638   24.5125 H   0  0  0  0  0  0  0  0  0  0  0  0
   25.9196   19.7868   25.1521 H   0  0  0  0  0  0  0  0  0  0  0  0
   25.9189   19.3482   23.5791 H   0  0  0  0  0  0  0  0  0  0  0  0
   27.3227   19.7351   24.3183 H   0  0  0  0  0  0  0  0  0  0  0  0
   24.1833   20.8805   23.5453 H   0  0  0  0  0  0  0  0  0  0  0  0
   24.3955   21.8645   24.8311 H   0  0  0  0  0  0  0  0  0  0  0  0
   24.5916   22.9319   22.1908 H   0  0  0  0  0  0  0  0  0  0  0  0
  1  7  1  0  0  0  0
  2  8  1  0  0  0  0
  3  7  1  0  0  0  0
  4  8  1  0  0  0  0
  5  8  1  0  0  0  0
  6  7  1  0  0  0  0
  6  8  1  0  0  0  0
  1  9  1  0  0  0  0
  2 10  1  0  0  0  0
  3 11  1  0  0  0  0
  3 12  1  0  0  0  0
  3 13  1  0  0  0  0
  4 14  1  0  0  0  0
  4 15  1  0  0  0  0
  4 16  1  0  0  0  0
  5 17  1  0  0  0  0
  5 18  1  0  0  0  0
  5 19  1  0  0  0  0
  6 20  1  0  0  0  0
  6 21  1  0  0  0  0
  7 22  1  0  0  0  0
M  END
$$$$
5OL3_CL_D_101
prProtoss 08192303243D 1   1.00000     0.00000     0
Protoss beta proteinsplus
  1  0  0  0  0  0            999 V2000
   -2.0620    5.1210   13.2910 Cl  0  5  0  0  0  0  0  0  0  0  0  0
M  CHG  1   1  -1
M  END
$$$$
5OT3_9LQ_A_401
prProtoss 08192303413D 1   1.00000     0.00000     0
Protoss beta proteinsplus
 55 58  0  0  0  0            999 V2000
    7.9010   11.0330    8.0180 S   0  0  0  0  0  0  0  0  0  0  0  0
    8.2340   10.0970    9.0440 O   0  0  0  0  0  0  0  0  0  0  0  0
    7.1620   10.6060    6.8720 O   0  0  0  0  0  0  0  0  0  0  0  0
    2.5360   16.3250    9.5370 O   0  0  0  0  0  0  0  0  0  0  0  0
    3.0020   18.0310    8.0310 O   0  0  0  0  0  0  0  0  0  0  0  0
   12.9700    9.5590    6.8450 N   0  0  0  0  0  0  0  0  0  0  0  0
    7.0230   12.2140    8.7300 N   0  0  0  0  0  0  0  0  0  0  0  0
    4.1140   13.1940    8.7840 N   0  3  0  0  0  0  0  0  0  0  0  0
   11.7890    8.9370    6.9770 C   0  0  0  0  0  0  0  0  0  0  0  0
   12.9720   10.8860    6.8820 C   0  0  0  0  0  0  0  0  0  0  0  0
    6.3930   13.2510    7.8890 C   0  0  0  0  0  0  0  0  0  0  0  0
    5.0230   12.9970    7.6680 C   0  0  0  0  0  0  0  0  0  0  0  0
    7.0370   12.4970   10.1800 C   0  0  0  0  0  0  0  0  0  0  0  0
    4.6940   13.5360   10.0810 C   0  0  0  0  0  0  0  0  0  0  0  0
    2.7290   13.5830    8.4620 C   0  0  0  0  0  0  0  0  0  0  0  0
    5.6350   12.5630   10.7780 C   0  0  0  0  0  0  0  0  0  0  0  0
    2.3420   14.1250    4.7360 C   0  0  0  0  0  0  0  0  0  0  0  0
    2.4920   15.4840    4.6170 C   0  0  0  0  0  0  0  0  0  0  0  0
   10.6890   13.7970    7.3230 C   0  0  0  0  0  0  0  0  0  0  0  0
   10.6020    9.5770    7.1710 C   0  0  0  0  0  0  0  0  0  0  0  0
    9.4830   13.1470    7.5210 C   0  0  0  0  0  0  0  0  0  0  0  0
    2.3800   13.5320    5.9860 C   0  0  0  0  0  0  0  0  0  0  0  0
   11.8350   13.0900    7.1080 C   0  0  0  0  0  0  0  0  0  0  0  0
    2.6540   16.2640    5.7470 C   0  0  0  0  0  0  0  0  0  0  0  0
    9.4210   11.7790    7.5030 C   0  0  0  0  0  0  0  0  0  0  0  0
   11.8150   11.6740    7.0630 C   0  0  0  0  0  0  0  0  0  0  0  0
    2.5780   14.2990    7.1350 C   0  0  0  0  0  0  0  0  0  0  0  0
   10.5820   10.9900    7.2360 C   0  0  0  0  0  0  0  0  0  0  0  0
    2.6850   15.7050    7.0340 C   0  0  0  0  0  0  0  0  0  0  0  0
    2.7510   16.7120    8.2500 B   0  0  0  0  0  0  0  0  0  0  0  0
    3.3425   16.5384   10.0884 H   0  0  0  0  0  0  0  0  0  0  0  0
    2.9854   18.5225    8.9017 H   0  0  0  0  0  0  0  0  0  0  0  0
   11.7791    7.9382    6.9299 H   0  0  0  0  0  0  0  0  0  0  0  0
   13.8478   11.3567    6.7750 H   0  0  0  0  0  0  0  0  0  0  0  0
    6.8620   13.2787    7.0063 H   0  0  0  0  0  0  0  0  0  0  0  0
    6.4872   14.1363    8.3445 H   0  0  0  0  0  0  0  0  0  0  0  0
    4.7228   13.5986    6.9278 H   0  0  0  0  0  0  0  0  0  0  0  0
    4.9384   12.0438    7.3779 H   0  0  0  0  0  0  0  0  0  0  0  0
    7.4912   13.3751   10.3306 H   0  0  0  0  0  0  0  0  0  0  0  0
    7.5489   11.7732   10.6427 H   0  0  0  0  0  0  0  0  0  0  0  0
    3.9294   13.6948   10.7056 H   0  0  0  0  0  0  0  0  0  0  0  0
    5.2027   14.3875    9.9536 H   0  0  0  0  0  0  0  0  0  0  0  0
    2.3972   14.1890    9.1850 H   0  0  0  0  0  0  0  0  0  0  0  0
    2.1683   12.7553    8.4374 H   0  0  0  0  0  0  0  0  0  0  0  0
    5.7169   12.8400   11.7354 H   0  0  0  0  0  0  0  0  0  0  0  0
    5.2315   11.6493   10.7287 H   0  0  0  0  0  0  0  0  0  0  0  0
    2.2053   13.5635    3.9199 H   0  0  0  0  0  0  0  0  0  0  0  0
    2.4841   15.9103    3.7125 H   0  0  0  0  0  0  0  0  0  0  0  0
   10.7202   14.7964    7.3378 H   0  0  0  0  0  0  0  0  0  0  0  0
    9.7549    9.0541    7.2663 H   0  0  0  0  0  0  0  0  0  0  0  0
    8.6515   13.6799    7.6782 H   0  0  0  0  0  0  0  0  0  0  0  0
    2.2642   12.5420    6.0668 H   0  0  0  0  0  0  0  0  0  0  0  0
   12.6994   13.5764    6.9806 H   0  0  0  0  0  0  0  0  0  0  0  0
    2.7518   17.2539    5.6445 H   0  0  0  0  0  0  0  0  0  0  0  0
    3.9346   12.2289    8.9747 H   0  0  0  0  0  0  0  0  0  0  0  0
  1  2  2  0  0  0  0
  1  3  2  0  0  0  0
  1  7  1  0  0  0  0
  1 25  1  0  0  0  0
  4 30  1  0  0  0  0
  5 30  1  0  0  0  0
  6  9  2  0  0  0  0
  6 10  1  0  0  0  0
  7 11  1  0  0  0  0
  7 13  1  0  0  0  0
  8 12  1  0  0  0  0
  8 14  1  0  0  0  0
  8 15  1  0  0  0  0
  9 20  1  0  0  0  0
 10 26  2  0  0  0  0
 11 12  1  0  0  0  0
 13 16  1  0  0  0  0
 14 16  1  0  0  0  0
 15 27  1  0  0  0  0
 17 18  2  0  0  0  0
 17 22  1  0  0  0  0
 18 24  1  0  0  0  0
 19 21  1  0  0  0  0
 19 23  2  0  0  0  0
 20 28  2  0  0  0  0
 21 25  2  0  0  0  0
 22 27  2  0  0  0  0
 23 26  1  0  0  0  0
 24 29  2  0  0  0  0
 25 28  1  0  0  0  0
 26 28  1  0  0  0  0
 27 29  1  0  0  0  0
 29 30  1  0  0  0  0
  4 31  1  0  0  0  0
  5 32  1  0  0  0  0
  9 33  1  0  0  0  0
 10 34  1  0  0  0  0
 11 35  1  0  0  0  0
 11 36  1  0  0  0  0
 12 37  1  0  0  0  0
 12 38  1  0  0  0  0
 13 39  1  0  0  0  0
 13 40  1  0  0  0  0
 14 41  1  0  0  0  0
 14 42  1  0  0  0  0
 15 43  1  0  0  0  0
 15 44  1  0  0  0  0
 16 45  1  0  0  0  0
 16 46  1  0  0  0  0
 17 47  1  0  0  0  0
 18 48  1  0  0  0  0
 19 49  1  0  0  0  0
 20 50  1  0  0  0  0
 21 51  1  0  0  0  0
 22 52  1  0  0  0  0
 23 53  1  0  0  0  0
 24 54  1  0  0  0  0
  8 55  1  0  0  0  0
M  CHG  1   8   1
M  END
$$$$
5OT3_MPD_A_402
prProtoss 08192303413D 1   1.00000     0.00000     0
Protoss beta proteinsplus
 22 21  0  0  0  0            999 V2000
   22.7810   22.3830   23.4240 O   0  0  0  0  0  0  0  0  0  0  0  0
   26.0140   21.7830   25.0030 O   0  0  0  0  0  0  0  0  0  0  0  0
   24.4610   24.0160   24.0070 C   0  0  0  0  0  0  0  0  0  0  0  0
   26.7850   20.2090   23.4840 C   0  0  0  0  0  0  0  0  0  0  0  0
   27.3980   22.5500   23.1000 C   0  0  0  0  0  0  0  0  0  0  0  0
   25.0140   21.7760   22.7500 C   0  0  0  0  0  0  0  0  0  0  0  0
   24.0260   22.9220   23.0290 C   0  0  1  0  0  0  0  0  0  0  0  0
   26.2820   21.6290   23.5890 C   0  0  0  0  0  0  0  0  0  0  0  0
   22.5067   21.6700   22.7788 H   0  0  0  0  0  0  0  0  0  0  0  0
   26.5760   22.5243   25.3700 H   0  0  0  0  0  0  0  0  0  0  0  0
   25.3423   24.3901   23.7182 H   0  0  0  0  0  0  0  0  0  0  0  0
   23.7767   24.7451   24.0174 H   0  0  0  0  0  0  0  0  0  0  0  0
   24.5482   23.6276   24.9243 H   0  0  0  0  0  0  0  0  0  0  0  0
   27.0013   20.0017   22.5299 H   0  0  0  0  0  0  0  0  0  0  0  0
   27.6079   20.1047   24.0426 H   0  0  0  0  0  0  0  0  0  0  0  0
   26.0789   19.5803   23.8099 H   0  0  0  0  0  0  0  0  0  0  0  0
   27.5442   22.4060   22.1213 H   0  0  0  0  0  0  0  0  0  0  0  0
   27.1392   23.5023   23.2618 H   0  0  0  0  0  0  0  0  0  0  0  0
   28.2413   22.3447   23.5968 H   0  0  0  0  0  0  0  0  0  0  0  0
   25.3085   21.8757   21.7996 H   0  0  0  0  0  0  0  0  0  0  0  0
   24.5014   20.9235   22.8525 H   0  0  0  0  0  0  0  0  0  0  0  0
   23.8691   23.3763   22.1521 H   0  0  0  0  0  0  0  0  0  0  0  0
  1  7  1  0  0  0  0
  2  8  1  0  0  0  0
  3  7  1  0  0  0  0
  4  8  1  0  0  0  0
  5  8  1  0  0  0  0
  6  7  1  0  0  0  0
  6  8  1  0  0  0  0
  1  9  1  0  0  0  0
  2 10  1  0  0  0  0
  3 11  1  0  0  0  0
  3 12  1  0  0  0  0
  3 13  1  0  0  0  0
  4 14  1  0  0  0  0
  4 15  1  0  0  0  0
  4 16  1  0  0  0  0
  5 17  1  0  0  0  0
  5 18  1  0  0  0  0
  5 19  1  0  0  0  0
  6 20  1  0  0  0  0
  6 21  1  0  0  0  0
  7 22  1  0  0  0  0
M  END
$$$$
5OT3_CL_D_102
prProtoss 08192303413D 1   1.00000     0.00000     0
Protoss beta proteinsplus
  1  0  0  0  0  0            999 V2000
   -2.6270    5.2000   13.5020 Cl  0  5  0  0  0  0  0  0  0  0  0  0
M  CHG  1   1  -1
M  END
$$$$
5OT3_RIP_D_101
prProtoss 08192303413D 1   1.00000     0.00000     0
Protoss beta proteinsplus
 16 16  0  0  0  0            999 V2000
   -3.0910   21.1530   11.4380 O   0  0  0  0  0  0  0  0  0  0  0  0
   -2.3260   19.9560   11.5960 C   0  0  1  0  0  0  0  0  0  0  0  0
   -3.6050   21.3460   10.1120 C   0  0  0  0  0  0  0  0  0  0  0  0
   -2.0850   19.2510   10.2590 C   0  0  0  0  0  0  0  0  0  0  0  0
   -4.3580   20.1210    9.6260 C   0  0  0  0  0  0  0  0  0  0  0  0
   -3.4120   18.9300    9.5810 C   0  0  0  0  0  0  0  0  0  0  0  0
   -1.4352   20.4087   11.6345 H   0  0  0  0  0  0  0  0  0  0  0  0
   -2.8426   21.5269    9.4907 H   0  0  0  0  0  0  0  0  0  0  0  0
   -4.2260   22.1298   10.1147 H   0  0  0  0  0  0  0  0  0  0  0  0
   -1.5833   18.4011   10.4203 H   0  0  0  0  0  0  0  0  0  0  0  0
   -1.5469   19.8480    9.6640 H   0  0  0  0  0  0  0  0  0  0  0  0
   -4.7203   20.2939    8.7101 H   0  0  0  0  0  0  0  0  0  0  0  0
   -5.1130   19.9238   10.2514 H   0  0  0  0  0  0  0  0  0  0  0  0
   -3.8389   18.1569   10.0502 H   0  0  0  0  0  0  0  0  0  0  0  0
   -3.2397   18.6867    8.6265 H   0  0  0  0  0  0  0  0  0  0  0  0
   -2.2880   19.4620   12.8810 R#  0  0  0  0  0  0  0  0  0  0  0  0
  5  6  1  0  0  0  0
  2 16  1  0  0  0  0
  1  2  1  0  0  0  0
  1  3  1  0  0  0  0
  2  4  1  0  0  0  0
  3  5  1  0  0  0  0
  4  6  1  0  0  0  0
  2  7  1  0  0  0  0
  3  8  1  0  0  0  0
  3  9  1  0  0  0  0
  4 10  1  0  0  0  0
  4 11  1  0  0  0  0
  5 12  1  0  0  0  0
  5 13  1  0  0  0  0
  6 14  1  0  0  0  0
  6 15  1  0  0  0  0
M  RGP  1  16   1
M  END
$$$$
6I2B_9LQ_A_401
prProtoss 08192303203D 1   1.00000     0.00000     0
Protoss beta proteinsplus
 55 58  0  0  0  0            999 V2000
   21.7130  -19.4710    8.3970 S   0  0  0  0  0  0  0  0  0  0  0  0
   22.7090  -19.6850    7.3960 O   0  0  0  0  0  0  0  0  0  0  0  0
   22.0000  -18.6380    9.5210 O   0  0  0  0  0  0  0  0  0  0  0  0
   14.3060  -15.7390    8.2590 O   0  0  0  0  0  0  0  0  0  0  0  0
   15.4080  -14.6460    6.5030 O   0  0  0  0  0  0  0  0  0  0  0  0
   24.2610  -23.7360   10.5140 N   0  0  0  0  0  0  0  0  0  0  0  0
   20.3970  -18.8430    7.6370 N   0  0  0  0  0  0  0  0  0  0  0  0
   19.2920  -15.8660    7.4310 N   0  3  0  0  0  0  0  0  0  0  0  0
   24.5860  -22.4850   10.1590 C   0  0  0  0  0  0  0  0  0  0  0  0
   22.9920  -24.0990   10.3920 C   0  0  0  0  0  0  0  0  0  0  0  0
   20.4600  -18.0820    6.3690 C   0  0  0  0  0  0  0  0  0  0  0  0
   19.4880  -16.7140    6.2420 C   0  0  0  0  0  0  0  0  0  0  0  0
   19.0210  -18.7600    8.1720 C   0  0  0  0  0  0  0  0  0  0  0  0
   19.7470  -16.4290    8.6960 C   0  0  0  0  0  0  0  0  0  0  0  0
   18.4610  -14.6510    7.3700 C   0  0  0  0  0  0  0  0  0  0  0  0
   18.8630  -17.5840    9.0710 C   0  0  0  0  0  0  0  0  0  0  0  0
   18.0120  -13.3440   10.8900 C   0  0  0  0  0  0  0  0  0  0  0  0
   16.6830  -13.5700   11.1300 C   0  0  0  0  0  0  0  0  0  0  0  0
   19.6730  -22.7930    9.3200 C   0  0  0  0  0  0  0  0  0  0  0  0
   23.7000  -21.5740    9.6680 C   0  0  0  0  0  0  0  0  0  0  0  0
   20.0200  -21.5090    8.9310 C   0  0  0  0  0  0  0  0  0  0  0  0
   18.5610  -13.6840    9.6680 C   0  0  0  0  0  0  0  0  0  0  0  0
   20.6150  -23.6530    9.7990 C   0  0  0  0  0  0  0  0  0  0  0  0
   15.8880  -14.1340   10.1490 C   0  0  0  0  0  0  0  0  0  0  0  0
   21.3170  -21.0820    9.0240 C   0  0  0  0  0  0  0  0  0  0  0  0
   21.9680  -23.2530    9.9150 C   0  0  0  0  0  0  0  0  0  0  0  0
   17.7820  -14.2710    8.6720 C   0  0  0  0  0  0  0  0  0  0  0  0
   22.3400  -21.9390    9.5310 C   0  0  0  0  0  0  0  0  0  0  0  0
   16.4080  -14.4860    8.8910 C   0  0  0  0  0  0  0  0  0  0  0  0
   15.3700  -15.0090    7.8180 B   0  0  0  0  0  0  0  0  0  0  0  0
   13.9575  -16.3051    7.5119 H   0  0  0  0  0  0  0  0  0  0  0  0
   15.8989  -13.7797    6.4104 H   0  0  0  0  0  0  0  0  0  0  0  0
   25.5398  -22.2023   10.2611 H   0  0  0  0  0  0  0  0  0  0  0  0
   22.7445  -25.0316   10.6546 H   0  0  0  0  0  0  0  0  0  0  0  0
   20.1999  -18.7050    5.6313 H   0  0  0  0  0  0  0  0  0  0  0  0
   21.4078  -17.7903    6.2403 H   0  0  0  0  0  0  0  0  0  0  0  0
   19.8878  -16.1350    5.5314 H   0  0  0  0  0  0  0  0  0  0  0  0
   18.5830  -17.0233    5.9499 H   0  0  0  0  0  0  0  0  0  0  0  0
   18.8204  -19.5935    8.6869 H   0  0  0  0  0  0  0  0  0  0  0  0
   18.3791  -18.6764    7.4097 H   0  0  0  0  0  0  0  0  0  0  0  0
   19.7024  -15.7289    9.4086 H   0  0  0  0  0  0  0  0  0  0  0  0
   20.6901  -16.7474    8.6001 H   0  0  0  0  0  0  0  0  0  0  0  0
   17.7510  -14.7954    6.6808 H   0  0  0  0  0  0  0  0  0  0  0  0
   19.0458  -13.8891    7.0916 H   0  0  0  0  0  0  0  0  0  0  0  0
   19.0864  -17.8652   10.0043 H   0  0  0  0  0  0  0  0  0  0  0  0
   17.9108  -17.2808    9.0331 H   0  0  0  0  0  0  0  0  0  0  0  0
   18.5853  -12.9330   11.5988 H   0  0  0  0  0  0  0  0  0  0  0  0
   16.2869  -13.3270   12.0155 H   0  0  0  0  0  0  0  0  0  0  0  0
   18.7213  -23.0915    9.2484 H   0  0  0  0  0  0  0  0  0  0  0  0
   24.0071  -20.6586    9.4077 H   0  0  0  0  0  0  0  0  0  0  0  0
   19.3176  -20.8899    8.5798 H   0  0  0  0  0  0  0  0  0  0  0  0
   19.5300  -13.5066    9.4960 H   0  0  0  0  0  0  0  0  0  0  0  0
   20.3476  -24.5772   10.0717 H   0  0  0  0  0  0  0  0  0  0  0  0
   14.9196  -14.2954   10.3390 H   0  0  0  0  0  0  0  0  0  0  0  0
   20.1427  -15.3616    7.2830 H   0  0  0  0  0  0  0  0  0  0  0  0
  1  2  2  0  0  0  0
  1  3  2  0  0  0  0
  1  7  1  0  0  0  0
  1 25  1  0  0  0  0
  4 30  1  0  0  0  0
  5 30  1  0  0  0  0
  6  9  2  0  0  0  0
  6 10  1  0  0  0  0
  7 11  1  0  0  0  0
  7 13  1  0  0  0  0
  8 12  1  0  0  0  0
  8 14  1  0  0  0  0
  8 15  1  0  0  0  0
  9 20  1  0  0  0  0
 10 26  2  0  0  0  0
 11 12  1  0  0  0  0
 13 16  1  0  0  0  0
 14 16  1  0  0  0  0
 15 27  1  0  0  0  0
 17 18  2  0  0  0  0
 17 22  1  0  0  0  0
 18 24  1  0  0  0  0
 19 21  1  0  0  0  0
 19 23  2  0  0  0  0
 20 28  2  0  0  0  0
 21 25  2  0  0  0  0
 22 27  2  0  0  0  0
 23 26  1  0  0  0  0
 24 29  2  0  0  0  0
 25 28  1  0  0  0  0
 26 28  1  0  0  0  0
 27 29  1  0  0  0  0
 29 30  1  0  0  0  0
  4 31  1  0  0  0  0
  5 32  1  0  0  0  0
  9 33  1  0  0  0  0
 10 34  1  0  0  0  0
 11 35  1  0  0  0  0
 11 36  1  0  0  0  0
 12 37  1  0  0  0  0
 12 38  1  0  0  0  0
 13 39  1  0  0  0  0
 13 40  1  0  0  0  0
 14 41  1  0  0  0  0
 14 42  1  0  0  0  0
 15 43  1  0  0  0  0
 15 44  1  0  0  0  0
 16 45  1  0  0  0  0
 16 46  1  0  0  0  0
 17 47  1  0  0  0  0
 18 48  1  0  0  0  0
 19 49  1  0  0  0  0
 20 50  1  0  0  0  0
 21 51  1  0  0  0  0
 22 52  1  0  0  0  0
 23 53  1  0  0  0  0
 24 54  1  0  0  0  0
  8 55  1  0  0  0  0
M  CHG  1   8   1
M  END
$$$$
6I2B_9LQ_A_402
prProtoss 08192303203D 1   1.00000     0.00000     0
Protoss beta proteinsplus
 51 54  0  0  0  0            999 V2000
   15.6010  -44.8330   -2.7260 S   0  0  0  0  0  0  0  0  0  0  0  0
   17.0220  -44.7360   -2.6160 O   0  0  0  0  0  0  0  0  0  0  0  0
   15.0190  -45.6050   -3.7770 O   0  0  0  0  0  0  0  0  0  0  0  0
   15.1320  -40.6480   -6.1820 N   0  0  0  0  0  0  0  0  0  0  0  0
   15.0580  -45.4630   -1.3240 N   0  0  0  0  0  0  0  0  0  0  0  0
   15.2900  -48.2150    0.1410 N   0  3  0  0  0  0  0  0  0  0  0  0
   15.6430  -41.8870   -6.2250 C   0  0  0  0  0  0  0  0  0  0  0  0
   14.5980  -40.2460   -5.0360 C   0  0  0  0  0  0  0  0  0  0  0  0
   15.9870  -45.7880   -0.2230 C   0  0  0  0  0  0  0  0  0  0  0  0
   13.7190  -46.0820   -1.3190 C   0  0  0  0  0  0  0  0  0  0  0  0
   15.5250  -46.8940    0.7330 C   0  0  0  0  0  0  0  0  0  0  0  0
   14.9830  -48.2860   -1.2780 C   0  0  0  0  0  0  0  0  0  0  0  0
   15.9290  -49.4000    0.7320 C   0  0  0  0  0  0  0  0  0  0  0  0
   13.7630  -47.5290   -1.7600 C   0  0  0  0  0  0  0  0  0  0  0  0
   20.0490  -48.6730    1.6820 C   0  0  0  0  0  0  0  0  0  0  0  0
   19.1390  -48.8410    2.7060 C   0  0  0  0  0  0  0  0  0  0  0  0
   19.6310  -48.7360    0.3770 C   0  0  0  0  0  0  0  0  0  0  0  0
   13.8450  -41.4390   -1.5890 C   0  0  0  0  0  0  0  0  0  0  0  0
   15.6440  -42.7540   -5.1730 C   0  0  0  0  0  0  0  0  0  0  0  0
   14.3640  -42.7220   -1.6420 C   0  0  0  0  0  0  0  0  0  0  0  0
   17.7830  -49.0840    2.4580 C   0  0  0  0  0  0  0  0  0  0  0  0
   18.3010  -48.9720    0.0880 C   0  0  0  0  0  0  0  0  0  0  0  0
   13.9210  -40.6100   -2.6670 C   0  0  0  0  0  0  0  0  0  0  0  0
   14.9640  -43.1810   -2.7830 C   0  0  0  0  0  0  0  0  0  0  0  0
   17.3680  -49.1520    1.1020 C   0  0  0  0  0  0  0  0  0  0  0  0
   14.5280  -41.0430   -3.8700 C   0  0  0  0  0  0  0  0  0  0  0  0
   15.0700  -42.3530   -3.9450 C   0  0  0  0  0  0  0  0  0  0  0  0
   16.0499  -42.1951   -7.0849 H   0  0  0  0  0  0  0  0  0  0  0  0
   14.2211  -39.3207   -4.9941 H   0  0  0  0  0  0  0  0  0  0  0  0
   16.1288  -44.9568    0.3146 H   0  0  0  0  0  0  0  0  0  0  0  0
   16.8550  -46.0751   -0.6282 H   0  0  0  0  0  0  0  0  0  0  0  0
   13.1252  -45.5724   -1.9417 H   0  0  0  0  0  0  0  0  0  0  0  0
   13.3462  -46.0380   -0.3921 H   0  0  0  0  0  0  0  0  0  0  0  0
   16.2258  -46.9977    1.4388 H   0  0  0  0  0  0  0  0  0  0  0  0
   14.6694  -46.5934    1.1544 H   0  0  0  0  0  0  0  0  0  0  0  0
   14.8501  -49.2497   -1.5093 H   0  0  0  0  0  0  0  0  0  0  0  0
   15.7741  -47.9299   -1.7753 H   0  0  0  0  0  0  0  0  0  0  0  0
   15.8921  -50.1486    0.0700 H   0  0  0  0  0  0  0  0  0  0  0  0
   15.4255  -49.6589    1.5563 H   0  0  0  0  0  0  0  0  0  0  0  0
   13.7533  -47.5530   -2.7597 H   0  0  0  0  0  0  0  0  0  0  0  0
   12.9483  -47.9895   -1.4076 H   0  0  0  0  0  0  0  0  0  0  0  0
   21.0124  -48.5055    1.8913 H   0  0  0  0  0  0  0  0  0  0  0  0
   19.4576  -48.7876    3.6524 H   0  0  0  0  0  0  0  0  0  0  0  0
   20.2893  -48.6110   -0.3653 H   0  0  0  0  0  0  0  0  0  0  0  0
   13.4089  -41.1172   -0.7486 H   0  0  0  0  0  0  0  0  0  0  0  0
   16.0466  -43.6643   -5.2690 H   0  0  0  0  0  0  0  0  0  0  0  0
   14.2998  -43.3171   -0.8409 H   0  0  0  0  0  0  0  0  0  0  0  0
   17.1317  -49.2050    3.2071 H   0  0  0  0  0  0  0  0  0  0  0  0
   18.0048  -49.0140   -0.8662 H   0  0  0  0  0  0  0  0  0  0  0  0
   13.5440  -39.6857   -2.6079 H   0  0  0  0  0  0  0  0  0  0  0  0
   14.3657  -48.3639    0.4923 H   0  0  0  0  0  0  0  0  0  0  0  0
  1  2  2  0  0  0  0
  1  3  2  0  0  0  0
  1  5  1  0  0  0  0
  1 24  1  0  0  0  0
  4  7  2  0  0  0  0
  4  8  1  0  0  0  0
  5  9  1  0  0  0  0
  5 10  1  0  0  0  0
  6 11  1  0  0  0  0
  6 12  1  0  0  0  0
  6 13  1  0  0  0  0
  7 19  1  0  0  0  0
  8 26  2  0  0  0  0
  9 11  1  0  0  0  0
 10 14  1  0  0  0  0
 12 14  1  0  0  0  0
 13 25  1  0  0  0  0
 15 16  2  0  0  0  0
 15 17  1  0  0  0  0
 16 21  1  0  0  0  0
 17 22  2  0  0  0  0
 18 20  1  0  0  0  0
 18 23  2  0  0  0  0
 19 27  2  0  0  0  0
 20 24  2  0  0  0  0
 21 25  2  0  0  0  0
 22 25  1  0  0  0  0
 23 26  1  0  0  0  0
 24 27  1  0  0  0  0
 26 27  1  0  0  0  0
  7 28  1  0  0  0  0
  8 29  1  0  0  0  0
  9 30  1  0  0  0  0
  9 31  1  0  0  0  0
 10 32  1  0  0  0  0
 10 33  1  0  0  0  0
 11 34  1  0  0  0  0
 11 35  1  0  0  0  0
 12 36  1  0  0  0  0
 12 37  1  0  0  0  0
 13 38  1  0  0  0  0
 13 39  1  0  0  0  0
 14 40  1  0  0  0  0
 14 41  1  0  0  0  0
 15 42  1  0  0  0  0
 16 43  1  0  0  0  0
 17 44  1  0  0  0  0
 18 45  1  0  0  0  0
 19 46  1  0  0  0  0
 20 47  1  0  0  0  0
 21 48  1  0  0  0  0
 22 49  1  0  0  0  0
 23 50  1  0  0  0  0
  6 51  1  0  0  0  0
M  CHG  1   6   1
M  END
$$$$
6I2B_RIP_D_101
prProtoss 08192303203D 1   1.00000     0.00000     0
Protoss beta proteinsplus
 16 16  0  0  0  0            999 V2000
   29.1850   -6.6190   -4.6230 O   0  0  0  0  0  0  0  0  0  0  0  0
   28.1600   -5.8990   -5.3080 C   0  0  1  0  0  0  0  0  0  0  0  0
   29.9650   -5.8050   -3.7380 C   0  0  0  0  0  0  0  0  0  0  0  0
   27.7620   -4.6520   -4.5260 C   0  0  0  0  0  0  0  0  0  0  0  0
   30.2380   -4.4430   -4.3480 C   0  0  0  0  0  0  0  0  0  0  0  0
   28.9300   -3.6790   -4.4750 C   0  0  0  0  0  0  0  0  0  0  0  0
   28.4774   -5.6412   -6.2206 H   0  0  0  0  0  0  0  0  0  0  0  0
   30.8357   -6.2619   -3.5560 H   0  0  0  0  0  0  0  0  0  0  0  0
   29.4660   -5.6846   -2.8798 H   0  0  0  0  0  0  0  0  0  0  0  0
   27.5060   -4.9120   -3.5949 H   0  0  0  0  0  0  0  0  0  0  0  0
   26.9840   -4.2130   -4.9753 H   0  0  0  0  0  0  0  0  0  0  0  0
   30.6470   -4.5582   -5.2532 H   0  0  0  0  0  0  0  0  0  0  0  0
   30.8668   -3.9337   -3.7605 H   0  0  0  0  0  0  0  0  0  0  0  0
   28.8223   -3.0734   -3.6865 H   0  0  0  0  0  0  0  0  0  0  0  0
   28.9445   -3.1348   -5.3138 H   0  0  0  0  0  0  0  0  0  0  0  0
   27.2050   -6.8810   -5.4060 R#  0  0  0  0  0  0  0  0  0  0  0  0
  5  6  1  0  0  0  0
  2 16  1  0  0  0  0
  1  2  1  0  0  0  0
  1  3  1  0  0  0  0
  2  4  1  0  0  0  0
  3  5  1  0  0  0  0
  4  6  1  0  0  0  0
  2  7  1  0  0  0  0
  3  8  1  0  0  0  0
  3  9  1  0  0  0  0
  4 10  1  0  0  0  0
  4 11  1  0  0  0  0
  5 12  1  0  0  0  0
  5 13  1  0  0  0  0
  6 14  1  0  0  0  0
  6 15  1  0  0  0  0
M  RGP  1  16   1
M  END
$$$$
6I2D_9LQ_A_401
prProtoss 08192303203D 1   1.00000     0.00000     0
Protoss beta proteinsplus
 55 58  0  0  0  0            999 V2000
  -19.2880   21.7930   -7.4660 S   0  0  0  0  0  0  0  0  0  0  0  0
  -19.5600   22.7700   -6.4600 O   0  0  0  0  0  0  0  0  0  0  0  0
  -18.4210   22.1240   -8.5520 O   0  0  0  0  0  0  0  0  0  0  0  0
  -13.7290   14.6090   -5.8770 O   0  0  0  0  0  0  0  0  0  0  0  0
  -15.2500   16.1910   -5.3760 O   0  0  0  0  0  0  0  0  0  0  0  0
  -23.6470   24.1070   -9.5600 N   0  0  0  0  0  0  0  0  0  0  0  0
  -18.6290   20.4990   -6.7100 N   0  0  0  0  0  0  0  0  0  0  0  0
  -15.7170   18.8560   -6.0500 N   0  3  0  0  0  0  0  0  0  0  0  0
  -22.4060   24.4870   -9.2240 C   0  0  0  0  0  0  0  0  0  0  0  0
  -23.9600   22.8230   -9.4220 C   0  0  0  0  0  0  0  0  0  0  0  0
  -18.0150   20.2660   -5.3830 C   0  0  0  0  0  0  0  0  0  0  0  0
  -16.3520   19.9120   -5.2520 C   0  0  0  0  0  0  0  0  0  0  0  0
  -18.3220   19.5840   -7.8230 C   0  0  0  0  0  0  0  0  0  0  0  0
  -16.6600   18.1060   -6.8090 C   0  0  0  0  0  0  0  0  0  0  0  0
  -14.3170   18.8990   -6.4940 C   0  0  0  0  0  0  0  0  0  0  0  0
  -16.9120   19.1460   -7.8440 C   0  0  0  0  0  0  0  0  0  0  0  0
  -13.2830   17.8640   -9.9800 C   0  0  0  0  0  0  0  0  0  0  0  0
  -13.4560   16.5020   -9.9550 C   0  0  0  0  0  0  0  0  0  0  0  0
  -22.4940   19.5590   -8.3700 C   0  0  0  0  0  0  0  0  0  0  0  0
  -21.4550   23.6400   -8.7400 C   0  0  0  0  0  0  0  0  0  0  0  0
  -21.2170   19.9640   -8.0030 C   0  0  0  0  0  0  0  0  0  0  0  0
  -13.5570   18.6140   -8.8460 C   0  0  0  0  0  0  0  0  0  0  0  0
  -23.4020   20.4620   -8.8370 C   0  0  0  0  0  0  0  0  0  0  0  0
  -13.8670   15.8770   -8.7890 C   0  0  0  0  0  0  0  0  0  0  0  0
  -20.8540   21.2820   -8.1000 C   0  0  0  0  0  0  0  0  0  0  0  0
  -23.0650   21.8350   -8.9560 C   0  0  0  0  0  0  0  0  0  0  0  0
  -13.9920   18.0050   -7.6720 C   0  0  0  0  0  0  0  0  0  0  0  0
  -21.7620   22.2650   -8.5930 C   0  0  0  0  0  0  0  0  0  0  0  0
  -14.1070   16.5960   -7.6080 C   0  0  0  0  0  0  0  0  0  0  0  0
  -14.3470   15.7560   -6.2840 B   0  0  0  0  0  0  0  0  0  0  0  0
  -13.0711   14.3200   -6.5724 H   0  0  0  0  0  0  0  0  0  0  0  0
  -15.9496   15.4897   -5.2392 H   0  0  0  0  0  0  0  0  0  0  0  0
  -22.1636   25.4508   -9.3354 H   0  0  0  0  0  0  0  0  0  0  0  0
  -24.8878   22.5384   -9.6633 H   0  0  0  0  0  0  0  0  0  0  0  0
  -18.5052   19.4980   -4.9709 H   0  0  0  0  0  0  0  0  0  0  0  0
  -18.1759   21.0923   -4.8433 H   0  0  0  0  0  0  0  0  0  0  0  0
  -15.8673   20.7587   -5.4715 H   0  0  0  0  0  0  0  0  0  0  0  0
  -16.1909   19.6744   -4.2941 H   0  0  0  0  0  0  0  0  0  0  0  0
  -18.5222   20.0521   -8.6837 H   0  0  0  0  0  0  0  0  0  0  0  0
  -18.9047   18.7756   -7.7398 H   0  0  0  0  0  0  0  0  0  0  0  0
  -17.4809   17.8786   -6.2851 H   0  0  0  0  0  0  0  0  0  0  0  0
  -16.2669   17.2701   -7.1921 H   0  0  0  0  0  0  0  0  0  0  0  0
  -13.7393   18.6226   -5.7260 H   0  0  0  0  0  0  0  0  0  0  0  0
  -14.1017   19.8412   -6.7508 H   0  0  0  0  0  0  0  0  0  0  0  0
  -16.3223   19.9338   -7.6661 H   0  0  0  0  0  0  0  0  0  0  0  0
  -16.7005   18.7681   -8.7454 H   0  0  0  0  0  0  0  0  0  0  0  0
  -12.9605   18.3136  -10.8130 H   0  0  0  0  0  0  0  0  0  0  0  0
  -13.2853   15.9612  -10.7786 H   0  0  0  0  0  0  0  0  0  0  0  0
  -22.7497   18.5955   -8.2908 H   0  0  0  0  0  0  0  0  0  0  0  0
  -20.5501   23.9852   -8.4912 H   0  0  0  0  0  0  0  0  0  0  0  0
  -20.5591   19.2904   -7.6663 H   0  0  0  0  0  0  0  0  0  0  0  0
  -13.4404   19.6068   -8.8720 H   0  0  0  0  0  0  0  0  0  0  0  0
  -24.3164   20.1531   -9.0988 H   0  0  0  0  0  0  0  0  0  0  0  0
  -13.9963   14.8854   -8.7889 H   0  0  0  0  0  0  0  0  0  0  0  0
  -15.5950   18.1943   -5.3102 H   0  0  0  0  0  0  0  0  0  0  0  0
  1  2  2  0  0  0  0
  1  3  2  0  0  0  0
  1  7  1  0  0  0  0
  1 25  1  0  0  0  0
  4 30  1  0  0  0  0
  5 30  1  0  0  0  0
  6  9  2  0  0  0  0
  6 10  1  0  0  0  0
  7 11  1  0  0  0  0
  7 13  1  0  0  0  0
  8 12  1  0  0  0  0
  8 14  1  0  0  0  0
  8 15  1  0  0  0  0
  9 20  1  0  0  0  0
 10 26  2  0  0  0  0
 11 12  1  0  0  0  0
 13 16  1  0  0  0  0
 14 16  1  0  0  0  0
 15 27  1  0  0  0  0
 17 18  2  0  0  0  0
 17 22  1  0  0  0  0
 18 24  1  0  0  0  0
 19 21  1  0  0  0  0
 19 23  2  0  0  0  0
 20 28  2  0  0  0  0
 21 25  2  0  0  0  0
 22 27  2  0  0  0  0
 23 26  1  0  0  0  0
 24 29  2  0  0  0  0
 25 28  1  0  0  0  0
 26 28  1  0  0  0  0
 27 29  1  0  0  0  0
 29 30  1  0  0  0  0
  4 31  1  0  0  0  0
  5 32  1  0  0  0  0
  9 33  1  0  0  0  0
 10 34  1  0  0  0  0
 11 35  1  0  0  0  0
 11 36  1  0  0  0  0
 12 37  1  0  0  0  0
 12 38  1  0  0  0  0
 13 39  1  0  0  0  0
 13 40  1  0  0  0  0
 14 41  1  0  0  0  0
 14 42  1  0  0  0  0
 15 43  1  0  0  0  0
 15 44  1  0  0  0  0
 16 45  1  0  0  0  0
 16 46  1  0  0  0  0
 17 47  1  0  0  0  0
 18 48  1  0  0  0  0
 19 49  1  0  0  0  0
 20 50  1  0  0  0  0
 21 51  1  0  0  0  0
 22 52  1  0  0  0  0
 23 53  1  0  0  0  0
 24 54  1  0  0  0  0
  8 55  1  0  0  0  0
M  CHG  1   8   1
M  END
$$$$
2QUR_ADP_B_1
prProtoss 05262315563D 1   1.00000     0.00000     0
Protoss beta proteinsplus
 39 41  0  0  0  0            999 V2000
   25.2090    8.3530   34.4700 P   0  0  0  0  0  0  0  0  0  0  0  0
   25.7990    6.7010   36.6270 P   0  0  0  0  0  0  0  0  0  0  0  0
   25.3300    7.9140   33.0460 O   0  0  0  0  0  0  0  0  0  0  0  0
   24.1510    9.4060   34.5570 O   0  5  0  0  0  0  0  0  0  0  0  0
   26.6290    8.9540   34.9590 O   0  5  0  0  0  0  0  0  0  0  0  0
   27.1580    6.3740   36.0930 O   0  0  0  0  0  0  0  0  0  0  0  0
   25.8880    7.8290   37.5900 O   0  5  0  0  0  0  0  0  0  0  0  0
   21.3100    2.6490   35.6530 O   0  0  0  0  0  0  0  0  0  0  0  0
   23.5140    4.1880   35.0300 O   0  0  0  0  0  0  0  0  0  0  0  0
   24.7740    7.0710   35.3950 O   0  0  0  0  0  0  0  0  0  0  0  0
   25.2230    5.4370   37.4010 O   0  0  0  0  0  0  0  0  0  0  0  0
   21.7670    4.4620   38.1360 O   0  0  0  0  0  0  0  0  0  0  0  0
   16.0140    8.0160   38.1170 N   0  0  0  0  0  0  0  0  0  0  0  0
   15.7960    5.7320   37.9380 N   0  0  0  0  0  0  0  0  0  0  0  0
   17.6410    4.2300   37.5740 N   0  0  0  0  0  0  0  0  0  0  0  0
   19.0210    7.5300   37.6770 N   0  0  0  0  0  0  0  0  0  0  0  0
   19.7630    5.4230   37.4220 N   0  0  0  0  0  0  0  0  0  0  0  0
   23.9340    5.4980   38.0050 C   0  0  0  0  0  0  0  0  0  0  0  0
   16.3630    4.5360   37.7610 C   0  0  0  0  0  0  0  0  0  0  0  0
   20.0640    6.7630   37.4830 C   0  0  0  0  0  0  0  0  0  0  0  0
   21.2220    4.0460   35.8600 C   0  0  2  0  0  0  0  0  0  0  0  0
   22.5790    4.7390   35.9460 C   0  0  1  0  0  0  0  0  0  0  0  0
   20.6690    4.2820   37.2640 C   0  0  1  0  0  0  0  0  0  0  0  0
   16.5810    6.8260   37.9340 C   0  0  0  0  0  0  0  0  0  0  0  0
   23.0070    4.4700   37.3820 C   0  0  2  0  0  0  0  0  0  0  0  0
   18.3980    5.3410   37.5710 C   0  0  0  0  0  0  0  0  0  0  0  0
   17.9580    6.6400   37.7370 C   0  0  0  0  0  0  0  0  0  0  0  0
   20.3898    2.2603   35.6067 H   0  0  0  0  0  0  0  0  0  0  0  0
   23.1680    4.2918   34.0975 H   0  0  0  0  0  0  0  0  0  0  0  0
   16.5763    8.8429   38.1181 H   0  0  0  0  0  0  0  0  0  0  0  0
   15.0256    8.0833   38.2534 H   0  0  0  0  0  0  0  0  0  0  0  0
   23.5503    6.4116   37.8706 H   0  0  0  0  0  0  0  0  0  0  0  0
   24.0201    5.3133   38.9840 H   0  0  0  0  0  0  0  0  0  0  0  0
   15.7340    3.7587   37.7707 H   0  0  0  0  0  0  0  0  0  0  0  0
   20.9937    7.1189   37.3880 H   0  0  0  0  0  0  0  0  0  0  0  0
   20.6419    4.4761   35.1682 H   0  0  0  0  0  0  0  0  0  0  0  0
   22.4782    5.7218   35.7913 H   0  0  0  0  0  0  0  0  0  0  0  0
   20.1804    3.4568   37.5473 H   0  0  0  0  0  0  0  0  0  0  0  0
   23.4321    3.5665   37.4360 H   0  0  0  0  0  0  0  0  0  0  0  0
  1  3  2  0  0  0  0
  1  4  1  0  0  0  0
  1  5  1  0  0  0  0
  1 10  1  0  0  0  0
  2  6  2  0  0  0  0
  2  7  1  0  0  0  0
  2 10  1  0  0  0  0
  2 11  1  0  0  0  0
  8 21  1  0  0  0  0
  9 22  1  0  0  0  0
 11 18  1  0  0  0  0
 12 23  1  0  0  0  0
 12 25  1  0  0  0  0
 13 24  1  0  0  0  0
 14 19  1  0  0  0  0
 14 24  2  0  0  0  0
 15 19  2  0  0  0  0
 15 26  1  0  0  0  0
 16 20  2  0  0  0  0
 16 27  1  0  0  0  0
 17 20  1  0  0  0  0
 17 23  1  0  0  0  0
 17 26  1  0  0  0  0
 18 25  1  0  0  0  0
 21 22  1  0  0  0  0
 21 23  1  0  0  0  0
 22 25  1  0  0  0  0
 24 27  1  0  0  0  0
 26 27  2  0  0  0  0
 25 39  1  0  0  0  0
 23 38  1  0  0  0  0
 22 37  1  0  0  0  0
  8 28  1  0  0  0  0
  9 29  1  0  0  0  0
 13 30  1  0  0  0  0
 13 31  1  0  0  0  0
 18 32  1  0  0  0  0
 18 33  1  0  0  0  0
 19 34  1  0  0  0  0
 20 35  1  0  0  0  0
 21 36  1  0  0  0  0
M  CHG  3   4  -1   5  -1   7  -1
M  END
$$$$
4DH5_ADP_A_403
prProtoss 08292320043D 1   1.00000     0.00000     0
Protoss beta proteinsplus
 39 41  0  0  0  0            999 V2000
   -2.7900   11.3590  -13.6130 P   0  0  0  0  0  0  0  0  0  0  0  0
   -5.6000   10.6020  -13.8310 P   0  0  0  0  0  0  0  0  0  0  0  0
   -3.1540   12.7450  -14.0500 O   0  0  0  0  0  0  0  0  0  0  0  0
   -1.6980   11.2150  -12.5770 O   0  5  0  0  0  0  0  0  0  0  0  0
   -2.4720   10.5860  -14.8300 O   0  5  0  0  0  0  0  0  0  0  0  0
   -6.3710   11.7920  -13.4800 O   0  0  0  0  0  0  0  0  0  0  0  0
   -5.4910   10.3630  -15.2840 O   0  5  0  0  0  0  0  0  0  0  0  0
   -7.4000    4.3110  -14.5600 O   0  0  0  0  0  0  0  0  0  0  0  0
   -6.0170    6.4570  -15.9750 O   0  0  0  0  0  0  0  0  0  0  0  0
   -4.1330   10.7020  -13.1420 O   0  0  0  0  0  0  0  0  0  0  0  0
   -6.1310    9.2760  -13.1550 O   0  0  0  0  0  0  0  0  0  0  0  0
   -6.9500    6.7220  -12.4810 O   0  0  0  0  0  0  0  0  0  0  0  0
  -13.4400    8.9900  -12.1170 N   0  0  0  0  0  0  0  0  0  0  0  0
  -13.3150    6.6480  -12.1480 N   0  0  0  0  0  0  0  0  0  0  0  0
  -11.2440    5.3830  -12.4740 N   0  0  0  0  0  0  0  0  0  0  0  0
  -10.3410    8.8800  -12.5940 N   0  0  0  0  0  0  0  0  0  0  0  0
   -9.2890    6.8810  -12.7640 N   0  0  0  0  0  0  0  0  0  0  0  0
   -5.2310    8.1520  -13.3220 C   0  0  0  0  0  0  0  0  0  0  0  0
  -12.5770    5.4900  -12.2680 C   0  0  0  0  0  0  0  0  0  0  0  0
   -9.2040    8.2560  -12.7690 C   0  0  0  0  0  0  0  0  0  0  0  0
   -7.7870    5.6520  -14.3800 C   0  0  2  0  0  0  0  0  0  0  0  0
   -6.7810    6.7260  -14.8180 C   0  0  1  0  0  0  0  0  0  0  0  0
   -8.0880    5.9960  -12.9500 C   0  0  1  0  0  0  0  0  0  0  0  0
  -12.6910    7.8720  -12.2390 C   0  0  0  0  0  0  0  0  0  0  0  0
   -5.9560    6.8580  -13.5420 C   0  0  2  0  0  0  0  0  0  0  0  0
  -10.6290    6.6210  -12.5620 C   0  0  0  0  0  0  0  0  0  0  0  0
  -11.2610    7.8780  -12.4570 C   0  0  0  0  0  0  0  0  0  0  0  0
   -6.7869    4.2438  -15.3471 H   0  0  0  0  0  0  0  0  0  0  0  0
   -6.6285    6.3280  -16.7557 H   0  0  0  0  0  0  0  0  0  0  0  0
  -13.0087    9.8901  -12.1796 H   0  0  0  0  0  0  0  0  0  0  0  0
  -14.4256    8.9173  -11.9641 H   0  0  0  0  0  0  0  0  0  0  0  0
   -4.6684    8.0677  -12.4996 H   0  0  0  0  0  0  0  0  0  0  0  0
   -4.6430    8.3275  -14.1116 H   0  0  0  0  0  0  0  0  0  0  0  0
  -13.0844    4.6314  -12.1945 H   0  0  0  0  0  0  0  0  0  0  0  0
   -8.3387    8.7408  -12.8967 H   0  0  0  0  0  0  0  0  0  0  0  0
   -8.6257    5.7949  -14.9055 H   0  0  0  0  0  0  0  0  0  0  0  0
   -7.2776    7.5821  -14.9612 H   0  0  0  0  0  0  0  0  0  0  0  0
   -8.1988    5.1578  -12.4160 H   0  0  0  0  0  0  0  0  0  0  0  0
   -5.3061    6.1000  -13.4871 H   0  0  0  0  0  0  0  0  0  0  0  0
  1  3  2  0  0  0  0
  1  4  1  0  0  0  0
  1  5  1  0  0  0  0
  1 10  1  0  0  0  0
  2  6  2  0  0  0  0
  2  7  1  0  0  0  0
  2 10  1  0  0  0  0
  2 11  1  0  0  0  0
  8 21  1  0  0  0  0
  9 22  1  0  0  0  0
 11 18  1  0  0  0  0
 12 23  1  0  0  0  0
 12 25  1  0  0  0  0
 13 24  1  0  0  0  0
 14 19  1  0  0  0  0
 14 24  2  0  0  0  0
 15 19  2  0  0  0  0
 15 26  1  0  0  0  0
 16 20  2  0  0  0  0
 16 27  1  0  0  0  0
 17 20  1  0  0  0  0
 17 23  1  0  0  0  0
 17 26  1  0  0  0  0
 18 25  1  0  0  0  0
 21 22  1  0  0  0  0
 21 23  1  0  0  0  0
 22 25  1  0  0  0  0
 24 27  1  0  0  0  0
 26 27  2  0  0  0  0
 25 39  1  0  0  0  0
 23 38  1  0  0  0  0
 22 37  1  0  0  0  0
  8 28  1  0  0  0  0
  9 29  1  0  0  0  0
 13 30  1  0  0  0  0
 13 31  1  0  0  0  0
 18 32  1  0  0  0  0
 18 33  1  0  0  0  0
 19 34  1  0  0  0  0
 20 35  1  0  0  0  0
 21 36  1  0  0  0  0
M  CHG  3   4  -1   5  -1   7  -1
M  END
$$$$
4DH5_PO4_A_404
prProtoss 08292320043D 1   1.00000     0.00000     0
Protoss beta proteinsplus
  5  4  0  0  0  0            999 V2000
   -1.0170   11.3740  -17.9760 P   0  0  0  0  0  0  0  0  0  0  0  0
   -0.2350   12.0400  -19.2980 O   0  0  0  0  0  0  0  0  0  0  0  0
   -0.2150   10.0800  -17.3670 O   0  5  0  0  0  0  0  0  0  0  0  0
   -1.0130   12.4820  -16.8710 O   0  5  0  0  0  0  0  0  0  0  0  0
   -2.4890   10.8560  -18.3440 O   0  5  0  0  0  0  0  0  0  0  0  0
  1  2  2  0  0  0  0
  1  3  1  0  0  0  0
  1  4  1  0  0  0  0
  1  5  1  0  0  0  0
M  CHG  3   3  -1   4  -1   5  -1
M  END
$$$$
4IAD_ADP_A_403
prProtoss 05262315483D 1   1.00000     0.00000     0
Protoss beta proteinsplus
 39 41  0  0  0  0            999 V2000
   -3.1230   11.4710  -13.7300 P   0  0  0  0  0  0  0  0  0  0  0  0
   -5.7570   10.6670  -13.9010 P   0  0  0  0  0  0  0  0  0  0  0  0
   -3.0600   12.9440  -14.0300 O   0  0  0  0  0  0  0  0  0  0  0  0
   -1.9850   11.1710  -12.6240 O   0  5  0  0  0  0  0  0  0  0  0  0
   -2.8260   10.6490  -15.0630 O   0  5  0  0  0  0  0  0  0  0  0  0
   -6.8990   11.6030  -13.7300 O   0  0  0  0  0  0  0  0  0  0  0  0
   -5.4890   10.3710  -15.4280 O   0  5  0  0  0  0  0  0  0  0  0  0
   -7.2360    4.6050  -14.5590 O   0  0  0  0  0  0  0  0  0  0  0  0
   -5.8610    6.7240  -15.8360 O   0  0  0  0  0  0  0  0  0  0  0  0
   -4.5180   11.1250  -13.0670 O   0  0  0  0  0  0  0  0  0  0  0  0
   -6.3240    9.3100  -13.1720 O   0  0  0  0  0  0  0  0  0  0  0  0
   -6.9880    6.7690  -12.4050 O   0  0  0  0  0  0  0  0  0  0  0  0
  -13.5630    8.8870  -12.3380 N   0  0  0  0  0  0  0  0  0  0  0  0
  -13.2400    6.5520  -12.2230 N   0  0  0  0  0  0  0  0  0  0  0  0
  -11.1810    5.5490  -12.4900 N   0  0  0  0  0  0  0  0  0  0  0  0
  -10.5030    8.9380  -12.8610 N   0  0  0  0  0  0  0  0  0  0  0  0
   -9.3020    7.1150  -12.9340 N   0  0  0  0  0  0  0  0  0  0  0  0
   -5.2840    8.3400  -13.1750 C   0  0  0  0  0  0  0  0  0  0  0  0
  -12.4770    5.4770  -12.2710 C   0  0  0  0  0  0  0  0  0  0  0  0
   -9.2940    8.4700  -13.0180 C   0  0  0  0  0  0  0  0  0  0  0  0
   -7.8060    5.9230  -14.4970 C   0  0  2  0  0  0  0  0  0  0  0  0
   -6.7400    7.0270  -14.7550 C   0  0  1  0  0  0  0  0  0  0  0  0
   -8.1590    6.2030  -13.0120 C   0  0  1  0  0  0  0  0  0  0  0  0
  -12.7340    7.7730  -12.4110 C   0  0  0  0  0  0  0  0  0  0  0  0
   -5.9660    6.9840  -13.4100 C   0  0  2  0  0  0  0  0  0  0  0  0
  -10.5870    6.7270  -12.6380 C   0  0  0  0  0  0  0  0  0  0  0  0
  -11.3510    7.9040  -12.5990 C   0  0  0  0  0  0  0  0  0  0  0  0
   -6.8417    4.4546  -15.4656 H   0  0  0  0  0  0  0  0  0  0  0  0
   -6.3915    6.6165  -16.6769 H   0  0  0  0  0  0  0  0  0  0  0  0
  -13.1846    9.8019  -12.4787 H   0  0  0  0  0  0  0  0  0  0  0  0
  -14.5375    8.7732  -12.1448 H   0  0  0  0  0  0  0  0  0  0  0  0
   -4.8065    8.3406  -12.2964 H   0  0  0  0  0  0  0  0  0  0  0  0
   -4.6323    8.5323  -13.9087 H   0  0  0  0  0  0  0  0  0  0  0  0
  -12.8963    4.5791  -12.1368 H   0  0  0  0  0  0  0  0  0  0  0  0
   -8.4801    9.0288  -13.1771 H   0  0  0  0  0  0  0  0  0  0  0  0
   -8.6000    6.0185  -15.0973 H   0  0  0  0  0  0  0  0  0  0  0  0
   -7.1745    7.9178  -14.8879 H   0  0  0  0  0  0  0  0  0  0  0  0
   -8.3876    5.3428  -12.5562 H   0  0  0  0  0  0  0  0  0  0  0  0
   -5.2969    6.2408  -13.4053 H   0  0  0  0  0  0  0  0  0  0  0  0
  1  3  2  0  0  0  0
  1  4  1  0  0  0  0
  1  5  1  0  0  0  0
  1 10  1  0  0  0  0
  2  6  2  0  0  0  0
  2  7  1  0  0  0  0
  2 10  1  0  0  0  0
  2 11  1  0  0  0  0
  8 21  1  0  0  0  0
  9 22  1  0  0  0  0
 11 18  1  0  0  0  0
 12 23  1  0  0  0  0
 12 25  1  0  0  0  0
 13 24  1  0  0  0  0
 14 19  1  0  0  0  0
 14 24  2  0  0  0  0
 15 19  2  0  0  0  0
 15 26  1  0  0  0  0
 16 20  2  0  0  0  0
 16 27  1  0  0  0  0
 17 20  1  0  0  0  0
 17 23  1  0  0  0  0
 17 26  1  0  0  0  0
 18 25  1  0  0  0  0
 21 22  1  0  0  0  0
 21 23  1  0  0  0  0
 22 25  1  0  0  0  0
 24 27  1  0  0  0  0
 26 27  2  0  0  0  0
 25 39  1  0  0  0  0
 23 38  1  0  0  0  0
 22 37  1  0  0  0  0
  8 28  1  0  0  0  0
  9 29  1  0  0  0  0
 13 30  1  0  0  0  0
 13 31  1  0  0  0  0
 18 32  1  0  0  0  0
 18 33  1  0  0  0  0
 19 34  1  0  0  0  0
 20 35  1  0  0  0  0
 21 36  1  0  0  0  0
M  CHG  3   4  -1   5  -1   7  -1
M  END
$$$$
4IAF_ADP_A_403
prProtoss 05262315473D 1   1.00000     0.00000     0
Protoss beta proteinsplus
 39 41  0  0  0  0            999 V2000
   -2.5240   11.3560  -13.6470 P   0  0  0  0  0  0  0  0  0  0  0  0
   -5.3290   10.6210  -13.9220 P   0  0  0  0  0  0  0  0  0  0  0  0
   -2.5960   12.8220  -13.9430 O   0  0  0  0  0  0  0  0  0  0  0  0
   -1.4900   10.8940  -12.6570 O   0  5  0  0  0  0  0  0  0  0  0  0
   -2.3770   10.6550  -14.9400 O   0  5  0  0  0  0  0  0  0  0  0  0
   -6.2360   11.7510  -13.7290 O   0  0  0  0  0  0  0  0  0  0  0  0
   -5.0800   10.2820  -15.3470 O   0  5  0  0  0  0  0  0  0  0  0  0
   -7.1010    4.3400  -14.4730 O   0  0  0  0  0  0  0  0  0  0  0  0
   -5.7000    6.4210  -15.9480 O   0  0  0  0  0  0  0  0  0  0  0  0
   -3.9540   10.9390  -13.1590 O   0  0  0  0  0  0  0  0  0  0  0  0
   -5.7890    9.3160  -13.1490 O   0  0  0  0  0  0  0  0  0  0  0  0
   -6.6110    6.7810  -12.4460 O   0  0  0  0  0  0  0  0  0  0  0  0
  -13.0900    9.1530  -12.0340 N   0  0  0  0  0  0  0  0  0  0  0  0
  -12.9730    6.8090  -12.0080 N   0  0  0  0  0  0  0  0  0  0  0  0
  -10.9240    5.5130  -12.3390 N   0  0  0  0  0  0  0  0  0  0  0  0
   -9.9840    9.0050  -12.5680 N   0  0  0  0  0  0  0  0  0  0  0  0
   -8.9550    6.9810  -12.7030 N   0  0  0  0  0  0  0  0  0  0  0  0
   -4.8870    8.1900  -13.3130 C   0  0  0  0  0  0  0  0  0  0  0  0
  -12.2500    5.6360  -12.1110 C   0  0  0  0  0  0  0  0  0  0  0  0
   -8.8550    8.3580  -12.7480 C   0  0  0  0  0  0  0  0  0  0  0  0
   -7.4810    5.6870  -14.3200 C   0  0  2  0  0  0  0  0  0  0  0  0
   -6.4580    6.7350  -14.7880 C   0  0  1  0  0  0  0  0  0  0  0  0
   -7.7630    6.0690  -12.8930 C   0  0  1  0  0  0  0  0  0  0  0  0
  -12.3430    8.0250  -12.1420 C   0  0  0  0  0  0  0  0  0  0  0  0
   -5.6210    6.8890  -13.5130 C   0  0  2  0  0  0  0  0  0  0  0  0
  -10.2990    6.7430  -12.4740 C   0  0  0  0  0  0  0  0  0  0  0  0
  -10.9170    8.0120  -12.3870 C   0  0  0  0  0  0  0  0  0  0  0  0
   -6.4901    4.2533  -15.2600 H   0  0  0  0  0  0  0  0  0  0  0  0
   -6.3175    6.2828  -16.7224 H   0  0  0  0  0  0  0  0  0  0  0  0
  -12.6576   10.0499  -12.1272 H   0  0  0  0  0  0  0  0  0  0  0  0
  -14.0728    9.0872  -11.8612 H   0  0  0  0  0  0  0  0  0  0  0  0
   -4.3163    8.1142  -12.4953 H   0  0  0  0  0  0  0  0  0  0  0  0
   -4.3068    8.3570  -14.1101 H   0  0  0  0  0  0  0  0  0  0  0  0
  -12.7645    4.7850  -12.0052 H   0  0  0  0  0  0  0  0  0  0  0  0
   -7.9866    8.8280  -12.9061 H   0  0  0  0  0  0  0  0  0  0  0  0
   -8.3212    5.8272  -14.8439 H   0  0  0  0  0  0  0  0  0  0  0  0
   -6.9417    7.5947  -14.9520 H   0  0  0  0  0  0  0  0  0  0  0  0
   -7.8815    5.2430  -12.3419 H   0  0  0  0  0  0  0  0  0  0  0  0
   -4.9749    6.1288  -13.4454 H   0  0  0  0  0  0  0  0  0  0  0  0
  1  3  2  0  0  0  0
  1  4  1  0  0  0  0
  1  5  1  0  0  0  0
  1 10  1  0  0  0  0
  2  6  2  0  0  0  0
  2  7  1  0  0  0  0
  2 10  1  0  0  0  0
  2 11  1  0  0  0  0
  8 21  1  0  0  0  0
  9 22  1  0  0  0  0
 11 18  1  0  0  0  0
 12 23  1  0  0  0  0
 12 25  1  0  0  0  0
 13 24  1  0  0  0  0
 14 19  1  0  0  0  0
 14 24  2  0  0  0  0
 15 19  2  0  0  0  0
 15 26  1  0  0  0  0
 16 20  2  0  0  0  0
 16 27  1  0  0  0  0
 17 20  1  0  0  0  0
 17 23  1  0  0  0  0
 17 26  1  0  0  0  0
 18 25  1  0  0  0  0
 21 22  1  0  0  0  0
 21 23  1  0  0  0  0
 22 25  1  0  0  0  0
 24 27  1  0  0  0  0
 26 27  2  0  0  0  0
 25 39  1  0  0  0  0
 23 38  1  0  0  0  0
 22 37  1  0  0  0  0
  8 28  1  0  0  0  0
  9 29  1  0  0  0  0
 13 30  1  0  0  0  0
 13 31  1  0  0  0  0
 18 32  1  0  0  0  0
 18 33  1  0  0  0  0
 19 34  1  0  0  0  0
 20 35  1  0  0  0  0
 21 36  1  0  0  0  0
M  CHG  3   4  -1   5  -1   7  -1
M  END
$$$$
4IAI_ADP_A_403
prProtoss 05262315273D 1   1.00000     0.00000     0
Protoss beta proteinsplus
 39 41  0  0  0  0            999 V2000
   -2.8520   11.4300  -13.4860 P   0  0  0  0  0  0  0  0  0  0  0  0
   -5.5360   10.5570  -13.8160 P   0  0  0  0  0  0  0  0  0  0  0  0
   -2.9300   12.9140  -13.6990 O   0  0  0  0  0  0  0  0  0  0  0  0
   -1.8600   11.1530  -12.2470 O   0  5  0  0  0  0  0  0  0  0  0  0
   -2.4100   10.5780  -14.7200 O   0  5  0  0  0  0  0  0  0  0  0  0
   -6.5820   11.5980  -13.5620 O   0  0  0  0  0  0  0  0  0  0  0  0
   -5.1980   10.3210  -15.3180 O   0  5  0  0  0  0  0  0  0  0  0  0
   -7.1520    4.4050  -14.4360 O   0  0  0  0  0  0  0  0  0  0  0  0
   -5.8570    6.5050  -15.8870 O   0  0  0  0  0  0  0  0  0  0  0  0
   -4.2730   10.9450  -12.9450 O   0  0  0  0  0  0  0  0  0  0  0  0
   -6.0830    9.2190  -13.1160 O   0  0  0  0  0  0  0  0  0  0  0  0
   -6.9300    6.5970  -12.4290 O   0  0  0  0  0  0  0  0  0  0  0  0
  -13.3530    9.0170  -12.2420 N   0  0  0  0  0  0  0  0  0  0  0  0
  -13.1230    6.6390  -12.1850 N   0  0  0  0  0  0  0  0  0  0  0  0
  -11.1330    5.5350  -12.4600 N   0  0  0  0  0  0  0  0  0  0  0  0
  -10.3570    8.9180  -12.8970 N   0  0  0  0  0  0  0  0  0  0  0  0
   -9.2180    7.0380  -12.9300 N   0  0  0  0  0  0  0  0  0  0  0  0
   -5.1670    8.1370  -13.1990 C   0  0  0  0  0  0  0  0  0  0  0  0
  -12.4320    5.5060  -12.2260 C   0  0  0  0  0  0  0  0  0  0  0  0
   -9.1660    8.3950  -13.0370 C   0  0  0  0  0  0  0  0  0  0  0  0
   -7.7500    5.7280  -14.4670 C   0  0  2  0  0  0  0  0  0  0  0  0
   -6.7220    6.8310  -14.7840 C   0  0  1  0  0  0  0  0  0  0  0  0
   -8.1250    6.0610  -13.0040 C   0  0  1  0  0  0  0  0  0  0  0  0
  -12.5910    7.8520  -12.2780 C   0  0  0  0  0  0  0  0  0  0  0  0
   -5.9310    6.8430  -13.4580 C   0  0  2  0  0  0  0  0  0  0  0  0
  -10.5140    6.7080  -12.6020 C   0  0  0  0  0  0  0  0  0  0  0  0
  -11.2220    7.9180  -12.5850 C   0  0  0  0  0  0  0  0  0  0  0  0
   -6.7463    4.2016  -15.3271 H   0  0  0  0  0  0  0  0  0  0  0  0
   -6.4063    6.3606  -16.7100 H   0  0  0  0  0  0  0  0  0  0  0  0
  -12.9067    9.9088  -12.3158 H   0  0  0  0  0  0  0  0  0  0  0  0
  -14.3465    8.9618  -12.1423 H   0  0  0  0  0  0  0  0  0  0  0  0
   -4.6631    8.0601  -12.3387 H   0  0  0  0  0  0  0  0  0  0  0  0
   -4.5249    8.3006  -13.9479 H   0  0  0  0  0  0  0  0  0  0  0  0
  -12.8949    4.6317  -12.0798 H   0  0  0  0  0  0  0  0  0  0  0  0
   -8.3308    8.9201  -13.2004 H   0  0  0  0  0  0  0  0  0  0  0  0
   -8.5424    5.7674  -15.0757 H   0  0  0  0  0  0  0  0  0  0  0  0
   -7.1767    7.7087  -14.9354 H   0  0  0  0  0  0  0  0  0  0  0  0
   -8.3861    5.2242  -12.5228 H   0  0  0  0  0  0  0  0  0  0  0  0
   -5.2819    6.0823  -13.4641 H   0  0  0  0  0  0  0  0  0  0  0  0
  1  3  2  0  0  0  0
  1  4  1  0  0  0  0
  1  5  1  0  0  0  0
  1 10  1  0  0  0  0
  2  6  2  0  0  0  0
  2  7  1  0  0  0  0
  2 10  1  0  0  0  0
  2 11  1  0  0  0  0
  8 21  1  0  0  0  0
  9 22  1  0  0  0  0
 11 18  1  0  0  0  0
 12 23  1  0  0  0  0
 12 25  1  0  0  0  0
 13 24  1  0  0  0  0
 14 19  1  0  0  0  0
 14 24  2  0  0  0  0
 15 19  2  0  0  0  0
 15 26  1  0  0  0  0
 16 20  2  0  0  0  0
 16 27  1  0  0  0  0
 17 20  1  0  0  0  0
 17 23  1  0  0  0  0
 17 26  1  0  0  0  0
 18 25  1  0  0  0  0
 21 22  1  0  0  0  0
 21 23  1  0  0  0  0
 22 25  1  0  0  0  0
 24 27  1  0  0  0  0
 26 27  2  0  0  0  0
 25 39  1  0  0  0  0
 23 38  1  0  0  0  0
 22 37  1  0  0  0  0
  8 28  1  0  0  0  0
  9 29  1  0  0  0  0
 13 30  1  0  0  0  0
 13 31  1  0  0  0  0
 18 32  1  0  0  0  0
 18 33  1  0  0  0  0
 19 34  1  0  0  0  0
 20 35  1  0  0  0  0
 21 36  1  0  0  0  0
M  CHG  3   4  -1   5  -1   7  -1
M  END
$$$$
4IAI_CO3_A_404
prProtoss 05262315273D 1   1.00000     0.00000     0
Protoss beta proteinsplus
  4  3  0  0  0  0            999 V2000
    3.5310   26.5870  -11.7540 O   0  0  0  0  0  0  0  0  0  0  0  0
    5.6490   26.4580  -12.0270 O   0  5  0  0  0  0  0  0  0  0  0  0
    4.7950   25.2110  -10.4340 O   0  5  0  0  0  0  0  0  0  0  0  0
    4.6270   26.0850  -11.3650 C   0  0  0  0  0  0  0  0  0  0  0  0
  1  4  2  0  0  0  0
  2  4  1  0  0  0  0
  3  4  1  0  0  0  0
M  CHG  2   2  -1   3  -1
M  END
$$$$
4IAI_PEG_A_405
prProtoss 05262315273D 1   1.00000     0.00000     0
Protoss beta proteinsplus
 17 16  0  0  0  0            999 V2000
    8.2230   21.3980   -0.1050 O   0  0  0  0  0  0  0  0  0  0  0  0
    5.5610   26.6070    0.5790 O   0  0  0  0  0  0  0  0  0  0  0  0
    7.5430   24.3900   -1.4830 O   0  0  0  0  0  0  0  0  0  0  0  0
    8.5790   22.2730   -1.1220 C   0  0  0  0  0  0  0  0  0  0  0  0
    6.7160   25.9410    0.1620 C   0  0  0  0  0  0  0  0  0  0  0  0
    7.4830   23.0110   -1.7870 C   0  0  0  0  0  0  0  0  0  0  0  0
    6.4540   24.7710   -0.6840 C   0  0  0  0  0  0  0  0  0  0  0  0
    8.9666   21.3411    0.5612 H   0  0  0  0  0  0  0  0  0  0  0  0
    5.0538   26.9275   -0.2210 H   0  0  0  0  0  0  0  0  0  0  0  0
    9.0547   21.7425   -1.8236 H   0  0  0  0  0  0  0  0  0  0  0  0
    9.2053   22.9487   -0.7332 H   0  0  0  0  0  0  0  0  0  0  0  0
    7.2150   25.6374    0.9737 H   0  0  0  0  0  0  0  0  0  0  0  0
    7.2808   26.5838   -0.3555 H   0  0  0  0  0  0  0  0  0  0  0  0
    7.5612   22.8907   -2.7767 H   0  0  0  0  0  0  0  0  0  0  0  0
    6.6061   22.6453   -1.4750 H   0  0  0  0  0  0  0  0  0  0  0  0
    6.2141   24.0019   -0.0917 H   0  0  0  0  0  0  0  0  0  0  0  0
    5.6826   24.9830   -1.2840 H   0  0  0  0  0  0  0  0  0  0  0  0
  1  4  1  0  0  0  0
  2  5  1  0  0  0  0
  3  6  1  0  0  0  0
  3  7  1  0  0  0  0
  4  6  1  0  0  0  0
  5  7  1  0  0  0  0
  1  8  1  0  0  0  0
  2  9  1  0  0  0  0
  4 10  1  0  0  0  0
  4 11  1  0  0  0  0
  5 12  1  0  0  0  0
  5 13  1  0  0  0  0
  6 14  1  0  0  0  0
  6 15  1  0  0  0  0
  7 16  1  0  0  0  0
  7 17  1  0  0  0  0
M  END
$$$$
4IAK_ADP_A_403
prProtoss 05262315443D 1   1.00000     0.00000     0
Protoss beta proteinsplus
 39 41  0  0  0  0            999 V2000
   -2.5850  -11.4780   13.2260 P   0  0  0  0  0  0  0  0  0  0  0  0
   -5.2330  -10.6330   13.4750 P   0  0  0  0  0  0  0  0  0  0  0  0
   -2.7490  -12.7640   13.9610 O   0  0  0  0  0  0  0  0  0  0  0  0
   -1.5910  -11.7230   11.9810 O   0  5  0  0  0  0  0  0  0  0  0  0
   -1.9730  -10.3480   14.1670 O   0  5  0  0  0  0  0  0  0  0  0  0
   -6.2840  -11.6400   13.2070 O   0  0  0  0  0  0  0  0  0  0  0  0
   -4.8400  -10.4220   14.9710 O   0  5  0  0  0  0  0  0  0  0  0  0
   -6.9030   -4.5240   14.2660 O   0  0  0  0  0  0  0  0  0  0  0  0
   -5.6870   -6.6360   15.5810 O   0  0  0  0  0  0  0  0  0  0  0  0
   -3.9610  -11.0110   12.5980 O   0  0  0  0  0  0  0  0  0  0  0  0
   -5.8020   -9.2590   12.7840 O   0  0  0  0  0  0  0  0  0  0  0  0
   -6.6230   -6.6780   12.1410 O   0  0  0  0  0  0  0  0  0  0  0  0
  -13.1060   -9.0280   11.9940 N   0  0  0  0  0  0  0  0  0  0  0  0
  -12.8720   -6.6730   11.9510 N   0  0  0  0  0  0  0  0  0  0  0  0
  -10.8580   -5.5580   12.2190 N   0  0  0  0  0  0  0  0  0  0  0  0
  -10.0290   -8.9460   12.3520 N   0  0  0  0  0  0  0  0  0  0  0  0
   -8.9240   -7.0910   12.5720 N   0  0  0  0  0  0  0  0  0  0  0  0
   -4.8800   -8.1900   12.9960 C   0  0  0  0  0  0  0  0  0  0  0  0
  -12.1650   -5.5530   12.0290 C   0  0  0  0  0  0  0  0  0  0  0  0
   -8.8300   -8.4440   12.5270 C   0  0  0  0  0  0  0  0  0  0  0  0
   -7.5500   -5.8270   14.1860 C   0  0  2  0  0  0  0  0  0  0  0  0
   -6.5290   -6.9580   14.4710 C   0  0  1  0  0  0  0  0  0  0  0  0
   -7.8300   -6.1140   12.6920 C   0  0  1  0  0  0  0  0  0  0  0  0
  -12.3360   -7.8770   12.1260 C   0  0  0  0  0  0  0  0  0  0  0  0
   -5.6520   -6.8820   13.1950 C   0  0  2  0  0  0  0  0  0  0  0  0
  -10.2380   -6.7430   12.4030 C   0  0  0  0  0  0  0  0  0  0  0  0
  -10.9470   -7.9410   12.2880 C   0  0  0  0  0  0  0  0  0  0  0  0
   -6.5236   -4.3959   15.1823 H   0  0  0  0  0  0  0  0  0  0  0  0
   -6.2485   -6.5032   16.3978 H   0  0  0  0  0  0  0  0  0  0  0  0
  -12.6888   -9.9268   12.1286 H   0  0  0  0  0  0  0  0  0  0  0  0
  -14.0767   -8.9566   11.7645 H   0  0  0  0  0  0  0  0  0  0  0  0
   -4.2795   -8.1050   12.2009 H   0  0  0  0  0  0  0  0  0  0  0  0
   -4.3307   -8.3800   13.8097 H   0  0  0  0  0  0  0  0  0  0  0  0
  -12.6374   -4.6760   11.9410 H   0  0  0  0  0  0  0  0  0  0  0  0
   -7.9850   -8.9718   12.6131 H   0  0  0  0  0  0  0  0  0  0  0  0
   -8.3699   -5.8902   14.7550 H   0  0  0  0  0  0  0  0  0  0  0  0
   -6.9699   -7.8494   14.5756 H   0  0  0  0  0  0  0  0  0  0  0  0
   -8.0668   -5.2678   12.2147 H   0  0  0  0  0  0  0  0  0  0  0  0
   -5.0223   -6.1069   13.2473 H   0  0  0  0  0  0  0  0  0  0  0  0
  1  3  2  0  0  0  0
  1  4  1  0  0  0  0
  1  5  1  0  0  0  0
  1 10  1  0  0  0  0
  2  6  2  0  0  0  0
  2  7  1  0  0  0  0
  2 10  1  0  0  0  0
  2 11  1  0  0  0  0
  8 21  1  0  0  0  0
  9 22  1  0  0  0  0
 11 18  1  0  0  0  0
 12 23  1  0  0  0  0
 12 25  1  0  0  0  0
 13 24  1  0  0  0  0
 14 19  1  0  0  0  0
 14 24  2  0  0  0  0
 15 19  2  0  0  0  0
 15 26  1  0  0  0  0
 16 20  2  0  0  0  0
 16 27  1  0  0  0  0
 17 20  1  0  0  0  0
 17 23  1  0  0  0  0
 17 26  1  0  0  0  0
 18 25  1  0  0  0  0
 21 22  1  0  0  0  0
 21 23  1  0  0  0  0
 22 25  1  0  0  0  0
 24 27  1  0  0  0  0
 26 27  2  0  0  0  0
 25 39  1  0  0  0  0
 23 38  1  0  0  0  0
 22 37  1  0  0  0  0
  8 28  1  0  0  0  0
  9 29  1  0  0  0  0
 13 30  1  0  0  0  0
 13 31  1  0  0  0  0
 18 32  1  0  0  0  0
 18 33  1  0  0  0  0
 19 34  1  0  0  0  0
 20 35  1  0  0  0  0
 21 36  1  0  0  0  0
M  CHG  3   4  -1   5  -1   7  -1
M  END
$$$$
4IAK_CO3_A_404
prProtoss 05262315443D 1   1.00000     0.00000     0
Protoss beta proteinsplus
  4  3  0  0  0  0            999 V2000
    4.2600  -26.4890   10.2020 O   0  0  0  0  0  0  0  0  0  0  0  0
    2.7990  -26.9040   11.7190 O   0  5  0  0  0  0  0  0  0  0  0  0
    3.4120  -28.5540   10.4070 O   0  5  0  0  0  0  0  0  0  0  0  0
    3.5070  -27.3410   10.7680 C   0  0  0  0  0  0  0  0  0  0  0  0
  1  4  2  0  0  0  0
  2  4  1  0  0  0  0
  3  4  1  0  0  0  0
M  CHG  2   2  -1   3  -1
M  END
$$$$
4IAY_ADP_A_403
prProtoss 05262316003D 1   1.00000     0.00000     0
Protoss beta proteinsplus
 39 41  0  0  0  0            999 V2000
   -2.3400   11.0040  -13.5720 P   0  0  0  0  0  0  0  0  0  0  0  0
   -4.9650   10.2490  -13.7170 P   0  0  0  0  0  0  0  0  0  0  0  0
   -1.8910   10.1590  -14.7010 O   0  0  0  0  0  0  0  0  0  0  0  0
   -2.4890   12.5420  -14.0240 O   0  5  0  0  0  0  0  0  0  0  0  0
   -1.1550   10.9630  -12.4580 O   0  5  0  0  0  0  0  0  0  0  0  0
   -5.9170   11.3560  -13.4460 O   0  0  0  0  0  0  0  0  0  0  0  0
   -4.7020   10.0830  -15.2700 O   0  5  0  0  0  0  0  0  0  0  0  0
   -7.0590    4.3270  -14.2800 O   0  0  0  0  0  0  0  0  0  0  0  0
   -5.7980    6.2540  -15.7690 O   0  0  0  0  0  0  0  0  0  0  0  0
   -3.6440   10.4770  -12.8580 O   0  0  0  0  0  0  0  0  0  0  0  0
   -5.6730    8.9240  -13.1050 O   0  0  0  0  0  0  0  0  0  0  0  0
   -6.3510    6.4130  -12.1960 O   0  0  0  0  0  0  0  0  0  0  0  0
  -12.9110    8.8850  -11.8830 N   0  0  0  0  0  0  0  0  0  0  0  0
  -12.6710    6.5470  -11.8000 N   0  0  0  0  0  0  0  0  0  0  0  0
  -10.6610    5.4430  -12.0540 N   0  0  0  0  0  0  0  0  0  0  0  0
   -9.8450    8.7930  -12.4500 N   0  0  0  0  0  0  0  0  0  0  0  0
   -8.6980    6.9370  -12.3670 N   0  0  0  0  0  0  0  0  0  0  0  0
   -4.6890    7.8840  -13.1480 C   0  0  0  0  0  0  0  0  0  0  0  0
  -11.9600    5.4350  -11.8480 C   0  0  0  0  0  0  0  0  0  0  0  0
   -8.6560    8.2790  -12.5840 C   0  0  0  0  0  0  0  0  0  0  0  0
   -7.5360    5.6720  -14.1330 C   0  0  2  0  0  0  0  0  0  0  0  0
   -6.4230    6.6810  -14.5530 C   0  0  1  0  0  0  0  0  0  0  0  0
   -7.6370    5.9650  -12.6130 C   0  0  1  0  0  0  0  0  0  0  0  0
  -12.1120    7.7530  -11.9020 C   0  0  0  0  0  0  0  0  0  0  0  0
   -5.4790    6.5790  -13.3430 C   0  0  2  0  0  0  0  0  0  0  0  0
  -10.0120    6.6030  -12.1370 C   0  0  0  0  0  0  0  0  0  0  0  0
  -10.7250    7.8140  -12.1110 C   0  0  0  0  0  0  0  0  0  0  0  0
   -6.3895    4.2900  -15.0219 H   0  0  0  0  0  0  0  0  0  0  0  0
   -6.4583    5.7468  -16.3229 H   0  0  0  0  0  0  0  0  0  0  0  0
  -12.4957    9.7915  -11.9592 H   0  0  0  0  0  0  0  0  0  0  0  0
  -13.9029    8.7954  -11.7930 H   0  0  0  0  0  0  0  0  0  0  0  0
   -4.1729    7.8555  -12.2920 H   0  0  0  0  0  0  0  0  0  0  0  0
   -4.0601    8.0293  -13.9118 H   0  0  0  0  0  0  0  0  0  0  0  0
  -12.4245    4.5582  -11.7236 H   0  0  0  0  0  0  0  0  0  0  0  0
   -7.8314    8.7962  -12.8133 H   0  0  0  0  0  0  0  0  0  0  0  0
   -8.3989    5.8290  -14.6134 H   0  0  0  0  0  0  0  0  0  0  0  0
   -6.7921    7.6059  -14.6440 H   0  0  0  0  0  0  0  0  0  0  0  0
   -7.8566    5.1159  -12.1325 H   0  0  0  0  0  0  0  0  0  0  0  0
   -4.8610    5.7985  -13.4373 H   0  0  0  0  0  0  0  0  0  0  0  0
  1  3  2  0  0  0  0
  1  4  1  0  0  0  0
  1  5  1  0  0  0  0
  1 10  1  0  0  0  0
  2  6  2  0  0  0  0
  2  7  1  0  0  0  0
  2 10  1  0  0  0  0
  2 11  1  0  0  0  0
  8 21  1  0  0  0  0
  9 22  1  0  0  0  0
 11 18  1  0  0  0  0
 12 23  1  0  0  0  0
 12 25  1  0  0  0  0
 13 24  1  0  0  0  0
 14 19  1  0  0  0  0
 14 24  2  0  0  0  0
 15 19  2  0  0  0  0
 15 26  1  0  0  0  0
 16 20  2  0  0  0  0
 16 27  1  0  0  0  0
 17 20  1  0  0  0  0
 17 23  1  0  0  0  0
 17 26  1  0  0  0  0
 18 25  1  0  0  0  0
 21 22  1  0  0  0  0
 21 23  1  0  0  0  0
 22 25  1  0  0  0  0
 24 27  1  0  0  0  0
 26 27  2  0  0  0  0
 25 39  1  0  0  0  0
 23 38  1  0  0  0  0
 22 37  1  0  0  0  0
  8 28  1  0  0  0  0
  9 29  1  0  0  0  0
 13 30  1  0  0  0  0
 13 31  1  0  0  0  0
 18 32  1  0  0  0  0
 18 33  1  0  0  0  0
 19 34  1  0  0  0  0
 20 35  1  0  0  0  0
 21 36  1  0  0  0  0
M  CHG  3   4  -1   5  -1   7  -1
M  END
$$$$
4IAZ_ADP_A_403
prProtoss 05262315243D 1   1.00000     0.00000     0
Protoss beta proteinsplus
 39 41  0  0  0  0            999 V2000
   -2.7540   11.2040  -13.2990 P   0  0  0  0  0  0  0  0  0  0  0  0
   -5.2840   10.3180  -13.5450 P   0  0  0  0  0  0  0  0  0  0  0  0
   -2.9040   12.6140  -13.6960 O   0  0  0  0  0  0  0  0  0  0  0  0
   -1.6030   11.1340  -12.1590 O   0  5  0  0  0  0  0  0  0  0  0  0
   -2.2790   10.2620  -14.5020 O   0  5  0  0  0  0  0  0  0  0  0  0
   -6.2940   11.3980  -13.4250 O   0  0  0  0  0  0  0  0  0  0  0  0
   -4.8890   10.0890  -15.0590 O   0  5  0  0  0  0  0  0  0  0  0  0
   -7.0300    4.2350  -13.9600 O   0  0  0  0  0  0  0  0  0  0  0  0
   -6.0750    6.3370  -15.5440 O   0  0  0  0  0  0  0  0  0  0  0  0
   -4.0660   10.6530  -12.5820 O   0  0  0  0  0  0  0  0  0  0  0  0
   -5.9920    8.9860  -12.9420 O   0  0  0  0  0  0  0  0  0  0  0  0
   -6.6830    6.3340  -11.9580 O   0  0  0  0  0  0  0  0  0  0  0  0
  -13.1590    8.8620  -11.9220 N   0  0  0  0  0  0  0  0  0  0  0  0
  -13.0190    6.4990  -11.9050 N   0  0  0  0  0  0  0  0  0  0  0  0
  -11.0280    5.3540  -12.0960 N   0  0  0  0  0  0  0  0  0  0  0  0
  -10.1150    8.7040  -12.2660 N   0  0  0  0  0  0  0  0  0  0  0  0
   -9.0190    6.8110  -12.3350 N   0  0  0  0  0  0  0  0  0  0  0  0
   -5.0620    7.9160  -12.8820 C   0  0  0  0  0  0  0  0  0  0  0  0
  -12.3370    5.3710  -11.9590 C   0  0  0  0  0  0  0  0  0  0  0  0
   -8.9310    8.1700  -12.3870 C   0  0  0  0  0  0  0  0  0  0  0  0
   -7.7220    5.4900  -13.9220 C   0  0  2  0  0  0  0  0  0  0  0  0
   -6.7340    6.6330  -14.3090 C   0  0  1  0  0  0  0  0  0  0  0  0
   -7.9370    5.8350  -12.4220 C   0  0  1  0  0  0  0  0  0  0  0  0
  -12.4280    7.6860  -11.9620 C   0  0  0  0  0  0  0  0  0  0  0  0
   -5.8040    6.5850  -13.0740 C   0  0  2  0  0  0  0  0  0  0  0  0
  -10.3480    6.4950  -12.1720 C   0  0  0  0  0  0  0  0  0  0  0  0
  -11.0290    7.7210  -12.0760 C   0  0  0  0  0  0  0  0  0  0  0  0
   -6.6781    4.0762  -14.8825 H   0  0  0  0  0  0  0  0  0  0  0  0
   -6.6769    5.7822  -16.1184 H   0  0  0  0  0  0  0  0  0  0  0  0
  -12.6899    9.7440  -11.9665 H   0  0  0  0  0  0  0  0  0  0  0  0
  -14.1558    8.8289  -11.8486 H   0  0  0  0  0  0  0  0  0  0  0  0
   -4.6068    7.9190  -11.9916 H   0  0  0  0  0  0  0  0  0  0  0  0
   -4.3802    8.0254  -13.6053 H   0  0  0  0  0  0  0  0  0  0  0  0
  -12.8292    4.5030  -11.8939 H   0  0  0  0  0  0  0  0  0  0  0  0
   -8.0809    8.6840  -12.5015 H   0  0  0  0  0  0  0  0  0  0  0  0
   -8.5668    5.4955  -14.4571 H   0  0  0  0  0  0  0  0  0  0  0  0
   -7.2096    7.5111  -14.3617 H   0  0  0  0  0  0  0  0  0  0  0  0
   -8.1828    5.0089  -11.9150 H   0  0  0  0  0  0  0  0  0  0  0  0
   -5.1472    5.8368  -13.1682 H   0  0  0  0  0  0  0  0  0  0  0  0
  1  3  2  0  0  0  0
  1  4  1  0  0  0  0
  1  5  1  0  0  0  0
  1 10  1  0  0  0  0
  2  6  2  0  0  0  0
  2  7  1  0  0  0  0
  2 10  1  0  0  0  0
  2 11  1  0  0  0  0
  8 21  1  0  0  0  0
  9 22  1  0  0  0  0
 11 18  1  0  0  0  0
 12 23  1  0  0  0  0
 12 25  1  0  0  0  0
 13 24  1  0  0  0  0
 14 19  1  0  0  0  0
 14 24  2  0  0  0  0
 15 19  2  0  0  0  0
 15 26  1  0  0  0  0
 16 20  2  0  0  0  0
 16 27  1  0  0  0  0
 17 20  1  0  0  0  0
 17 23  1  0  0  0  0
 17 26  1  0  0  0  0
 18 25  1  0  0  0  0
 21 22  1  0  0  0  0
 21 23  1  0  0  0  0
 22 25  1  0  0  0  0
 24 27  1  0  0  0  0
 26 27  2  0  0  0  0
 25 39  1  0  0  0  0
 23 38  1  0  0  0  0
 22 37  1  0  0  0  0
  8 28  1  0  0  0  0
  9 29  1  0  0  0  0
 13 30  1  0  0  0  0
 13 31  1  0  0  0  0
 18 32  1  0  0  0  0
 18 33  1  0  0  0  0
 19 34  1  0  0  0  0
 20 35  1  0  0  0  0
 21 36  1  0  0  0  0
M  CHG  3   4  -1   5  -1   7  -1
M  END
$$$$
4IB0_ADP_A_403
prProtoss 05262315323D 1   1.00000     0.00000     0
Protoss beta proteinsplus
 39 41  0  0  0  0            999 V2000
   -3.0170   11.3980  -13.4650 P   0  0  0  0  0  0  0  0  0  0  0  0
   -5.6090   10.5750  -13.7970 P   0  0  0  0  0  0  0  0  0  0  0  0
   -3.0410   12.8730  -13.7280 O   0  0  0  0  0  0  0  0  0  0  0  0
   -1.8730   11.1430  -12.3480 O   0  5  0  0  0  0  0  0  0  0  0  0
   -2.6190   10.6160  -14.8140 O   0  5  0  0  0  0  0  0  0  0  0  0
   -6.7090   11.5640  -13.6740 O   0  0  0  0  0  0  0  0  0  0  0  0
   -5.1620   10.3470  -15.3280 O   0  5  0  0  0  0  0  0  0  0  0  0
   -7.0190    4.4160  -14.4510 O   0  0  0  0  0  0  0  0  0  0  0  0
   -5.8980    6.4850  -15.8750 O   0  0  0  0  0  0  0  0  0  0  0  0
   -4.4000   10.9270  -12.8530 O   0  0  0  0  0  0  0  0  0  0  0  0
   -6.2760    9.1880  -13.2490 O   0  0  0  0  0  0  0  0  0  0  0  0
   -6.9090    6.5590  -12.4390 O   0  0  0  0  0  0  0  0  0  0  0  0
  -13.4030    8.8970  -12.3420 N   0  0  0  0  0  0  0  0  0  0  0  0
  -13.1960    6.5490  -12.2710 N   0  0  0  0  0  0  0  0  0  0  0  0
  -11.1870    5.4330  -12.5150 N   0  0  0  0  0  0  0  0  0  0  0  0
  -10.3770    8.7840  -12.9160 N   0  0  0  0  0  0  0  0  0  0  0  0
   -9.2340    6.9170  -12.9350 N   0  0  0  0  0  0  0  0  0  0  0  0
   -5.2650    8.1830  -13.2710 C   0  0  0  0  0  0  0  0  0  0  0  0
  -12.4820    5.4410  -12.3120 C   0  0  0  0  0  0  0  0  0  0  0  0
   -9.1830    8.2780  -13.0380 C   0  0  0  0  0  0  0  0  0  0  0  0
   -7.7540    5.6570  -14.4740 C   0  0  2  0  0  0  0  0  0  0  0  0
   -6.7520    6.8140  -14.7830 C   0  0  1  0  0  0  0  0  0  0  0  0
   -8.0950    6.0080  -13.0030 C   0  0  1  0  0  0  0  0  0  0  0  0
  -12.6140    7.7530  -12.2840 C   0  0  0  0  0  0  0  0  0  0  0  0
   -5.9290    6.8090  -13.4630 C   0  0  2  0  0  0  0  0  0  0  0  0
  -10.5350    6.5820  -12.6700 C   0  0  0  0  0  0  0  0  0  0  0  0
  -11.2530    7.7940  -12.6140 C   0  0  0  0  0  0  0  0  0  0  0  0
   -6.5875    4.2676  -15.3408 H   0  0  0  0  0  0  0  0  0  0  0  0
   -6.3196    6.7860  -16.7303 H   0  0  0  0  0  0  0  0  0  0  0  0
  -12.9740    9.8003  -12.3520 H   0  0  0  0  0  0  0  0  0  0  0  0
  -14.3992    8.8162  -12.3737 H   0  0  0  0  0  0  0  0  0  0  0  0
   -4.7620    8.1945  -12.4068 H   0  0  0  0  0  0  0  0  0  0  0  0
   -4.6338    8.3589  -14.0264 H   0  0  0  0  0  0  0  0  0  0  0  0
  -12.9500    4.5668  -12.1823 H   0  0  0  0  0  0  0  0  0  0  0  0
   -8.3490    8.8095  -13.1858 H   0  0  0  0  0  0  0  0  0  0  0  0
   -8.5501    5.6419  -15.0790 H   0  0  0  0  0  0  0  0  0  0  0  0
   -7.2214    7.6853  -14.9263 H   0  0  0  0  0  0  0  0  0  0  0  0
   -8.3240    5.1659  -12.5146 H   0  0  0  0  0  0  0  0  0  0  0  0
   -5.2411    6.0833  -13.4783 H   0  0  0  0  0  0  0  0  0  0  0  0
  1  3  2  0  0  0  0
  1  4  1  0  0  0  0
  1  5  1  0  0  0  0
  1 10  1  0  0  0  0
  2  6  2  0  0  0  0
  2  7  1  0  0  0  0
  2 10  1  0  0  0  0
  2 11  1  0  0  0  0
  8 21  1  0  0  0  0
  9 22  1  0  0  0  0
 11 18  1  0  0  0  0
 12 23  1  0  0  0  0
 12 25  1  0  0  0  0
 13 24  1  0  0  0  0
 14 19  1  0  0  0  0
 14 24  2  0  0  0  0
 15 19  2  0  0  0  0
 15 26  1  0  0  0  0
 16 20  2  0  0  0  0
 16 27  1  0  0  0  0
 17 20  1  0  0  0  0
 17 23  1  0  0  0  0
 17 26  1  0  0  0  0
 18 25  1  0  0  0  0
 21 22  1  0  0  0  0
 21 23  1  0  0  0  0
 22 25  1  0  0  0  0
 24 27  1  0  0  0  0
 26 27  2  0  0  0  0
 25 39  1  0  0  0  0
 23 38  1  0  0  0  0
 22 37  1  0  0  0  0
  8 28  1  0  0  0  0
  9 29  1  0  0  0  0
 13 30  1  0  0  0  0
 13 31  1  0  0  0  0
 18 32  1  0  0  0  0
 18 33  1  0  0  0  0
 19 34  1  0  0  0  0
 20 35  1  0  0  0  0
 21 36  1  0  0  0  0
M  CHG  3   4  -1   5  -1   7  -1
M  END
$$$$
4IB1_ADP_A_403
prProtoss 05262315553D 1   1.00000     0.00000     0
Protoss beta proteinsplus
 39 41  0  0  0  0            999 V2000
   -2.9000   11.4400  -13.4910 P   0  0  0  0  0  0  0  0  0  0  0  0
   -5.5060   10.5310  -13.7930 P   0  0  0  0  0  0  0  0  0  0  0  0
   -2.9510   12.9130  -13.7650 O   0  0  0  0  0  0  0  0  0  0  0  0
   -1.8180   11.1880  -12.2980 O   0  5  0  0  0  0  0  0  0  0  0  0
   -2.4320   10.5720  -14.7420 O   0  5  0  0  0  0  0  0  0  0  0  0
   -6.5150   11.6330  -13.6560 O   0  0  0  0  0  0  0  0  0  0  0  0
   -5.1710   10.2680  -15.3390 O   0  5  0  0  0  0  0  0  0  0  0  0
   -7.1280    4.4140  -14.4050 O   0  0  0  0  0  0  0  0  0  0  0  0
   -5.9150    6.4340  -15.8340 O   0  0  0  0  0  0  0  0  0  0  0  0
   -4.2690   10.9030  -12.8930 O   0  0  0  0  0  0  0  0  0  0  0  0
   -6.1740    9.2010  -13.1780 O   0  0  0  0  0  0  0  0  0  0  0  0
   -6.9150    6.6200  -12.3690 O   0  0  0  0  0  0  0  0  0  0  0  0
  -13.3650    8.9640  -12.2150 N   0  0  0  0  0  0  0  0  0  0  0  0
  -13.1730    6.6140  -12.1480 N   0  0  0  0  0  0  0  0  0  0  0  0
  -11.1650    5.5190  -12.4160 N   0  0  0  0  0  0  0  0  0  0  0  0
  -10.3210    8.8750  -12.7430 N   0  0  0  0  0  0  0  0  0  0  0  0
   -9.2020    6.9870  -12.8300 N   0  0  0  0  0  0  0  0  0  0  0  0
   -5.1990    8.1600  -13.2140 C   0  0  0  0  0  0  0  0  0  0  0  0
  -12.4680    5.5040  -12.2040 C   0  0  0  0  0  0  0  0  0  0  0  0
   -9.1340    8.3450  -12.9160 C   0  0  0  0  0  0  0  0  0  0  0  0
   -7.7810    5.6980  -14.3920 C   0  0  2  0  0  0  0  0  0  0  0  0
   -6.7540    6.8200  -14.7330 C   0  0  1  0  0  0  0  0  0  0  0  0
   -8.1040    6.0200  -12.9130 C   0  0  1  0  0  0  0  0  0  0  0  0
  -12.5940    7.8080  -12.2410 C   0  0  0  0  0  0  0  0  0  0  0  0
   -5.9460    6.8430  -13.4110 C   0  0  2  0  0  0  0  0  0  0  0  0
  -10.4970    6.6610  -12.5080 C   0  0  0  0  0  0  0  0  0  0  0  0
  -11.2180    7.8690  -12.5190 C   0  0  0  0  0  0  0  0  0  0  0  0
   -6.7440    4.2445  -15.3127 H   0  0  0  0  0  0  0  0  0  0  0  0
   -6.4811    6.2621  -16.6402 H   0  0  0  0  0  0  0  0  0  0  0  0
  -12.9258    9.8596  -12.2852 H   0  0  0  0  0  0  0  0  0  0  0  0
  -14.3590    8.9002  -12.1261 H   0  0  0  0  0  0  0  0  0  0  0  0
   -4.6894    8.1388  -12.3538 H   0  0  0  0  0  0  0  0  0  0  0  0
   -4.5656    8.3108  -13.9730 H   0  0  0  0  0  0  0  0  0  0  0  0
  -12.9315    4.6262  -12.0828 H   0  0  0  0  0  0  0  0  0  0  0  0
   -8.2968    8.8645  -13.0870 H   0  0  0  0  0  0  0  0  0  0  0  0
   -8.5906    5.7250  -14.9783 H   0  0  0  0  0  0  0  0  0  0  0  0
   -7.2069    7.6951  -14.9036 H   0  0  0  0  0  0  0  0  0  0  0  0
   -8.3345    5.1843  -12.4145 H   0  0  0  0  0  0  0  0  0  0  0  0
   -5.2884    6.0897  -13.4148 H   0  0  0  0  0  0  0  0  0  0  0  0
  1  3  2  0  0  0  0
  1  4  1  0  0  0  0
  1  5  1  0  0  0  0
  1 10  1  0  0  0  0
  2  6  2  0  0  0  0
  2  7  1  0  0  0  0
  2 10  1  0  0  0  0
  2 11  1  0  0  0  0
  8 21  1  0  0  0  0
  9 22  1  0  0  0  0
 11 18  1  0  0  0  0
 12 23  1  0  0  0  0
 12 25  1  0  0  0  0
 13 24  1  0  0  0  0
 14 19  1  0  0  0  0
 14 24  2  0  0  0  0
 15 19  2  0  0  0  0
 15 26  1  0  0  0  0
 16 20  2  0  0  0  0
 16 27  1  0  0  0  0
 17 20  1  0  0  0  0
 17 23  1  0  0  0  0
 17 26  1  0  0  0  0
 18 25  1  0  0  0  0
 21 22  1  0  0  0  0
 21 23  1  0  0  0  0
 22 25  1  0  0  0  0
 24 27  1  0  0  0  0
 26 27  2  0  0  0  0
 25 39  1  0  0  0  0
 23 38  1  0  0  0  0
 22 37  1  0  0  0  0
  8 28  1  0  0  0  0
  9 29  1  0  0  0  0
 13 30  1  0  0  0  0
 13 31  1  0  0  0  0
 18 32  1  0  0  0  0
 18 33  1  0  0  0  0
 19 34  1  0  0  0  0
 20 35  1  0  0  0  0
 21 36  1  0  0  0  0
M  CHG  3   4  -1   5  -1   7  -1
M  END
$$$$
4IB3_ADP_A_401
prProtoss 05262315413D 1   1.00000     0.00000     0
Protoss beta proteinsplus
 39 41  0  0  0  0            999 V2000
   -2.7550   10.9040  -12.3590 P   0  0  0  0  0  0  0  0  0  0  0  0
   -5.3910   10.7050  -13.5670 P   0  0  0  0  0  0  0  0  0  0  0  0
   -2.3980   12.3550  -12.1240 O   0  0  0  0  0  0  0  0  0  0  0  0
   -2.1710    9.8830  -11.4040 O   0  5  0  0  0  0  0  0  0  0  0  0
   -2.3980   10.6180  -13.7880 O   0  5  0  0  0  0  0  0  0  0  0  0
   -6.3040   11.8320  -13.4660 O   0  0  0  0  0  0  0  0  0  0  0  0
   -4.7210   10.6040  -14.8810 O   0  5  0  0  0  0  0  0  0  0  0  0
   -7.2250    4.1970  -14.4940 O   0  0  0  0  0  0  0  0  0  0  0  0
   -5.9160    6.3560  -15.9720 O   0  0  0  0  0  0  0  0  0  0  0  0
   -4.3250   10.8300  -12.3700 O   0  0  0  0  0  0  0  0  0  0  0  0
   -6.0780    9.2990  -13.2530 O   0  0  0  0  0  0  0  0  0  0  0  0
   -6.8760    6.6840  -12.4750 O   0  0  0  0  0  0  0  0  0  0  0  0
  -13.4540    8.7790  -12.3590 N   0  0  0  0  0  0  0  0  0  0  0  0
  -13.2430    6.4540  -12.3050 N   0  0  0  0  0  0  0  0  0  0  0  0
  -11.1380    5.2450  -12.5190 N   0  0  0  0  0  0  0  0  0  0  0  0
  -10.3320    8.7640  -12.7380 N   0  0  0  0  0  0  0  0  0  0  0  0
   -9.2230    6.7750  -12.8110 N   0  0  0  0  0  0  0  0  0  0  0  0
   -5.1710    8.1650  -13.3430 C   0  0  0  0  0  0  0  0  0  0  0  0
  -12.4720    5.3160  -12.3600 C   0  0  0  0  0  0  0  0  0  0  0  0
   -9.1720    8.1580  -12.8610 C   0  0  0  0  0  0  0  0  0  0  0  0
   -7.6630    5.5330  -14.3530 C   0  0  2  0  0  0  0  0  0  0  0  0
   -6.6870    6.6290  -14.8120 C   0  0  1  0  0  0  0  0  0  0  0  0
   -7.9910    5.9110  -12.9370 C   0  0  1  0  0  0  0  0  0  0  0  0
  -12.6610    7.6900  -12.4180 C   0  0  0  0  0  0  0  0  0  0  0  0
   -5.8740    6.8300  -13.5290 C   0  0  2  0  0  0  0  0  0  0  0  0
  -10.5580    6.4910  -12.6340 C   0  0  0  0  0  0  0  0  0  0  0  0
  -11.2300    7.7360  -12.5930 C   0  0  0  0  0  0  0  0  0  0  0  0
   -6.6019    4.1310  -15.2733 H   0  0  0  0  0  0  0  0  0  0  0  0
   -6.5263    6.1957  -16.7478 H   0  0  0  0  0  0  0  0  0  0  0  0
  -13.0554    9.6927  -12.4387 H   0  0  0  0  0  0  0  0  0  0  0  0
  -14.4407    8.6729  -12.2356 H   0  0  0  0  0  0  0  0  0  0  0  0
   -4.6335    8.1236  -12.5007 H   0  0  0  0  0  0  0  0  0  0  0  0
   -4.5603    8.3108  -14.1213 H   0  0  0  0  0  0  0  0  0  0  0  0
  -12.9565    4.4457  -12.2721 H   0  0  0  0  0  0  0  0  0  0  0  0
   -8.3151    8.6592  -12.9819 H   0  0  0  0  0  0  0  0  0  0  0  0
   -8.4999    5.6324  -14.8912 H   0  0  0  0  0  0  0  0  0  0  0  0
   -7.2135    7.4626  -14.9790 H   0  0  0  0  0  0  0  0  0  0  0  0
   -8.0918    5.0880  -12.3779 H   0  0  0  0  0  0  0  0  0  0  0  0
   -5.2034    6.0927  -13.4475 H   0  0  0  0  0  0  0  0  0  0  0  0
  1  3  2  0  0  0  0
  1  4  1  0  0  0  0
  1  5  1  0  0  0  0
  1 10  1  0  0  0  0
  2  6  2  0  0  0  0
  2  7  1  0  0  0  0
  2 10  1  0  0  0  0
  2 11  1  0  0  0  0
  8 21  1  0  0  0  0
  9 22  1  0  0  0  0
 11 18  1  0  0  0  0
 12 23  1  0  0  0  0
 12 25  1  0  0  0  0
 13 24  1  0  0  0  0
 14 19  1  0  0  0  0
 14 24  2  0  0  0  0
 15 19  2  0  0  0  0
 15 26  1  0  0  0  0
 16 20  2  0  0  0  0
 16 27  1  0  0  0  0
 17 20  1  0  0  0  0
 17 23  1  0  0  0  0
 17 26  1  0  0  0  0
 18 25  1  0  0  0  0
 21 22  1  0  0  0  0
 21 23  1  0  0  0  0
 22 25  1  0  0  0  0
 24 27  1  0  0  0  0
 26 27  2  0  0  0  0
 25 39  1  0  0  0  0
 23 38  1  0  0  0  0
 22 37  1  0  0  0  0
  8 28  1  0  0  0  0
  9 29  1  0  0  0  0
 13 30  1  0  0  0  0
 13 31  1  0  0  0  0
 18 32  1  0  0  0  0
 18 33  1  0  0  0  0
 19 34  1  0  0  0  0
 20 35  1  0  0  0  0
 21 36  1  0  0  0  0
M  CHG  3   4  -1   5  -1   7  -1
M  END
$$$$
4NTT_ADP_A_401
prProtoss 08302315273D 1   1.00000     0.00000     0
Protoss beta proteinsplus
 39 41  0  0  0  0            999 V2000
   34.7460   49.0730   27.2110 P   0  0  0  0  0  0  0  0  0  0  0  0
   32.5230   47.4610   26.5490 P   0  0  0  0  0  0  0  0  0  0  0  0
   35.0630   50.5290   26.9520 O   0  0  0  0  0  0  0  0  0  0  0  0
   34.7190   48.7030   28.6740 O   0  5  0  0  0  0  0  0  0  0  0  0
   35.5410   48.1200   26.3480 O   0  5  0  0  0  0  0  0  0  0  0  0
   31.1560   47.7030   25.9520 O   0  0  0  0  0  0  0  0  0  0  0  0
   33.4720   46.5260   25.8370 O   0  5  0  0  0  0  0  0  0  0  0  0
   29.9360   42.4750   28.4030 O   0  0  0  0  0  0  0  0  0  0  0  0
   32.3480   42.8160   27.6770 O   0  0  0  0  0  0  0  0  0  0  0  0
   33.2180   48.8990   26.7430 O   0  0  0  0  0  0  0  0  0  0  0  0
   32.3420   46.9750   28.0780 O   0  0  0  0  0  0  0  0  0  0  0  0
   31.3170   45.1800   30.0180 O   0  0  0  0  0  0  0  0  0  0  0  0
   24.7570   47.6640   29.6010 N   0  0  0  0  0  0  0  0  0  0  0  0
   24.8930   45.3860   30.1820 N   0  0  0  0  0  0  0  0  0  0  0  0
   26.9470   44.1940   30.2170 N   0  0  0  0  0  0  0  0  0  0  0  0
   27.8760   47.4480   29.2340 N   0  0  0  0  0  0  0  0  0  0  0  0
   28.9610   45.5290   29.5950 N   0  0  0  0  0  0  0  0  0  0  0  0
   33.1830   45.9780   28.6670 C   0  0  0  0  0  0  0  0  0  0  0  0
   25.6090   44.2610   30.3800 C   0  0  0  0  0  0  0  0  0  0  0  0
   29.0800   46.8210   29.2350 C   0  0  0  0  0  0  0  0  0  0  0  0
   30.2530   43.8710   28.3290 C   0  0  2  0  0  0  0  0  0  0  0  0
   31.7080   44.0710   27.9360 C   0  0  1  0  0  0  0  0  0  0  0  0
   30.0740   44.5440   29.6890 C   0  0  1  0  0  0  0  0  0  0  0  0
   25.4820   46.5420   29.7970 C   0  0  0  0  0  0  0  0  0  0  0  0
   32.3600   44.7740   29.1210 C   0  0  2  0  0  0  0  0  0  0  0  0
   27.6670   45.2800   29.8340 C   0  0  0  0  0  0  0  0  0  0  0  0
   26.9510   46.5450   29.5980 C   0  0  0  0  0  0  0  0  0  0  0  0
   30.7480   41.9364   28.1781 H   0  0  0  0  0  0  0  0  0  0  0  0
   32.6803   42.7996   26.7340 H   0  0  0  0  0  0  0  0  0  0  0  0
   25.2102   48.5088   29.3165 H   0  0  0  0  0  0  0  0  0  0  0  0
   23.7668   47.6502   29.7403 H   0  0  0  0  0  0  0  0  0  0  0  0
   33.6530   46.3708   29.4574 H   0  0  0  0  0  0  0  0  0  0  0  0
   33.8580   45.6784   27.9928 H   0  0  0  0  0  0  0  0  0  0  0  0
   25.1236   43.4335   30.6622 H   0  0  0  0  0  0  0  0  0  0  0  0
   29.9455   47.2626   28.9984 H   0  0  0  0  0  0  0  0  0  0  0  0
   29.6605   44.3136   27.6559 H   0  0  0  0  0  0  0  0  0  0  0  0
   31.7629   44.6531   27.1247 H   0  0  0  0  0  0  0  0  0  0  0  0
   29.8557   43.8545   30.3796 H   0  0  0  0  0  0  0  0  0  0  0  0
   32.9609   44.1282   29.5919 H   0  0  0  0  0  0  0  0  0  0  0  0
  1  3  2  0  0  0  0
  1  4  1  0  0  0  0
  1  5  1  0  0  0  0
  1 10  1  0  0  0  0
  2  6  2  0  0  0  0
  2  7  1  0  0  0  0
  2 10  1  0  0  0  0
  2 11  1  0  0  0  0
  8 21  1  0  0  0  0
  9 22  1  0  0  0  0
 11 18  1  0  0  0  0
 12 23  1  0  0  0  0
 12 25  1  0  0  0  0
 13 24  1  0  0  0  0
 14 19  1  0  0  0  0
 14 24  2  0  0  0  0
 15 19  2  0  0  0  0
 15 26  1  0  0  0  0
 16 20  2  0  0  0  0
 16 27  1  0  0  0  0
 17 20  1  0  0  0  0
 17 23  1  0  0  0  0
 17 26  1  0  0  0  0
 18 25  1  0  0  0  0
 21 22  1  0  0  0  0
 21 23  1  0  0  0  0
 22 25  1  0  0  0  0
 24 27  1  0  0  0  0
 26 27  2  0  0  0  0
 25 39  1  0  0  0  0
 23 38  1  0  0  0  0
 22 37  1  0  0  0  0
  8 28  1  0  0  0  0
  9 29  1  0  0  0  0
 13 30  1  0  0  0  0
 13 31  1  0  0  0  0
 18 32  1  0  0  0  0
 18 33  1  0  0  0  0
 19 34  1  0  0  0  0
 20 35  1  0  0  0  0
 21 36  1  0  0  0  0
M  CHG  3   4  -1   5  -1   7  -1
M  END
$$$$
4NTT_ADP_B_401
prProtoss 08302315273D 1   1.00000     0.00000     0
Protoss beta proteinsplus
 39 41  0  0  0  0            999 V2000
    0.5480   15.2250  -14.8710 P   0  0  0  0  0  0  0  0  0  0  0  0
    1.8550   17.7790  -14.7050 P   0  0  0  0  0  0  0  0  0  0  0  0
    1.1740   13.8460  -14.8170 O   0  0  0  0  0  0  0  0  0  0  0  0
   -0.6290   15.3960  -13.9330 O   0  5  0  0  0  0  0  0  0  0  0  0
    0.2880   15.7080  -16.2810 O   0  5  0  0  0  0  0  0  0  0  0  0
    3.2910   17.9920  -15.1070 O   0  0  0  0  0  0  0  0  0  0  0  0
    0.7560   18.2270  -15.6390 O   0  5  0  0  0  0  0  0  0  0  0  0
    0.0870   23.3490  -12.4630 O   0  0  0  0  0  0  0  0  0  0  0  0
   -0.1540   21.5630  -14.3670 O   0  0  0  0  0  0  0  0  0  0  0  0
    1.6700   16.2290  -14.2740 O   0  0  0  0  0  0  0  0  0  0  0  0
    1.6510   18.5310  -13.3030 O   0  0  0  0  0  0  0  0  0  0  0  0
    0.4330   20.4620  -11.0790 O   0  0  0  0  0  0  0  0  0  0  0  0
    6.8180   22.1310   -8.7660 N   0  0  0  0  0  0  0  0  0  0  0  0
    5.3380   23.9730   -8.8360 N   0  0  0  0  0  0  0  0  0  0  0  0
    3.1300   23.8150   -9.7040 N   0  0  0  0  0  0  0  0  0  0  0  0
    4.4300   20.5540  -10.0740 N   0  0  0  0  0  0  0  0  0  0  0  0
    2.4880   21.5490  -10.5350 N   0  0  0  0  0  0  0  0  0  0  0  0
    0.3450   18.6890  -12.7510 C   0  0  0  0  0  0  0  0  0  0  0  0
    4.1410   24.5140   -9.1450 C   0  0  0  0  0  0  0  0  0  0  0  0
    3.1820   20.3980  -10.5790 C   0  0  0  0  0  0  0  0  0  0  0  0
    1.0810   22.3260  -12.4090 C   0  0  2  0  0  0  0  0  0  0  0  0
    0.7310   21.1640  -13.3220 C   0  0  1  0  0  0  0  0  0  0  0  0
    1.0910   21.7320  -11.0090 C   0  0  1  0  0  0  0  0  0  0  0  0
    5.6150   22.6680   -9.0770 C   0  0  0  0  0  0  0  0  0  0  0  0
    0.0370   20.1520  -12.4200 C   0  0  2  0  0  0  0  0  0  0  0  0
    3.2690   22.4930   -9.9960 C   0  0  0  0  0  0  0  0  0  0  0  0
    4.5520   21.8350   -9.6910 C   0  0  0  0  0  0  0  0  0  0  0  0
   -0.6360   23.0780  -13.0984 H   0  0  0  0  0  0  0  0  0  0  0  0
   -0.3621   20.7751  -14.9466 H   0  0  0  0  0  0  0  0  0  0  0  0
    6.9981   21.1654   -8.9537 H   0  0  0  0  0  0  0  0  0  0  0  0
    7.5266   22.6999   -8.3486 H   0  0  0  0  0  0  0  0  0  0  0  0
    0.2809   18.1476  -11.9127 H   0  0  0  0  0  0  0  0  0  0  0  0
   -0.3278   18.3590  -13.4132 H   0  0  0  0  0  0  0  0  0  0  0  0
    3.9950   25.4838   -8.9497 H   0  0  0  0  0  0  0  0  0  0  0  0
    2.8230   19.5367  -10.9385 H   0  0  0  0  0  0  0  0  0  0  0  0
    1.9804   22.6968  -12.6404 H   0  0  0  0  0  0  0  0  0  0  0  0
    1.5634   20.7669  -13.7085 H   0  0  0  0  0  0  0  0  0  0  0  0
    0.5973   22.3348  -10.3822 H   0  0  0  0  0  0  0  0  0  0  0  0
   -0.9506   20.2897  -12.4954 H   0  0  0  0  0  0  0  0  0  0  0  0
  1  3  2  0  0  0  0
  1  4  1  0  0  0  0
  1  5  1  0  0  0  0
  1 10  1  0  0  0  0
  2  6  2  0  0  0  0
  2  7  1  0  0  0  0
  2 10  1  0  0  0  0
  2 11  1  0  0  0  0
  8 21  1  0  0  0  0
  9 22  1  0  0  0  0
 11 18  1  0  0  0  0
 12 23  1  0  0  0  0
 12 25  1  0  0  0  0
 13 24  1  0  0  0  0
 14 19  1  0  0  0  0
 14 24  2  0  0  0  0
 15 19  2  0  0  0  0
 15 26  1  0  0  0  0
 16 20  2  0  0  0  0
 16 27  1  0  0  0  0
 17 20  1  0  0  0  0
 17 23  1  0  0  0  0
 17 26  1  0  0  0  0
 18 25  1  0  0  0  0
 21 22  1  0  0  0  0
 21 23  1  0  0  0  0
 22 25  1  0  0  0  0
 24 27  1  0  0  0  0
 26 27  2  0  0  0  0
 25 39  1  0  0  0  0
 23 38  1  0  0  0  0
 22 37  1  0  0  0  0
  8 28  1  0  0  0  0
  9 29  1  0  0  0  0
 13 30  1  0  0  0  0
 13 31  1  0  0  0  0
 18 32  1  0  0  0  0
 18 33  1  0  0  0  0
 19 34  1  0  0  0  0
 20 35  1  0  0  0  0
 21 36  1  0  0  0  0
M  CHG  3   4  -1   5  -1   7  -1
M  END
$$$$
4O21_ADP_A_401
prProtoss 05262315213D 1   1.00000     0.00000     0
Protoss beta proteinsplus
 39 41  0  0  0  0            999 V2000
   -2.7540  -11.7910   12.1750 P   0  0  0  0  0  0  0  0  0  0  0  0
   -5.0950  -10.8180   13.4760 P   0  0  0  0  0  0  0  0  0  0  0  0
   -2.2310  -11.5260   10.7810 O   0  0  0  0  0  0  0  0  0  0  0  0
   -3.0300  -13.2380   12.5010 O   0  5  0  0  0  0  0  0  0  0  0  0
   -1.9750  -11.1240   13.2750 O   0  5  0  0  0  0  0  0  0  0  0  0
   -6.1330  -11.9190   13.5230 O   0  0  0  0  0  0  0  0  0  0  0  0
   -4.1690  -10.5650   14.6410 O   0  5  0  0  0  0  0  0  0  0  0  0
   -7.3200   -4.5020   14.5970 O   0  0  0  0  0  0  0  0  0  0  0  0
   -5.9400   -6.3090   15.9350 O   0  0  0  0  0  0  0  0  0  0  0  0
   -4.1800  -11.0270   12.1630 O   0  0  0  0  0  0  0  0  0  0  0  0
   -5.8070   -9.4030   13.1770 O   0  0  0  0  0  0  0  0  0  0  0  0
   -6.8290   -6.7840   12.4870 O   0  0  0  0  0  0  0  0  0  0  0  0
  -13.5680   -8.7260   12.3600 N   0  0  0  0  0  0  0  0  0  0  0  0
  -13.2290   -6.3940   12.3470 N   0  0  0  0  0  0  0  0  0  0  0  0
  -11.0820   -5.3930   12.5700 N   0  0  0  0  0  0  0  0  0  0  0  0
  -10.4120   -8.8440   12.7240 N   0  0  0  0  0  0  0  0  0  0  0  0
   -9.1830   -6.9770   12.8230 N   0  0  0  0  0  0  0  0  0  0  0  0
   -5.0700   -8.2240   13.5100 C   0  0  0  0  0  0  0  0  0  0  0  0
  -12.4210   -5.3190   12.4130 C   0  0  0  0  0  0  0  0  0  0  0  0
   -9.1630   -8.3240   12.8580 C   0  0  0  0  0  0  0  0  0  0  0  0
   -7.8000   -5.8360   14.4280 C   0  0  2  0  0  0  0  0  0  0  0  0
   -6.7160   -6.8110   14.8380 C   0  0  1  0  0  0  0  0  0  0  0  0
   -7.9990   -6.0910   12.9470 C   0  0  1  0  0  0  0  0  0  0  0  0
  -12.7380   -7.6540   12.4270 C   0  0  0  0  0  0  0  0  0  0  0  0
   -5.8910   -6.9320   13.5650 C   0  0  2  0  0  0  0  0  0  0  0  0
  -10.4520   -6.5850   12.6700 C   0  0  0  0  0  0  0  0  0  0  0  0
  -11.2680   -7.8120   12.5980 C   0  0  0  0  0  0  0  0  0  0  0  0
   -6.6578   -4.4784   15.3460 H   0  0  0  0  0  0  0  0  0  0  0  0
   -6.5372   -6.1525   16.7217 H   0  0  0  0  0  0  0  0  0  0  0  0
  -13.1948   -9.6518   12.4201 H   0  0  0  0  0  0  0  0  0  0  0  0
  -14.5526   -8.5899   12.2505 H   0  0  0  0  0  0  0  0  0  0  0  0
   -4.3519   -8.1047   12.8244 H   0  0  0  0  0  0  0  0  0  0  0  0
   -4.6533   -8.3636   14.4083 H   0  0  0  0  0  0  0  0  0  0  0  0
  -12.8371   -4.4125   12.3415 H   0  0  0  0  0  0  0  0  0  0  0  0
   -8.3339   -8.8720   12.9686 H   0  0  0  0  0  0  0  0  0  0  0  0
   -8.6438   -5.9893   14.9424 H   0  0  0  0  0  0  0  0  0  0  0  0
   -7.1180   -7.6955   15.0749 H   0  0  0  0  0  0  0  0  0  0  0  0
   -8.1331   -5.2354   12.4471 H   0  0  0  0  0  0  0  0  0  0  0  0
   -5.2565   -6.1598   13.5321 H   0  0  0  0  0  0  0  0  0  0  0  0
  1  3  2  0  0  0  0
  1  4  1  0  0  0  0
  1  5  1  0  0  0  0
  1 10  1  0  0  0  0
  2  6  2  0  0  0  0
  2  7  1  0  0  0  0
  2 10  1  0  0  0  0
  2 11  1  0  0  0  0
  8 21  1  0  0  0  0
  9 22  1  0  0  0  0
 11 18  1  0  0  0  0
 12 23  1  0  0  0  0
 12 25  1  0  0  0  0
 13 24  1  0  0  0  0
 14 19  1  0  0  0  0
 14 24  2  0  0  0  0
 15 19  2  0  0  0  0
 15 26  1  0  0  0  0
 16 20  2  0  0  0  0
 16 27  1  0  0  0  0
 17 20  1  0  0  0  0
 17 23  1  0  0  0  0
 17 26  1  0  0  0  0
 18 25  1  0  0  0  0
 21 22  1  0  0  0  0
 21 23  1  0  0  0  0
 22 25  1  0  0  0  0
 24 27  1  0  0  0  0
 26 27  2  0  0  0  0
 25 39  1  0  0  0  0
 23 38  1  0  0  0  0
 22 37  1  0  0  0  0
  8 28  1  0  0  0  0
  9 29  1  0  0  0  0
 13 30  1  0  0  0  0
 13 31  1  0  0  0  0
 18 32  1  0  0  0  0
 18 33  1  0  0  0  0
 19 34  1  0  0  0  0
 20 35  1  0  0  0  0
 21 36  1  0  0  0  0
M  CHG  3   4  -1   5  -1   7  -1
M  END
$$$$
4XW6_ADP_A_403
prProtoss 05262315563D 1   1.00000     0.00000     0
Protoss beta proteinsplus
 39 41  0  0  0  0            999 V2000
   -3.0720   11.7040  -13.7070 P   0  0  0  0  0  0  0  0  0  0  0  0
   -5.7880   10.7470  -13.7830 P   0  0  0  0  0  0  0  0  0  0  0  0
   -3.5180   13.0630  -14.0200 O   0  0  0  0  0  0  0  0  0  0  0  0
   -1.9840   11.7070  -12.6950 O   0  5  0  0  0  0  0  0  0  0  0  0
   -2.8050   10.8850  -14.8950 O   0  5  0  0  0  0  0  0  0  0  0  0
   -6.7790   11.7490  -13.5460 O   0  0  0  0  0  0  0  0  0  0  0  0
   -5.5020   10.3920  -15.1650 O   0  5  0  0  0  0  0  0  0  0  0  0
   -7.1580    4.5700  -14.4480 O   0  0  0  0  0  0  0  0  0  0  0  0
   -5.9610    6.7210  -15.7750 O   0  0  0  0  0  0  0  0  0  0  0  0
   -4.3930   11.0290  -13.0570 O   0  0  0  0  0  0  0  0  0  0  0  0
   -6.2950    9.4160  -13.1420 O   0  0  0  0  0  0  0  0  0  0  0  0
   -7.0720    6.7030  -12.3370 O   0  0  0  0  0  0  0  0  0  0  0  0
  -13.6130    8.7610  -12.3800 N   0  0  0  0  0  0  0  0  0  0  0  0
  -13.2830    6.4690  -12.2450 N   0  0  0  0  0  0  0  0  0  0  0  0
  -11.2130    5.4510  -12.4330 N   0  0  0  0  0  0  0  0  0  0  0  0
  -10.5410    8.8300  -12.8590 N   0  0  0  0  0  0  0  0  0  0  0  0
   -9.3510    6.9790  -12.8580 N   0  0  0  0  0  0  0  0  0  0  0  0
   -5.4230    8.3180  -13.0140 C   0  0  0  0  0  0  0  0  0  0  0  0
  -12.5040    5.4220  -12.2470 C   0  0  0  0  0  0  0  0  0  0  0  0
   -9.3340    8.2940  -12.9730 C   0  0  0  0  0  0  0  0  0  0  0  0
   -7.7820    5.8210  -14.3680 C   0  0  2  0  0  0  0  0  0  0  0  0
   -6.7980    6.9360  -14.6550 C   0  0  1  0  0  0  0  0  0  0  0  0
   -8.1810    6.0920  -12.9380 C   0  0  1  0  0  0  0  0  0  0  0  0
  -12.8280    7.7030  -12.3960 C   0  0  0  0  0  0  0  0  0  0  0  0
   -6.1020    7.0020  -13.3060 C   0  0  2  0  0  0  0  0  0  0  0  0
  -10.5880    6.6060  -12.6610 C   0  0  0  0  0  0  0  0  0  0  0  0
  -11.3830    7.8370  -12.6410 C   0  0  0  0  0  0  0  0  0  0  0  0
   -6.7859    4.4413  -15.3672 H   0  0  0  0  0  0  0  0  0  0  0  0
   -6.5227    6.6164  -16.5957 H   0  0  0  0  0  0  0  0  0  0  0  0
  -13.2235    9.6744  -12.4983 H   0  0  0  0  0  0  0  0  0  0  0  0
  -14.5983    8.6506  -12.2496 H   0  0  0  0  0  0  0  0  0  0  0  0
   -5.0705    8.2961  -12.0785 H   0  0  0  0  0  0  0  0  0  0  0  0
   -4.6635    8.4356  -13.6538 H   0  0  0  0  0  0  0  0  0  0  0  0
  -12.9289    4.5297  -12.0944 H   0  0  0  0  0  0  0  0  0  0  0  0
   -8.5023    8.8270  -13.1289 H   0  0  0  0  0  0  0  0  0  0  0  0
   -8.5721    5.8703  -14.9790 H   0  0  0  0  0  0  0  0  0  0  0  0
   -7.3077    7.7850  -14.7943 H   0  0  0  0  0  0  0  0  0  0  0  0
   -8.3812    5.2285  -12.4752 H   0  0  0  0  0  0  0  0  0  0  0  0
   -5.4074    6.2831  -13.2807 H   0  0  0  0  0  0  0  0  0  0  0  0
  1  3  2  0  0  0  0
  1  4  1  0  0  0  0
  1  5  1  0  0  0  0
  1 10  1  0  0  0  0
  2  6  2  0  0  0  0
  2  7  1  0  0  0  0
  2 10  1  0  0  0  0
  2 11  1  0  0  0  0
  8 21  1  0  0  0  0
  9 22  1  0  0  0  0
 11 18  1  0  0  0  0
 12 23  1  0  0  0  0
 12 25  1  0  0  0  0
 13 24  1  0  0  0  0
 14 19  1  0  0  0  0
 14 24  2  0  0  0  0
 15 19  2  0  0  0  0
 15 26  1  0  0  0  0
 16 20  2  0  0  0  0
 16 27  1  0  0  0  0
 17 20  1  0  0  0  0
 17 23  1  0  0  0  0
 17 26  1  0  0  0  0
 18 25  1  0  0  0  0
 21 22  1  0  0  0  0
 21 23  1  0  0  0  0
 22 25  1  0  0  0  0
 24 27  1  0  0  0  0
 26 27  2  0  0  0  0
 25 39  1  0  0  0  0
 23 38  1  0  0  0  0
 22 37  1  0  0  0  0
  8 28  1  0  0  0  0
  9 29  1  0  0  0  0
 13 30  1  0  0  0  0
 13 31  1  0  0  0  0
 18 32  1  0  0  0  0
 18 33  1  0  0  0  0
 19 34  1  0  0  0  0
 20 35  1  0  0  0  0
 21 36  1  0  0  0  0
M  CHG  3   4  -1   5  -1   7  -1
M  END
$$$$
4XW6_PO4_A_404
prProtoss 05262315563D 1   1.00000     0.00000     0
Protoss beta proteinsplus
  5  4  0  0  0  0            999 V2000
   -1.1060   11.4980  -17.6980 P   0  0  0  0  0  0  0  0  0  0  0  0
   -0.2270   12.2590  -18.7240 O   0  0  0  0  0  0  0  0  0  0  0  0
   -1.2700   12.3890  -16.5150 O   0  5  0  0  0  0  0  0  0  0  0  0
   -2.4330   11.1330  -18.1950 O   0  5  0  0  0  0  0  0  0  0  0  0
   -0.3720   10.2630  -17.3180 O   0  5  0  0  0  0  0  0  0  0  0  0
  1  2  2  0  0  0  0
  1  3  1  0  0  0  0
  1  4  1  0  0  0  0
  1  5  1  0  0  0  0
M  CHG  3   3  -1   4  -1   5  -1
M  END
$$$$
6E21_ADP_A_403
prProtoss 08292323523D 1   1.00000     0.00000     0
Protoss beta proteinsplus
 39 41  0  0  0  0            999 V2000
   -2.4470   10.9850  -13.3340 P   0  0  0  0  0  0  0  0  0  0  0  0
   -5.1230   10.2220  -13.6610 P   0  0  0  0  0  0  0  0  0  0  0  0
   -1.9070   10.3750  -14.5460 O   0  0  0  0  0  0  0  0  0  0  0  0
   -2.5580   12.5660  -13.4460 O   0  5  0  0  0  0  0  0  0  0  0  0
   -1.4220   10.5970  -12.1640 O   0  5  0  0  0  0  0  0  0  0  0  0
   -4.9070   10.0780  -15.1750 O   0  0  0  0  0  0  0  0  0  0  0  0
   -6.0230   11.3530  -13.3610 O   0  5  0  0  0  0  0  0  0  0  0  0
   -7.0610    4.2360  -14.3700 O   0  0  0  0  0  0  0  0  0  0  0  0
   -5.7430    6.1790  -15.7960 O   0  0  0  0  0  0  0  0  0  0  0  0
   -3.7980   10.3980  -12.7990 O   0  0  0  0  0  0  0  0  0  0  0  0
   -5.7980    8.8950  -13.0480 O   0  0  0  0  0  0  0  0  0  0  0  0
   -6.5100    6.3890  -12.2320 O   0  0  0  0  0  0  0  0  0  0  0  0
  -12.9930    8.9430  -11.7930 N   0  0  0  0  0  0  0  0  0  0  0  0
  -12.8280    6.5840  -11.7880 N   0  0  0  0  0  0  0  0  0  0  0  0
  -10.8530    5.4210  -12.1390 N   0  0  0  0  0  0  0  0  0  0  0  0
   -9.9420    8.7940  -12.4090 N   0  0  0  0  0  0  0  0  0  0  0  0
   -8.8680    6.8940  -12.5500 N   0  0  0  0  0  0  0  0  0  0  0  0
   -4.8100    7.8540  -13.1500 C   0  0  0  0  0  0  0  0  0  0  0  0
  -12.1590    5.4360  -11.8940 C   0  0  0  0  0  0  0  0  0  0  0  0
   -8.7870    8.2620  -12.6030 C   0  0  0  0  0  0  0  0  0  0  0  0
   -7.5660    5.5770  -14.2070 C   0  0  2  0  0  0  0  0  0  0  0  0
   -6.4500    6.5700  -14.6130 C   0  0  1  0  0  0  0  0  0  0  0  0
   -7.7690    5.9050  -12.7080 C   0  0  1  0  0  0  0  0  0  0  0  0
  -12.2410    7.7890  -11.9300 C   0  0  0  0  0  0  0  0  0  0  0  0
   -5.5710    6.5440  -13.3500 C   0  0  2  0  0  0  0  0  0  0  0  0
  -10.1800    6.5800  -12.2910 C   0  0  0  0  0  0  0  0  0  0  0  0
  -10.8560    7.8210  -12.1980 C   0  0  0  0  0  0  0  0  0  0  0  0
   -6.3866    4.2212  -15.1082 H   0  0  0  0  0  0  0  0  0  0  0  0
   -6.1963    6.5667  -16.5987 H   0  0  0  0  0  0  0  0  0  0  0  0
  -12.5592    9.8379  -11.8980 H   0  0  0  0  0  0  0  0  0  0  0  0
  -13.9701    8.8818  -11.5890 H   0  0  0  0  0  0  0  0  0  0  0  0
   -4.2659    7.8120  -12.3120 H   0  0  0  0  0  0  0  0  0  0  0  0
   -4.2081    8.0254  -13.9300 H   0  0  0  0  0  0  0  0  0  0  0  0
  -12.6486    4.5706  -11.7873 H   0  0  0  0  0  0  0  0  0  0  0  0
   -7.9453    8.7756  -12.7696 H   0  0  0  0  0  0  0  0  0  0  0  0
   -8.4025    5.7243  -14.7348 H   0  0  0  0  0  0  0  0  0  0  0  0
   -6.8380    7.4833  -14.7367 H   0  0  0  0  0  0  0  0  0  0  0  0
   -8.0068    5.0671  -12.2168 H   0  0  0  0  0  0  0  0  0  0  0  0
   -4.9358    5.7724  -13.3823 H   0  0  0  0  0  0  0  0  0  0  0  0
  1  3  2  0  0  0  0
  1  4  1  0  0  0  0
  1  5  1  0  0  0  0
  1 10  1  0  0  0  0
  2  6  2  0  0  0  0
  2  7  1  0  0  0  0
  2 10  1  0  0  0  0
  2 11  1  0  0  0  0
  8 21  1  0  0  0  0
  9 22  1  0  0  0  0
 11 18  1  0  0  0  0
 12 23  1  0  0  0  0
 12 25  1  0  0  0  0
 13 24  1  0  0  0  0
 14 19  1  0  0  0  0
 14 24  2  0  0  0  0
 15 19  2  0  0  0  0
 15 26  1  0  0  0  0
 16 20  2  0  0  0  0
 16 27  1  0  0  0  0
 17 20  1  0  0  0  0
 17 23  1  0  0  0  0
 17 26  1  0  0  0  0
 18 25  1  0  0  0  0
 21 22  1  0  0  0  0
 21 23  1  0  0  0  0
 22 25  1  0  0  0  0
 24 27  1  0  0  0  0
 26 27  2  0  0  0  0
 25 39  1  0  0  0  0
 23 38  1  0  0  0  0
 22 37  1  0  0  0  0
  8 28  1  0  0  0  0
  9 29  1  0  0  0  0
 13 30  1  0  0  0  0
 13 31  1  0  0  0  0
 18 32  1  0  0  0  0
 18 33  1  0  0  0  0
 19 34  1  0  0  0  0
 20 35  1  0  0  0  0
 21 36  1  0  0  0  0
M  CHG  3   4  -1   5  -1   7  -1
M  END
$$$$
6EM6_ADP_A_401
prProtoss 08292323543D 1   1.00000     0.00000     0
Protoss beta proteinsplus
 39 41  0  0  0  0            999 V2000
   -4.1670   16.2480   -7.4400 P   0  0  0  0  0  0  0  0  0  0  0  0
   -6.2570   14.7340   -9.0120 P   0  0  0  0  0  0  0  0  0  0  0  0
   -3.2850   15.6890   -8.5150 O   0  0  0  0  0  0  0  0  0  0  0  0
   -3.9260   15.7690   -6.0250 O   0  5  0  0  0  0  0  0  0  0  0  0
   -4.3330   17.7590   -7.5300 O   0  5  0  0  0  0  0  0  0  0  0  0
   -5.3700   14.5210  -10.2180 O   0  0  0  0  0  0  0  0  0  0  0  0
   -7.6690   15.1770   -9.2630 O   0  5  0  0  0  0  0  0  0  0  0  0
   -6.6610    8.3030   -8.5240 O   0  0  0  0  0  0  0  0  0  0  0  0
   -5.8460   10.2440  -10.3660 O   0  0  0  0  0  0  0  0  0  0  0  0
   -5.6620   15.7140   -7.8610 O   0  0  0  0  0  0  0  0  0  0  0  0
   -6.3340   13.3110   -8.2340 O   0  0  0  0  0  0  0  0  0  0  0  0
   -6.5540   10.8520   -6.8940 O   0  0  0  0  0  0  0  0  0  0  0  0
  -13.2870   12.0360   -7.0230 N   0  0  0  0  0  0  0  0  0  0  0  0
  -12.8000    9.7210   -7.0510 N   0  0  0  0  0  0  0  0  0  0  0  0
  -10.5600    8.9370   -7.1220 N   0  0  0  0  0  0  0  0  0  0  0  0
  -10.3220   12.4880   -7.0950 N   0  0  0  0  0  0  0  0  0  0  0  0
   -8.9030   10.7760   -7.1430 N   0  0  0  0  0  0  0  0  0  0  0  0
   -5.2170   12.4330   -8.1420 C   0  0  0  0  0  0  0  0  0  0  0  0
  -11.8890    8.7280   -7.0910 C   0  0  0  0  0  0  0  0  0  0  0  0
   -9.0280   12.1280   -7.1340 C   0  0  0  0  0  0  0  0  0  0  0  0
   -7.4280    9.5020   -8.6090 C   0  0  2  0  0  0  0  0  0  0  0  0
   -6.6160   10.6240   -9.2160 C   0  0  1  0  0  0  0  0  0  0  0  0
   -7.6560    9.9990   -7.1910 C   0  0  1  0  0  0  0  0  0  0  0  0
  -12.4320   11.0140   -7.0570 C   0  0  0  0  0  0  0  0  0  0  0  0
   -5.7330   11.0060   -8.0450 C   0  0  2  0  0  0  0  0  0  0  0  0
  -10.1020   10.2200   -7.1200 C   0  0  0  0  0  0  0  0  0  0  0  0
  -11.0220   11.3320   -7.0780 C   0  0  0  0  0  0  0  0  0  0  0  0
   -6.9722    7.7629   -7.7420 H   0  0  0  0  0  0  0  0  0  0  0  0
   -6.3126    9.5036  -10.8498 H   0  0  0  0  0  0  0  0  0  0  0  0
  -12.9440   12.9753   -7.0299 H   0  0  0  0  0  0  0  0  0  0  0  0
  -14.2715   11.8634   -6.9906 H   0  0  0  0  0  0  0  0  0  0  0  0
   -4.6803   12.6539   -7.3277 H   0  0  0  0  0  0  0  0  0  0  0  0
   -4.6436   12.5300   -8.9555 H   0  0  0  0  0  0  0  0  0  0  0  0
  -12.2191    7.7841   -7.0980 H   0  0  0  0  0  0  0  0  0  0  0  0
   -8.2608   12.7691   -7.1537 H   0  0  0  0  0  0  0  0  0  0  0  0
   -8.2893    9.3594   -9.0967 H   0  0  0  0  0  0  0  0  0  0  0  0
   -7.2172   11.3883   -9.4493 H   0  0  0  0  0  0  0  0  0  0  0  0
   -7.6924    9.2326   -6.5496 H   0  0  0  0  0  0  0  0  0  0  0  0
   -4.9596   10.3744   -7.9902 H   0  0  0  0  0  0  0  0  0  0  0  0
  1  3  2  0  0  0  0
  1  4  1  0  0  0  0
  1  5  1  0  0  0  0
  1 10  1  0  0  0  0
  2  6  2  0  0  0  0
  2  7  1  0  0  0  0
  2 10  1  0  0  0  0
  2 11  1  0  0  0  0
  8 21  1  0  0  0  0
  9 22  1  0  0  0  0
 11 18  1  0  0  0  0
 12 23  1  0  0  0  0
 12 25  1  0  0  0  0
 13 24  1  0  0  0  0
 14 19  1  0  0  0  0
 14 24  2  0  0  0  0
 15 19  2  0  0  0  0
 15 26  1  0  0  0  0
 16 20  2  0  0  0  0
 16 27  1  0  0  0  0
 17 20  1  0  0  0  0
 17 23  1  0  0  0  0
 17 26  1  0  0  0  0
 18 25  1  0  0  0  0
 21 22  1  0  0  0  0
 21 23  1  0  0  0  0
 22 25  1  0  0  0  0
 24 27  1  0  0  0  0
 26 27  2  0  0  0  0
 25 39  1  0  0  0  0
 23 38  1  0  0  0  0
 22 37  1  0  0  0  0
  8 28  1  0  0  0  0
  9 29  1  0  0  0  0
 13 30  1  0  0  0  0
 13 31  1  0  0  0  0
 18 32  1  0  0  0  0
 18 33  1  0  0  0  0
 19 34  1  0  0  0  0
 20 35  1  0  0  0  0
 21 36  1  0  0  0  0
M  CHG  3   4  -1   5  -1   7  -1
M  END
$$$$
6EM6_RIP_C_101
prProtoss 08292323543D 1   1.00000     0.00000     0
Protoss beta proteinsplus
  7  6  0  0  0  0            999 V2000
    0.5730    9.2790  -12.0730 O   0  0  0  0  0  0  0  0  0  0  0  0
    1.6760    8.1280  -13.7520 O   0  0  0  0  0  0  0  0  0  0  0  0
    1.2180    8.0560  -12.4210 C   0  0  0  0  0  0  0  0  0  0  0  0
    0.2482    9.2276  -11.1286 H   0  0  0  0  0  0  0  0  0  0  0  0
    0.5693    7.3001  -12.3322 H   0  0  0  0  0  0  0  0  0  0  0  0
    1.9941    7.9028  -11.8093 H   0  0  0  0  0  0  0  0  0  0  0  0
    0.7350    8.3320  -14.7300 R#  0  0  0  0  0  0  0  0  0  0  0  0
  3  6  1  0  0  0  0
  3  5  1  0  0  0  0
  2  7  1  0  0  0  0
  1  3  1  0  0  0  0
  2  3  1  0  0  0  0
  1  4  1  0  0  0  0
M  RGP  1   7   1
M  END
$$$$
6EM7_MPD_A_401
prProtoss 08292323543D 1   1.00000     0.00000     0
Protoss beta proteinsplus
 22 21  0  0  0  0            999 V2000
   -9.0320  -12.7640   -0.0630 O   0  0  0  0  0  0  0  0  0  0  0  0
  -10.1630  -13.8700   -2.3020 O   0  0  0  0  0  0  0  0  0  0  0  0
   -9.2920  -13.7850    2.1040 C   0  0  0  0  0  0  0  0  0  0  0  0
  -10.3280  -16.1630   -1.5650 C   0  0  0  0  0  0  0  0  0  0  0  0
  -12.3820  -14.7200   -1.9280 C   0  0  0  0  0  0  0  0  0  0  0  0
  -10.8540  -14.2670    0.0420 C   0  0  0  0  0  0  0  0  0  0  0  0
   -9.4450  -13.9560    0.5730 C   0  0  1  0  0  0  0  0  0  0  0  0
  -10.9250  -14.7540   -1.4320 C   0  0  0  0  0  0  0  0  0  0  0  0
   -8.0755  -12.5798    0.1630 H   0  0  0  0  0  0  0  0  0  0  0  0
   -9.7443  -13.1445   -1.7558 H   0  0  0  0  0  0  0  0  0  0  0  0
   -9.5821  -14.6243    2.5638 H   0  0  0  0  0  0  0  0  0  0  0  0
   -8.3347  -13.5979    2.3245 H   0  0  0  0  0  0  0  0  0  0  0  0
   -9.8603  -13.0223    2.4127 H   0  0  0  0  0  0  0  0  0  0  0  0
  -10.8321  -16.7955   -0.9770 H   0  0  0  0  0  0  0  0  0  0  0  0
  -10.3962  -16.4655   -2.5157 H   0  0  0  0  0  0  0  0  0  0  0  0
   -9.3670  -16.1453   -1.2889 H   0  0  0  0  0  0  0  0  0  0  0  0
  -12.9432  -15.3171   -1.3549 H   0  0  0  0  0  0  0  0  0  0  0  0
  -12.7302  -13.7841   -1.8755 H   0  0  0  0  0  0  0  0  0  0  0  0
  -12.4189  -15.0368   -2.8758 H   0  0  0  0  0  0  0  0  0  0  0  0
  -11.4018  -13.4338    0.1172 H   0  0  0  0  0  0  0  0  0  0  0  0
  -11.2503  -14.9798    0.6207 H   0  0  0  0  0  0  0  0  0  0  0  0
   -8.8339  -14.6915    0.2804 H   0  0  0  0  0  0  0  0  0  0  0  0
  1  7  1  0  0  0  0
  2  8  1  0  0  0  0
  3  7  1  0  0  0  0
  4  8  1  0  0  0  0
  5  8  1  0  0  0  0
  6  7  1  0  0  0  0
  6  8  1  0  0  0  0
  1  9  1  0  0  0  0
  2 10  1  0  0  0  0
  3 11  1  0  0  0  0
  3 12  1  0  0  0  0
  3 13  1  0  0  0  0
  4 14  1  0  0  0  0
  4 15  1  0  0  0  0
  4 16  1  0  0  0  0
  5 17  1  0  0  0  0
  5 18  1  0  0  0  0
  5 19  1  0  0  0  0
  6 20  1  0  0  0  0
  6 21  1  0  0  0  0
  7 22  1  0  0  0  0
M  END
$$$$
6EM7_MPD_A_402
prProtoss 08292323543D 1   1.00000     0.00000     0
Protoss beta proteinsplus
 22 21  0  0  0  0            999 V2000
   -9.3580  -40.4210   19.1100 O   0  0  0  0  0  0  0  0  0  0  0  0
   -9.9570  -41.5990   16.5150 O   0  0  0  0  0  0  0  0  0  0  0  0
  -11.3690  -39.3800   19.9420 C   0  0  0  0  0  0  0  0  0  0  0  0
  -11.6130  -40.3000   15.2920 C   0  0  0  0  0  0  0  0  0  0  0  0
   -9.2060  -39.5380   15.5880 C   0  0  0  0  0  0  0  0  0  0  0  0
  -10.8190  -39.4400   17.5250 C   0  0  0  0  0  0  0  0  0  0  0  0
  -10.7250  -40.1970   18.8290 C   0  0  1  0  0  0  0  0  0  0  0  0
  -10.4130  -40.2200   16.2570 C   0  0  0  0  0  0  0  0  0  0  0  0
   -9.2724  -40.9206   19.9720 H   0  0  0  0  0  0  0  0  0  0  0  0
   -9.5611  -41.6532   17.4317 H   0  0  0  0  0  0  0  0  0  0  0  0
  -12.3345  -39.2299   19.7294 H   0  0  0  0  0  0  0  0  0  0  0  0
  -11.2913  -39.8756   20.8070 H   0  0  0  0  0  0  0  0  0  0  0  0
  -10.9039  -38.4982   20.0201 H   0  0  0  0  0  0  0  0  0  0  0  0
  -11.9460  -39.3775   15.0970 H   0  0  0  0  0  0  0  0  0  0  0  0
  -11.3268  -40.7381   14.4398 H   0  0  0  0  0  0  0  0  0  0  0  0
  -12.3444  -40.8363   15.7133 H   0  0  0  0  0  0  0  0  0  0  0  0
   -9.4345  -38.5874   15.3777 H   0  0  0  0  0  0  0  0  0  0  0  0
   -8.4226  -39.5630   16.2090 H   0  0  0  0  0  0  0  0  0  0  0  0
   -8.9768  -40.0206   14.7427 H   0  0  0  0  0  0  0  0  0  0  0  0
  -10.2255  -38.6381   17.5937 H   0  0  0  0  0  0  0  0  0  0  0  0
  -11.7674  -39.1440   17.4112 H   0  0  0  0  0  0  0  0  0  0  0  0
  -11.1970  -41.0743   18.7416 H   0  0  0  0  0  0  0  0  0  0  0  0
  1  7  1  0  0  0  0
  2  8  1  0  0  0  0
  3  7  1  0  0  0  0
  4  8  1  0  0  0  0
  5  8  1  0  0  0  0
  6  7  1  0  0  0  0
  6  8  1  0  0  0  0
  1  9  1  0  0  0  0
  2 10  1  0  0  0  0
  3 11  1  0  0  0  0
  3 12  1  0  0  0  0
  3 13  1  0  0  0  0
  4 14  1  0  0  0  0
  4 15  1  0  0  0  0
  4 16  1  0  0  0  0
  5 17  1  0  0  0  0
  5 18  1  0  0  0  0
  5 19  1  0  0  0  0
  6 20  1  0  0  0  0
  6 21  1  0  0  0  0
  7 22  1  0  0  0  0
M  END
$$$$
6EM7_RIP_D_101
prProtoss 08292323543D 1   1.00000     0.00000     0
Protoss beta proteinsplus
 18 18  0  0  0  0            999 V2000
   -6.7940  -29.2060   28.2940 O   0  0  0  0  0  0  0  0  0  0  0  0
   -7.5950  -28.6530   30.6970 O   0  0  0  0  0  0  0  0  0  0  0  0
   -6.0900  -26.5890   29.2820 O   0  0  0  0  0  0  0  0  0  0  0  0
   -5.2270  -27.3790   28.4640 C   0  0  1  0  0  0  0  0  0  0  0  0
   -5.9750  -26.8660   30.6880 C   0  0  0  0  0  0  0  0  0  0  0  0
   -5.2990  -29.1950   30.1710 C   0  0  0  0  0  0  0  0  0  0  0  0
   -5.4750  -28.8660   28.6990 C   0  0  1  0  0  0  0  0  0  0  0  0
   -6.2360  -28.3290   30.9980 C   0  0  2  0  0  0  0  0  0  0  0  0
   -5.3494  -27.1496   27.4984 H   0  0  0  0  0  0  0  0  0  0  0  0
   -6.6396  -26.3067   31.1835 H   0  0  0  0  0  0  0  0  0  0  0  0
   -5.0509  -26.6312   30.9896 H   0  0  0  0  0  0  0  0  0  0  0  0
   -4.3532  -29.0161   30.4420 H   0  0  0  0  0  0  0  0  0  0  0  0
   -5.5132  -30.1596   30.3251 H   0  0  0  0  0  0  0  0  0  0  0  0
   -4.8192  -29.3974   28.1627 H   0  0  0  0  0  0  0  0  0  0  0  0
   -6.0657  -28.4949   31.9693 H   0  0  0  0  0  0  0  0  0  0  0  0
   -7.4188  -29.0960   29.0670 H   0  0  0  0  0  0  0  0  0  0  0  0
   -7.9063  -29.3828   31.3056 H   0  0  0  0  0  0  0  0  0  0  0  0
   -3.9540  -27.0680   28.8780 R#  0  0  0  0  0  0  0  0  0  0  0  0
  6  8  1  0  0  0  0
  4 18  1  0  0  0  0
  1  7  1  0  0  0  0
  2  8  1  0  0  0  0
  3  4  1  0  0  0  0
  3  5  1  0  0  0  0
  4  7  1  0  0  0  0
  5  8  1  0  0  0  0
  6  7  1  0  0  0  0
  4  9  1  0  0  0  0
  5 10  1  0  0  0  0
  5 11  1  0  0  0  0
  6 12  1  0  0  0  0
  6 13  1  0  0  0  0
  7 14  1  0  0  0  0
  8 15  1  0  0  0  0
  1 16  1  0  0  0  0
  2 17  1  0  0  0  0
M  RGP  1  18   1
M  END
$$$$
7UJX_ADP_E_401
prProtoss 08302301583D 1   1.00000     0.00000     0
Protoss beta proteinsplus
 39 41  0  0  0  0            999 V2000
   -2.7680   11.4130  -13.7100 P   0  0  0  0  0  0  0  0  0  0  0  0
   -5.5500   10.6290  -13.7890 P   0  0  0  0  0  0  0  0  0  0  0  0
   -2.6350   10.5860  -14.9650 O   0  0  0  0  0  0  0  0  0  0  0  0
   -2.8930   12.8990  -13.9940 O   0  5  0  0  0  0  0  0  0  0  0  0
   -1.7470   11.1280  -12.6430 O   0  5  0  0  0  0  0  0  0  0  0  0
   -5.3620   10.2630  -15.2460 O   0  0  0  0  0  0  0  0  0  0  0  0
   -6.5380   11.6930  -13.4050 O   0  5  0  0  0  0  0  0  0  0  0  0
   -7.3110    4.5270  -14.4900 O   0  0  0  0  0  0  0  0  0  0  0  0
   -5.7560    6.3660  -15.8230 O   0  0  0  0  0  0  0  0  0  0  0  0
   -4.1340   10.8590  -13.0340 O   0  0  0  0  0  0  0  0  0  0  0  0
   -5.9820    9.2890  -13.0350 O   0  0  0  0  0  0  0  0  0  0  0  0
   -6.8170    6.7090  -12.3940 O   0  0  0  0  0  0  0  0  0  0  0  0
  -13.3760    9.0490  -12.2860 N   0  0  0  0  0  0  0  0  0  0  0  0
  -13.1950    6.7040  -12.1050 N   0  0  0  0  0  0  0  0  0  0  0  0
  -11.1150    5.5980  -12.3680 N   0  0  0  0  0  0  0  0  0  0  0  0
  -10.3150    8.9800  -12.8190 N   0  0  0  0  0  0  0  0  0  0  0  0
   -9.1730    7.0940  -12.8270 N   0  0  0  0  0  0  0  0  0  0  0  0
   -5.0740    8.2200  -13.1130 C   0  0  0  0  0  0  0  0  0  0  0  0
  -12.4420    5.5880  -12.1400 C   0  0  0  0  0  0  0  0  0  0  0  0
   -9.0920    8.4230  -12.9640 C   0  0  0  0  0  0  0  0  0  0  0  0
   -7.7110    5.8980  -14.4200 C   0  0  2  0  0  0  0  0  0  0  0  0
   -6.5720    6.8530  -14.7740 C   0  0  1  0  0  0  0  0  0  0  0  0
   -8.0340    6.1670  -12.9480 C   0  0  1  0  0  0  0  0  0  0  0  0
  -12.6440    7.9220  -12.3030 C   0  0  0  0  0  0  0  0  0  0  0  0
   -5.8310    6.9450  -13.4280 C   0  0  2  0  0  0  0  0  0  0  0  0
  -10.4410    6.7500  -12.5800 C   0  0  0  0  0  0  0  0  0  0  0  0
  -11.1950    8.0030  -12.5660 C   0  0  0  0  0  0  0  0  0  0  0  0
   -6.5950    4.4235  -15.1804 H   0  0  0  0  0  0  0  0  0  0  0  0
   -6.3116    6.2347  -16.6440 H   0  0  0  0  0  0  0  0  0  0  0  0
  -12.9351    9.9339  -12.4364 H   0  0  0  0  0  0  0  0  0  0  0  0
  -14.3615    9.0027  -12.1230 H   0  0  0  0  0  0  0  0  0  0  0  0
   -4.5994    8.1198  -12.2385 H   0  0  0  0  0  0  0  0  0  0  0  0
   -4.4067    8.4000  -13.8357 H   0  0  0  0  0  0  0  0  0  0  0  0
  -12.8911    4.7074  -11.9890 H   0  0  0  0  0  0  0  0  0  0  0  0
   -8.2496    8.9299  -13.1469 H   0  0  0  0  0  0  0  0  0  0  0  0
   -8.5101    6.0664  -14.9971 H   0  0  0  0  0  0  0  0  0  0  0  0
   -6.9431    7.7485  -15.0197 H   0  0  0  0  0  0  0  0  0  0  0  0
   -8.2544    5.3052  -12.4912 H   0  0  0  0  0  0  0  0  0  0  0  0
   -5.1751    6.1909  -13.3946 H   0  0  0  0  0  0  0  0  0  0  0  0
  1  3  2  0  0  0  0
  1  4  1  0  0  0  0
  1  5  1  0  0  0  0
  1 10  1  0  0  0  0
  2  6  2  0  0  0  0
  2  7  1  0  0  0  0
  2 10  1  0  0  0  0
  2 11  1  0  0  0  0
  8 21  1  0  0  0  0
  9 22  1  0  0  0  0
 11 18  1  0  0  0  0
 12 23  1  0  0  0  0
 12 25  1  0  0  0  0
 13 24  1  0  0  0  0
 14 19  1  0  0  0  0
 14 24  2  0  0  0  0
 15 19  2  0  0  0  0
 15 26  1  0  0  0  0
 16 20  2  0  0  0  0
 16 27  1  0  0  0  0
 17 20  1  0  0  0  0
 17 23  1  0  0  0  0
 17 26  1  0  0  0  0
 18 25  1  0  0  0  0
 21 22  1  0  0  0  0
 21 23  1  0  0  0  0
 22 25  1  0  0  0  0
 24 27  1  0  0  0  0
 26 27  2  0  0  0  0
 25 39  1  0  0  0  0
 23 38  1  0  0  0  0
 22 37  1  0  0  0  0
  8 28  1  0  0  0  0
  9 29  1  0  0  0  0
 13 30  1  0  0  0  0
 13 31  1  0  0  0  0
 18 32  1  0  0  0  0
 18 33  1  0  0  0  0
 19 34  1  0  0  0  0
 20 35  1  0  0  0  0
 21 36  1  0  0  0  0
M  CHG  3   4  -1   5  -1   7  -1
M  END
$$$$
7UJX_PO4_E_402
prProtoss 08302301583D 1   1.00000     0.00000     0
Protoss beta proteinsplus
  5  4  0  0  0  0            999 V2000
   -0.9610   11.5580  -17.6620 P   0  0  0  0  0  0  0  0  0  0  0  0
   -0.5820   12.2400  -18.9620 O   0  0  0  0  0  0  0  0  0  0  0  0
   -2.2640   10.8200  -17.8640 O   0  5  0  0  0  0  0  0  0  0  0  0
   -1.1040   12.5720  -16.5540 O   0  5  0  0  0  0  0  0  0  0  0  0
    0.1100   10.5690  -17.2840 O   0  5  0  0  0  0  0  0  0  0  0  0
  1  2  2  0  0  0  0
  1  3  1  0  0  0  0
  1  4  1  0  0  0  0
  1  5  1  0  0  0  0
M  CHG  3   3  -1   4  -1   5  -1
M  END
$$$$
7UJX_PO4_E_405
prProtoss 08302301583D 1   1.00000     0.00000     0
Protoss beta proteinsplus
  5  4  0  0  0  0            999 V2000
  -13.3910   23.9930  -32.9430 P   0  0  0  0  0  0  0  0  0  0  0  0
  -13.4460   23.2520  -34.2580 O   0  0  0  0  0  0  0  0  0  0  0  0
  -13.5040   25.4870  -33.1430 O   0  5  0  0  0  0  0  0  0  0  0  0
  -12.0970   23.6940  -32.2690 O   0  5  0  0  0  0  0  0  0  0  0  0
  -14.4200   23.4690  -31.9810 O   0  5  0  0  0  0  0  0  0  0  0  0
  1  2  2  0  0  0  0
  1  3  1  0  0  0  0
  1  4  1  0  0  0  0
  1  5  1  0  0  0  0
M  CHG  3   3  -1   4  -1   5  -1
M  END
$$$$
7V0G_ADP_E_401
prProtoss 08302302003D 1   1.00000     0.00000     0
Protoss beta proteinsplus
 39 41  0  0  0  0            999 V2000
   -2.7640   11.3890  -13.6810 P   0  0  0  0  0  0  0  0  0  0  0  0
   -5.5580   10.5900  -13.7860 P   0  0  0  0  0  0  0  0  0  0  0  0
   -2.5400   10.6030  -14.9590 O   0  0  0  0  0  0  0  0  0  0  0  0
   -2.9290   12.8740  -13.8900 O   0  5  0  0  0  0  0  0  0  0  0  0
   -1.7650   11.0460  -12.6320 O   0  5  0  0  0  0  0  0  0  0  0  0
   -5.2790   10.2580  -15.2260 O   0  0  0  0  0  0  0  0  0  0  0  0
   -6.5550   11.6590  -13.4360 O   0  5  0  0  0  0  0  0  0  0  0  0
   -7.2040    4.5730  -14.4650 O   0  0  0  0  0  0  0  0  0  0  0  0
   -5.7610    6.5550  -15.7890 O   0  0  0  0  0  0  0  0  0  0  0  0
   -4.1480   10.8810  -13.0480 O   0  0  0  0  0  0  0  0  0  0  0  0
   -6.0080    9.2540  -13.0090 O   0  0  0  0  0  0  0  0  0  0  0  0
   -6.9540    6.6830  -12.3830 O   0  0  0  0  0  0  0  0  0  0  0  0
  -13.3300    9.0080  -12.2110 N   0  0  0  0  0  0  0  0  0  0  0  0
  -13.1520    6.6670  -12.0630 N   0  0  0  0  0  0  0  0  0  0  0  0
  -11.0950    5.5540  -12.3900 N   0  0  0  0  0  0  0  0  0  0  0  0
  -10.3470    9.0020  -12.7900 N   0  0  0  0  0  0  0  0  0  0  0  0
   -9.2220    7.0720  -12.8620 N   0  0  0  0  0  0  0  0  0  0  0  0
   -5.1440    8.1340  -13.0850 C   0  0  0  0  0  0  0  0  0  0  0  0
  -12.4090    5.5500  -12.1300 C   0  0  0  0  0  0  0  0  0  0  0  0
   -9.1350    8.4230  -12.9840 C   0  0  0  0  0  0  0  0  0  0  0  0
   -7.7320    5.8800  -14.4410 C   0  0  2  0  0  0  0  0  0  0  0  0
   -6.6330    6.8910  -14.7260 C   0  0  1  0  0  0  0  0  0  0  0  0
   -8.1130    6.1120  -12.9890 C   0  0  1  0  0  0  0  0  0  0  0  0
  -12.6160    7.8850  -12.2600 C   0  0  0  0  0  0  0  0  0  0  0  0
   -5.9280    6.8750  -13.3660 C   0  0  2  0  0  0  0  0  0  0  0  0
  -10.4590    6.7280  -12.5930 C   0  0  0  0  0  0  0  0  0  0  0  0
  -11.1960    7.9850  -12.5360 C   0  0  0  0  0  0  0  0  0  0  0  0
   -6.8129    4.3880  -15.3666 H   0  0  0  0  0  0  0  0  0  0  0  0
   -6.2866    6.4621  -16.6346 H   0  0  0  0  0  0  0  0  0  0  0  0
  -12.8852    9.8904  -12.3645 H   0  0  0  0  0  0  0  0  0  0  0  0
  -14.3109    8.9689  -12.0207 H   0  0  0  0  0  0  0  0  0  0  0  0
   -4.6604    8.0326  -12.2156 H   0  0  0  0  0  0  0  0  0  0  0  0
   -4.4816    8.2794  -13.8199 H   0  0  0  0  0  0  0  0  0  0  0  0
  -12.8599    4.6705  -11.9780 H   0  0  0  0  0  0  0  0  0  0  0  0
   -8.2930    8.9221  -13.1887 H   0  0  0  0  0  0  0  0  0  0  0  0
   -8.5118    5.9846  -15.0582 H   0  0  0  0  0  0  0  0  0  0  0  0
   -7.0350    7.7920  -14.8890 H   0  0  0  0  0  0  0  0  0  0  0  0
   -8.3479    5.2464  -12.5468 H   0  0  0  0  0  0  0  0  0  0  0  0
   -5.3040    6.0942  -13.3364 H   0  0  0  0  0  0  0  0  0  0  0  0
  1  3  2  0  0  0  0
  1  4  1  0  0  0  0
  1  5  1  0  0  0  0
  1 10  1  0  0  0  0
  2  6  2  0  0  0  0
  2  7  1  0  0  0  0
  2 10  1  0  0  0  0
  2 11  1  0  0  0  0
  8 21  1  0  0  0  0
  9 22  1  0  0  0  0
 11 18  1  0  0  0  0
 12 23  1  0  0  0  0
 12 25  1  0  0  0  0
 13 24  1  0  0  0  0
 14 19  1  0  0  0  0
 14 24  2  0  0  0  0
 15 19  2  0  0  0  0
 15 26  1  0  0  0  0
 16 20  2  0  0  0  0
 16 27  1  0  0  0  0
 17 20  1  0  0  0  0
 17 23  1  0  0  0  0
 17 26  1  0  0  0  0
 18 25  1  0  0  0  0
 21 22  1  0  0  0  0
 21 23  1  0  0  0  0
 22 25  1  0  0  0  0
 24 27  1  0  0  0  0
 26 27  2  0  0  0  0
 25 39  1  0  0  0  0
 23 38  1  0  0  0  0
 22 37  1  0  0  0  0
  8 28  1  0  0  0  0
  9 29  1  0  0  0  0
 13 30  1  0  0  0  0
 13 31  1  0  0  0  0
 18 32  1  0  0  0  0
 18 33  1  0  0  0  0
 19 34  1  0  0  0  0
 20 35  1  0  0  0  0
 21 36  1  0  0  0  0
M  CHG  3   4  -1   5  -1   7  -1
M  END
$$$$
7V0G_PO4_E_402
prProtoss 08302302003D 1   1.00000     0.00000     0
Protoss beta proteinsplus
  5  4  0  0  0  0            999 V2000
   -0.9700   11.5120  -17.6610 P   0  0  0  0  0  0  0  0  0  0  0  0
   -0.4990   12.1760  -18.9650 O   0  0  0  0  0  0  0  0  0  0  0  0
   -2.2840   10.8090  -17.7810 O   0  5  0  0  0  0  0  0  0  0  0  0
   -1.1060   12.6070  -16.5770 O   0  5  0  0  0  0  0  0  0  0  0  0
    0.1540   10.5770  -17.3030 O   0  5  0  0  0  0  0  0  0  0  0  0
  1  2  2  0  0  0  0
  1  3  1  0  0  0  0
  1  4  1  0  0  0  0
  1  5  1  0  0  0  0
M  CHG  3   3  -1   4  -1   5  -1
M  END
$$$$
7V0G_PO4_E_405
prProtoss 08302302003D 1   1.00000     0.00000     0
Protoss beta proteinsplus
  5  4  0  0  0  0            999 V2000
  -13.1610   23.8840  -32.7560 P   0  0  0  0  0  0  0  0  0  0  0  0
  -13.1650   23.3580  -34.1890 O   0  0  0  0  0  0  0  0  0  0  0  0
  -13.3860   25.3880  -32.7320 O   0  5  0  0  0  0  0  0  0  0  0  0
  -11.8190   23.5840  -32.1480 O   0  5  0  0  0  0  0  0  0  0  0  0
  -14.2780   23.2150  -31.9980 O   0  5  0  0  0  0  0  0  0  0  0  0
  1  2  2  0  0  0  0
  1  3  1  0  0  0  0
  1  4  1  0  0  0  0
  1  5  1  0  0  0  0
M  CHG  3   3  -1   4  -1   5  -1
M  END
$$$$
5VIB_9D1_A_401
prProtoss 05262315293D 1   1.00000     0.00000     0
Protoss beta proteinsplus
 58 62  0  0  0  0            999 V2000
    5.2640   12.0580    8.5740 S   0  0  0  0  0  0  0  0  0  0  0  0
    1.3580   18.6020    5.1690 O   0  0  0  0  0  0  0  0  0  0  0  0
   12.7670    9.3630    7.5370 N   0  0  0  0  0  0  0  0  0  0  0  0
    6.0170   14.5840    8.3910 N   0  0  0  0  0  0  0  0  0  0  0  0
    2.2790   13.5980   11.6900 N   0  3  0  0  0  0  0  0  0  0  0  0
    3.6120   14.3500    8.7320 N   0  0  0  0  0  0  0  0  0  0  0  0
   12.8780   10.6860    7.6560 C   0  0  0  0  0  0  0  0  0  0  0  0
   11.5270    8.8620    7.4700 C   0  0  0  0  0  0  0  0  0  0  0  0
    1.6210   13.8350   10.3920 C   0  0  0  0  0  0  0  0  0  0  0  0
    2.3930   13.5510    9.0700 C   0  0  0  0  0  0  0  0  0  0  0  0
    2.7590   12.2170   11.9480 C   0  0  0  0  0  0  0  0  0  0  0  0
    1.4470   13.9580   12.8650 C   0  0  0  0  0  0  0  0  0  0  0  0
    3.3940   15.7660    8.3940 C   0  0  0  0  0  0  0  0  0  0  0  0
    1.6630   11.5190   12.7460 C   0  0  0  0  0  0  0  0  0  0  0  0
    0.9230   12.6580   13.4650 C   0  0  0  0  0  0  0  0  0  0  0  0
    2.9790   15.3820    4.6260 C   0  0  0  0  0  0  0  0  0  0  0  0
   11.8180   11.5560    7.7230 C   0  0  0  0  0  0  0  0  0  0  0  0
   10.3580    9.6440    7.5620 C   0  0  0  0  0  0  0  0  0  0  0  0
    2.3130   16.5580    4.3140 C   0  0  0  0  0  0  0  0  0  0  0  0
    8.4100   14.2820    7.9850 C   0  0  0  0  0  0  0  0  0  0  0  0
    3.3270   15.1050    5.9350 C   0  0  0  0  0  0  0  0  0  0  0  0
    9.4750   13.4010    7.8090 C   0  0  0  0  0  0  0  0  0  0  0  0
    7.9970   11.4630    8.1450 C   0  0  0  0  0  0  0  0  0  0  0  0
    2.3620   17.2020    6.6680 C   0  0  0  0  0  0  0  0  0  0  0  0
    4.9170   13.8290    8.5840 C   0  0  0  0  0  0  0  0  0  0  0  0
    6.9340   12.3740    8.3100 C   0  0  0  0  0  0  0  0  0  0  0  0
    2.0060   17.4460    5.3490 C   0  0  0  0  0  0  0  0  0  0  0  0
    7.1380   13.7710    8.2370 C   0  0  0  0  0  0  0  0  0  0  0  0
    3.0140   16.0420    6.9710 C   0  0  0  0  0  0  0  0  0  0  0  0
   10.4960   11.0600    7.7030 C   0  0  0  0  0  0  0  0  0  0  0  0
    9.3080   11.9760    7.8900 C   0  0  0  0  0  0  0  0  0  0  0  0
    1.1675   19.1955    5.9510 H   0  0  0  0  0  0  0  0  0  0  0  0
   13.7993   11.0725    7.6996 H   0  0  0  0  0  0  0  0  0  0  0  0
   11.4243    7.8749    7.3475 H   0  0  0  0  0  0  0  0  0  0  0  0
    1.3583   14.7997   10.3724 H   0  0  0  0  0  0  0  0  0  0  0  0
    0.7993   13.2653   10.3756 H   0  0  0  0  0  0  0  0  0  0  0  0
    2.6750   12.5921    9.1001 H   0  0  0  0  0  0  0  0  0  0  0  0
    1.7434   13.6840    8.3215 H   0  0  0  0  0  0  0  0  0  0  0  0
    3.6087   12.2395   12.4748 H   0  0  0  0  0  0  0  0  0  0  0  0
    2.9151   11.7385   11.0839 H   0  0  0  0  0  0  0  0  0  0  0  0
    0.6824   14.5355   12.5789 H   0  0  0  0  0  0  0  0  0  0  0  0
    2.0003   14.4474   13.5390 H   0  0  0  0  0  0  0  0  0  0  0  0
    4.2402   16.2622    8.5881 H   0  0  0  0  0  0  0  0  0  0  0  0
    2.6621   16.1130    8.9805 H   0  0  0  0  0  0  0  0  0  0  0  0
    2.0589   10.8821   13.4075 H   0  0  0  0  0  0  0  0  0  0  0  0
    1.0432   11.0243   12.1368 H   0  0  0  0  0  0  0  0  0  0  0  0
   -0.0624   12.5798   13.3139 H   0  0  0  0  0  0  0  0  0  0  0  0
    1.1131   12.6287   14.4463 H   0  0  0  0  0  0  0  0  0  0  0  0
    3.2083   14.7321    3.9014 H   0  0  0  0  0  0  0  0  0  0  0  0
   11.9820   12.5404    7.7859 H   0  0  0  0  0  0  0  0  0  0  0  0
    9.4536    9.2185    7.5294 H   0  0  0  0  0  0  0  0  0  0  0  0
    2.0581   16.7660    3.3697 H   0  0  0  0  0  0  0  0  0  0  0  0
    8.5566   15.2697    7.9311 H   0  0  0  0  0  0  0  0  0  0  0  0
    3.7969   14.2509    6.1579 H   0  0  0  0  0  0  0  0  0  0  0  0
   10.3843   13.7720    7.6204 H   0  0  0  0  0  0  0  0  0  0  0  0
    7.8379   10.4776    8.2050 H   0  0  0  0  0  0  0  0  0  0  0  0
    2.1444   17.8650    7.3843 H   0  0  0  0  0  0  0  0  0  0  0  0
    3.0838   14.1909   11.7160 H   0  0  0  0  0  0  0  0  0  0  0  0
  1 25  1  0  0  0  0
  1 26  1  0  0  0  0
  2 27  1  0  0  0  0
  3  7  2  0  0  0  0
  3  8  1  0  0  0  0
  4 25  2  0  0  0  0
  4 28  1  0  0  0  0
  5  9  1  0  0  0  0
  5 11  1  0  0  0  0
  5 12  1  0  0  0  0
  6 10  1  0  0  0  0
  6 13  1  0  0  0  0
  6 25  1  0  0  0  0
  7 17  1  0  0  0  0
  8 18  2  0  0  0  0
  9 10  1  0  0  0  0
 11 14  1  0  0  0  0
 12 15  1  0  0  0  0
 13 29  1  0  0  0  0
 14 15  1  0  0  0  0
 16 19  1  0  0  0  0
 16 21  2  0  0  0  0
 17 30  2  0  0  0  0
 18 30  1  0  0  0  0
 19 27  2  0  0  0  0
 20 22  1  0  0  0  0
 20 28  2  0  0  0  0
 21 29  1  0  0  0  0
 22 31  2  0  0  0  0
 23 26  2  0  0  0  0
 23 31  1  0  0  0  0
 24 27  1  0  0  0  0
 24 29  2  0  0  0  0
 26 28  1  0  0  0  0
 30 31  1  0  0  0  0
  2 32  1  0  0  0  0
  7 33  1  0  0  0  0
  8 34  1  0  0  0  0
  9 35  1  0  0  0  0
  9 36  1  0  0  0  0
 10 37  1  0  0  0  0
 10 38  1  0  0  0  0
 11 39  1  0  0  0  0
 11 40  1  0  0  0  0
 12 41  1  0  0  0  0
 12 42  1  0  0  0  0
 13 43  1  0  0  0  0
 13 44  1  0  0  0  0
 14 45  1  0  0  0  0
 14 46  1  0  0  0  0
 15 47  1  0  0  0  0
 15 48  1  0  0  0  0
 16 49  1  0  0  0  0
 17 50  1  0  0  0  0
 18 51  1  0  0  0  0
 19 52  1  0  0  0  0
 20 53  1  0  0  0  0
 21 54  1  0  0  0  0
 22 55  1  0  0  0  0
 23 56  1  0  0  0  0
 24 57  1  0  0  0  0
  5 58  1  0  0  0  0
M  CHG  1   5   1
M  END
$$$$
3L9L_L9L_A_351
prProtoss 05262315103D 1   1.00000     0.00000     0
Protoss beta proteinsplus
 50 53  0  0  0  0            999 V2000
   30.4850    3.3240    7.4590 S   0  0  0  0  0  0  0  0  0  0  0  0
   28.6550    3.7990   11.8450 F   0  0  0  0  0  0  0  0  0  0  0  0
   27.3350    2.2900   12.8090 F   0  0  0  0  0  0  0  0  0  0  0  0
   26.4330    3.6470   11.1910 F   0  0  0  0  0  0  0  0  0  0  0  0
   25.3400    8.4900   10.7180 O   0  0  0  0  0  0  0  0  0  0  0  0
   30.5480   -1.0390    5.3660 N   0  3  0  0  0  0  0  0  0  0  0  0
   31.9030    3.7860    5.3270 N   0  0  0  0  0  0  0  0  0  0  0  0
   32.0410    1.4530    6.1440 N   0  0  0  0  0  0  0  0  0  0  0  0
   26.5810    8.5670    8.8350 N   0  0  0  0  0  0  0  0  0  0  0  0
   31.2020    4.9580    5.5640 C   0  0  0  0  0  0  0  0  0  0  0  0
   31.4900    0.4680    7.0710 C   0  0  0  0  0  0  0  0  0  0  0  0
   27.8380    0.8960    8.2950 C   0  0  0  0  0  0  0  0  0  0  0  0
   29.5610    0.0230    9.9600 C   0  0  0  0  0  0  0  0  0  0  0  0
   28.0410    8.0320    6.8960 C   0  0  0  0  0  0  0  0  0  0  0  0
   28.9430    7.0250    6.4340 C   0  0  0  0  0  0  0  0  0  0  0  0
   27.4180    1.8890    9.2580 C   0  0  0  0  0  0  0  0  0  0  0  0
   29.1460    1.0400   10.8900 C   0  0  0  0  0  0  0  0  0  0  0  0
   29.4060   -0.9170    7.5860 C   0  0  0  0  0  0  0  0  0  0  0  0
   27.1220    6.8330   10.3540 C   0  0  0  0  0  0  0  0  0  0  0  0
   28.7780    5.7380    8.5770 C   0  0  0  0  0  0  0  0  0  0  0  0
   31.6230    2.8360    6.2550 C   0  0  0  0  0  0  0  0  0  0  0  0
   30.3570    4.8600    6.7270 C   0  0  0  0  0  0  0  0  0  0  0  0
   26.2330    8.0430   10.0240 C   0  0  0  0  0  0  0  0  0  0  0  0
   30.2010   -0.1500    6.5220 C   0  0  2  0  0  0  0  0  0  0  0  0
   28.9070    0.0330    8.6730 C   0  0  0  0  0  0  0  0  0  0  0  0
   27.5230    7.8480    8.2330 C   0  0  0  0  0  0  0  0  0  0  0  0
   29.3600    5.8680    7.2270 C   0  0  0  0  0  0  0  0  0  0  0  0
   27.8710    6.7480    9.0430 C   0  0  0  0  0  0  0  0  0  0  0  0
   28.0290    1.9740   10.5960 C   0  0  0  0  0  0  0  0  0  0  0  0
   27.5650    3.0040   11.6880 C   0  0  0  0  0  0  0  0  0  0  0  0
   29.7132   -1.4490    4.9984 H   0  0  0  0  0  0  0  0  0  0  0  0
   30.9961   -0.4994    4.6533 H   0  0  0  0  0  0  0  0  0  0  0  0
   32.6977    1.1768    5.4423 H   0  0  0  0  0  0  0  0  0  0  0  0
   26.1792    9.3979    8.4501 H   0  0  0  0  0  0  0  0  0  0  0  0
   31.2743    5.7765    4.9941 H   0  0  0  0  0  0  0  0  0  0  0  0
   31.2913    0.9160    7.9426 H   0  0  0  0  0  0  0  0  0  0  0  0
   32.1636   -0.2569    7.2148 H   0  0  0  0  0  0  0  0  0  0  0  0
   27.3968    0.8180    7.4010 H   0  0  0  0  0  0  0  0  0  0  0  0
   30.2618   -0.6516   10.1919 H   0  0  0  0  0  0  0  0  0  0  0  0
   27.7840    8.8152    6.3299 H   0  0  0  0  0  0  0  0  0  0  0  0
   29.3131    7.1167    5.5095 H   0  0  0  0  0  0  0  0  0  0  0  0
   26.6951    2.5339    9.0100 H   0  0  0  0  0  0  0  0  0  0  0  0
   29.6259    1.1206   11.7636 H   0  0  0  0  0  0  0  0  0  0  0  0
   29.9956   -1.6101    8.0006 H   0  0  0  0  0  0  0  0  0  0  0  0
   28.6220   -1.3620    7.1532 H   0  0  0  0  0  0  0  0  0  0  0  0
   26.5856    6.0090   10.5365 H   0  0  0  0  0  0  0  0  0  0  0  0
   27.7316    7.0118   11.1263 H   0  0  0  0  0  0  0  0  0  0  0  0
   29.0119    4.9584    9.1579 H   0  0  0  0  0  0  0  0  0  0  0  0
   29.6240    0.5915    6.1796 H   0  0  0  0  0  0  0  0  0  0  0  0
   31.1661   -1.7617    5.6751 H   0  0  0  0  0  0  0  0  0  0  0  0
  1 21  1  0  0  0  0
  1 22  1  0  0  0  0
  2 30  1  0  0  0  0
  3 30  1  0  0  0  0
  4 30  1  0  0  0  0
  5 23  2  0  0  0  0
  6 24  1  0  0  0  0
  7 10  1  0  0  0  0
  7 21  2  0  0  0  0
  8 11  1  0  0  0  0
  8 21  1  0  0  0  0
  9 23  1  0  0  0  0
  9 26  1  0  0  0  0
 10 22  2  0  0  0  0
 11 24  1  0  0  0  0
 12 16  2  0  0  0  0
 12 25  1  0  0  0  0
 13 17  1  0  0  0  0
 13 25  2  0  0  0  0
 14 15  1  0  0  0  0
 14 26  2  0  0  0  0
 15 27  2  0  0  0  0
 16 29  1  0  0  0  0
 17 29  2  0  0  0  0
 18 24  1  0  0  0  0
 18 25  1  0  0  0  0
 19 23  1  0  0  0  0
 19 28  1  0  0  0  0
 20 27  1  0  0  0  0
 20 28  2  0  0  0  0
 22 27  1  0  0  0  0
 26 28  1  0  0  0  0
 29 30  1  0  0  0  0
  6 31  1  0  0  0  0
  6 32  1  0  0  0  0
  8 33  1  0  0  0  0
  9 34  1  0  0  0  0
 10 35  1  0  0  0  0
 11 36  1  0  0  0  0
 11 37  1  0  0  0  0
 12 38  1  0  0  0  0
 13 39  1  0  0  0  0
 14 40  1  0  0  0  0
 15 41  1  0  0  0  0
 16 42  1  0  0  0  0
 17 43  1  0  0  0  0
 18 44  1  0  0  0  0
 18 45  1  0  0  0  0
 19 46  1  0  0  0  0
 19 47  1  0  0  0  0
 20 48  1  0  0  0  0
 24 49  1  0  0  0  0
  6 50  1  0  0  0  0
M  CHG  1   6   1
M  END
$$$$
3L9L_L9L_B_351
prProtoss 05262315103D 1   1.00000     0.00000     0
Protoss beta proteinsplus
 50 53  0  0  0  0            999 V2000
   74.4970   94.2760   27.3910 S   0  0  0  0  0  0  0  0  0  0  0  0
   78.4460   93.7320   24.3840 F   0  0  0  0  0  0  0  0  0  0  0  0
   78.5770   95.3110   22.6890 F   0  0  0  0  0  0  0  0  0  0  0  0
   76.9290   93.7350   22.6830 F   0  0  0  0  0  0  0  0  0  0  0  0
   76.1080   88.9700   21.6290 O   0  0  0  0  0  0  0  0  0  0  0  0
   72.6480   98.6170   28.0160 N   0  3  0  0  0  0  0  0  0  0  0  0
   72.9650   93.7070   29.4420 N   0  0  0  0  0  0  0  0  0  0  0  0
   73.8210   96.0850   29.3760 N   0  0  0  0  0  0  0  0  0  0  0  0
   74.6400   88.9170   23.3400 N   0  0  0  0  0  0  0  0  0  0  0  0
   73.0250   92.5620   28.6730 C   0  0  0  0  0  0  0  0  0  0  0  0
   74.4910   97.0770   28.5370 C   0  0  0  0  0  0  0  0  0  0  0  0
   74.5800   96.5550   24.6330 C   0  0  0  0  0  0  0  0  0  0  0  0
   76.6270   97.5170   25.8240 C   0  0  0  0  0  0  0  0  0  0  0  0
   73.3310   89.3800   25.4000 C   0  0  0  0  0  0  0  0  0  0  0  0
   73.1950   90.4010   26.4080 C   0  0  0  0  0  0  0  0  0  0  0  0
   75.4190   95.5350   24.0720 C   0  0  0  0  0  0  0  0  0  0  0  0
   77.4530   96.5350   25.1670 C   0  0  0  0  0  0  0  0  0  0  0  0
   74.3100   98.3480   26.2830 C   0  0  0  0  0  0  0  0  0  0  0  0
   76.1790   90.7270   23.3230 C   0  0  0  0  0  0  0  0  0  0  0  0
   75.0150   91.8100   25.4380 C   0  0  0  0  0  0  0  0  0  0  0  0
   73.7240   94.7120   28.8710 C   0  0  0  0  0  0  0  0  0  0  0  0
   73.8230   92.6960   27.5100 C   0  0  0  0  0  0  0  0  0  0  0  0
   75.6600   89.4430   22.6480 C   0  0  0  0  0  0  0  0  0  0  0  0
   73.5870   97.6380   27.4310 C   0  0  2  0  0  0  0  0  0  0  0  0
   75.2230   97.4470   25.5390 C   0  0  0  0  0  0  0  0  0  0  0  0
   74.3470   89.6450   24.4170 C   0  0  0  0  0  0  0  0  0  0  0  0
   73.9960   91.6190   26.4690 C   0  0  0  0  0  0  0  0  0  0  0  0
   75.1690   90.8020   24.4350 C   0  0  0  0  0  0  0  0  0  0  0  0
   76.8820   95.5120   24.2540 C   0  0  0  0  0  0  0  0  0  0  0  0
   77.7710   94.4970   23.4540 C   0  0  0  0  0  0  0  0  0  0  0  0
   72.0579   98.9838   27.2968 H   0  0  0  0  0  0  0  0  0  0  0  0
   72.0867   98.1667   28.7103 H   0  0  0  0  0  0  0  0  0  0  0  0
   73.4408   96.3350   30.2665 H   0  0  0  0  0  0  0  0  0  0  0  0
   74.1577   88.0805   23.0800 H   0  0  0  0  0  0  0  0  0  0  0  0
   72.5492   91.7163   28.9145 H   0  0  0  0  0  0  0  0  0  0  0  0
   75.2871   96.6477   28.1104 H   0  0  0  0  0  0  0  0  0  0  0  0
   74.7914   97.8340   29.1172 H   0  0  0  0  0  0  0  0  0  0  0  0
   73.6099   96.6344   24.4036 H   0  0  0  0  0  0  0  0  0  0  0  0
   77.0095   98.2050   26.4408 H   0  0  0  0  0  0  0  0  0  0  0  0
   72.7656   88.5553   25.3852 H   0  0  0  0  0  0  0  0  0  0  0  0
   72.5022   90.2649   27.1162 H   0  0  0  0  0  0  0  0  0  0  0  0
   74.9927   94.8078   23.5340 H   0  0  0  0  0  0  0  0  0  0  0  0
   78.4395   96.5428   25.3308 H   0  0  0  0  0  0  0  0  0  0  0  0
   74.8441   99.1045   26.6603 H   0  0  0  0  0  0  0  0  0  0  0  0
   73.6264   98.7069   25.6475 H   0  0  0  0  0  0  0  0  0  0  0  0
   76.1327   91.5197   22.7152 H   0  0  0  0  0  0  0  0  0  0  0  0
   77.1127   90.6239   23.6658 H   0  0  0  0  0  0  0  0  0  0  0  0
   75.5914   92.6272   25.4342 H   0  0  0  0  0  0  0  0  0  0  0  0
   73.0549   96.8831   27.0476 H   0  0  0  0  0  0  0  0  0  0  0  0
   73.1638   99.3632   28.4369 H   0  0  0  0  0  0  0  0  0  0  0  0
  1 21  1  0  0  0  0
  1 22  1  0  0  0  0
  2 30  1  0  0  0  0
  3 30  1  0  0  0  0
  4 30  1  0  0  0  0
  5 23  2  0  0  0  0
  6 24  1  0  0  0  0
  7 10  1  0  0  0  0
  7 21  2  0  0  0  0
  8 11  1  0  0  0  0
  8 21  1  0  0  0  0
  9 23  1  0  0  0  0
  9 26  1  0  0  0  0
 10 22  2  0  0  0  0
 11 24  1  0  0  0  0
 12 16  2  0  0  0  0
 12 25  1  0  0  0  0
 13 17  1  0  0  0  0
 13 25  2  0  0  0  0
 14 15  1  0  0  0  0
 14 26  2  0  0  0  0
 15 27  2  0  0  0  0
 16 29  1  0  0  0  0
 17 29  2  0  0  0  0
 18 24  1  0  0  0  0
 18 25  1  0  0  0  0
 19 23  1  0  0  0  0
 19 28  1  0  0  0  0
 20 27  1  0  0  0  0
 20 28  2  0  0  0  0
 22 27  1  0  0  0  0
 26 28  1  0  0  0  0
 29 30  1  0  0  0  0
  6 31  1  0  0  0  0
  6 32  1  0  0  0  0
  8 33  1  0  0  0  0
  9 34  1  0  0  0  0
 10 35  1  0  0  0  0
 11 36  1  0  0  0  0
 11 37  1  0  0  0  0
 12 38  1  0  0  0  0
 13 39  1  0  0  0  0
 14 40  1  0  0  0  0
 15 41  1  0  0  0  0
 16 42  1  0  0  0  0
 17 43  1  0  0  0  0
 18 44  1  0  0  0  0
 18 45  1  0  0  0  0
 19 46  1  0  0  0  0
 19 47  1  0  0  0  0
 20 48  1  0  0  0  0
 24 49  1  0  0  0  0
  6 50  1  0  0  0  0
M  CHG  1   6   1
M  END
$$$$
2UZW_SS4_E_1351
prProtoss 05262315193D 1   1.00000     0.00000     0
Protoss beta proteinsplus
 50 53  0  0  0  0            999 V2000
   13.4210   13.7660   -0.2580 Br  0  0  0  0  0  0  0  0  0  0  0  0
   11.5360    8.2700    1.3020 O   0  0  0  0  0  0  0  0  0  0  0  0
   13.6300    6.9160    2.1450 N   0  3  0  0  0  0  0  0  0  0  0  0
    3.5640   10.1390    4.6220 N   0  0  0  0  0  0  0  0  0  0  0  0
    3.1350   10.0640    3.3510 N   0  0  0  0  0  0  0  0  0  0  0  0
    9.5540   10.0530   -1.1370 N   0  0  0  0  0  0  0  0  0  0  0  0
    5.6990   10.1280    5.9570 C   0  0  0  0  0  0  0  0  0  0  0  0
   11.5640    8.1640    2.7130 C   0  0  0  0  0  0  0  0  0  0  0  0
   10.5560    9.4380   -0.5080 C   0  0  0  0  0  0  0  0  0  0  0  0
    8.3560   10.1300   -0.5400 C   0  0  0  0  0  0  0  0  0  0  0  0
   13.2450   12.4490    2.2510 C   0  0  0  0  0  0  0  0  0  0  0  0
   14.0640   11.0930    0.4390 C   0  0  0  0  0  0  0  0  0  0  0  0
    4.3110    9.8230    1.1090 C   0  0  0  0  0  0  0  0  0  0  0  0
   13.3550   11.3610    3.1070 C   0  0  0  0  0  0  0  0  0  0  0  0
   14.1760   10.0120    1.3020 C   0  0  0  0  0  0  0  0  0  0  0  0
    5.5870    9.7070    0.5480 C   0  0  0  0  0  0  0  0  0  0  0  0
   13.8800    8.9450    3.5740 C   0  0  0  0  0  0  0  0  0  0  0  0
    9.1510    8.9540    1.3560 C   0  0  0  0  0  0  0  0  0  0  0  0
    6.5820    9.8180    2.7170 C   0  0  0  0  0  0  0  0  0  0  0  0
   13.5920   12.3090    0.9130 C   0  0  0  0  0  0  0  0  0  0  0  0
   10.4050    8.8710    0.7470 C   0  0  0  0  0  0  0  0  0  0  0  0
   12.9860    7.7560    3.1530 C   0  0  2  0  0  0  0  0  0  0  0  0
    4.8940   10.0690    4.6800 C   0  0  0  0  0  0  0  0  0  0  0  0
    4.1780    9.9350    2.4610 C   0  0  0  0  0  0  0  0  0  0  0  0
   13.8080   10.1290    2.6390 C   0  0  0  0  0  0  0  0  0  0  0  0
    8.0990    9.5910    0.7130 C   0  0  0  0  0  0  0  0  0  0  0  0
    6.7390    9.7030    1.3360 C   0  0  0  0  0  0  0  0  0  0  0  0
    5.3420    9.9340    3.2950 C   0  0  0  0  0  0  0  0  0  0  0  0
   14.5475    6.6671    2.4553 H   0  0  0  0  0  0  0  0  0  0  0  0
   13.0885    6.0868    2.0067 H   0  0  0  0  0  0  0  0  0  0  0  0
    2.1722   10.0978    3.0829 H   0  0  0  0  0  0  0  0  0  0  0  0
    6.6727   10.0556    5.7409 H   0  0  0  0  0  0  0  0  0  0  0  0
    5.5242   10.9962    6.4214 H   0  0  0  0  0  0  0  0  0  0  0  0
    5.4329    9.3712    6.5540 H   0  0  0  0  0  0  0  0  0  0  0  0
   10.9080    7.4705    3.0110 H   0  0  0  0  0  0  0  0  0  0  0  0
   11.3258    9.0453    3.1210 H   0  0  0  0  0  0  0  0  0  0  0  0
   11.4475    9.3842   -0.9578 H   0  0  0  0  0  0  0  0  0  0  0  0
    7.6133   10.5973   -1.0196 H   0  0  0  0  0  0  0  0  0  0  0  0
   12.9177   13.3287    2.5959 H   0  0  0  0  0  0  0  0  0  0  0  0
   14.3228   10.9960   -0.5221 H   0  0  0  0  0  0  0  0  0  0  0  0
    3.5014    9.8238    0.5220 H   0  0  0  0  0  0  0  0  0  0  0  0
   13.1063   11.4628    4.0702 H   0  0  0  0  0  0  0  0  0  0  0  0
   14.5249    9.1397    0.9595 H   0  0  0  0  0  0  0  0  0  0  0  0
    5.6763    9.6247   -0.4446 H   0  0  0  0  0  0  0  0  0  0  0  0
   14.8281    8.6288    3.6085 H   0  0  0  0  0  0  0  0  0  0  0  0
   13.5955    9.2455    4.4844 H   0  0  0  0  0  0  0  0  0  0  0  0
    9.0103    8.5520    2.2608 H   0  0  0  0  0  0  0  0  0  0  0  0
    7.3935    9.8159    3.3013 H   0  0  0  0  0  0  0  0  0  0  0  0
   12.8758    7.1849    3.9665 H   0  0  0  0  0  0  0  0  0  0  0  0
   13.6946    7.4195    1.2834 H   0  0  0  0  0  0  0  0  0  0  0  0
  1 20  1  0  0  0  0
  2  8  1  0  0  0  0
  2 21  1  0  0  0  0
  3 22  1  0  0  0  0
  4  5  1  0  0  0  0
  4 23  2  0  0  0  0
  5 24  1  0  0  0  0
  6  9  2  0  0  0  0
  6 10  1  0  0  0  0
  7 23  1  0  0  0  0
  8 22  1  0  0  0  0
  9 21  1  0  0  0  0
 10 26  2  0  0  0  0
 11 14  2  0  0  0  0
 11 20  1  0  0  0  0
 12 15  1  0  0  0  0
 12 20  2  0  0  0  0
 13 16  1  0  0  0  0
 13 24  2  0  0  0  0
 14 25  1  0  0  0  0
 15 25  2  0  0  0  0
 16 27  2  0  0  0  0
 17 22  1  0  0  0  0
 17 25  1  0  0  0  0
 18 21  2  0  0  0  0
 18 26  1  0  0  0  0
 19 27  1  0  0  0  0
 19 28  2  0  0  0  0
 23 28  1  0  0  0  0
 24 28  1  0  0  0  0
 26 27  1  0  0  0  0
  3 29  1  0  0  0  0
  3 30  1  0  0  0  0
  5 31  1  0  0  0  0
  7 32  1  0  0  0  0
  7 33  1  0  0  0  0
  7 34  1  0  0  0  0
  8 35  1  0  0  0  0
  8 36  1  0  0  0  0
  9 37  1  0  0  0  0
 10 38  1  0  0  0  0
 11 39  1  0  0  0  0
 12 40  1  0  0  0  0
 13 41  1  0  0  0  0
 14 42  1  0  0  0  0
 15 43  1  0  0  0  0
 16 44  1  0  0  0  0
 17 45  1  0  0  0  0
 17 46  1  0  0  0  0
 18 47  1  0  0  0  0
 19 48  1  0  0  0  0
 22 49  1  0  0  0  0
  3 50  1  0  0  0  0
M  CHG  1   3   1
M  END
$$$$
6ERT_BVZ_A_401
prProtoss 08192303233D 1   1.00000     0.00000     0
Protoss beta proteinsplus
 56 59  0  0  0  0            999 V2000
    7.8240   11.2190    7.6350 S   0  0  0  0  0  0  0  0  0  0  0  0
    7.0860   10.8140    6.4760 O   0  0  0  0  0  0  0  0  0  0  0  0
    8.1250   10.2810    8.6560 O   0  0  0  0  0  0  0  0  0  0  0  0
    2.9110    8.4040   11.1540 O   0  0  0  0  0  0  0  0  0  0  0  0
    3.9410   10.1300    9.8000 O   0  0  0  0  0  0  0  0  0  0  0  0
   13.0600    9.9210    6.7920 N   0  0  0  0  0  0  0  0  0  0  0  0
    6.9310   12.3930    8.3420 N   0  0  0  0  0  0  0  0  0  0  0  0
    4.9640   12.4950   10.6450 N   0  3  0  0  0  0  0  0  0  0  0  0
   11.9120    9.2440    6.9490 C   0  0  0  0  0  0  0  0  0  0  0  0
   12.9870   11.2430    6.7440 C   0  0  0  0  0  0  0  0  0  0  0  0
    7.3780   12.8480    9.6710 C   0  0  0  0  0  0  0  0  0  0  0  0
    6.5070   12.4580   10.8130 C   0  0  0  0  0  0  0  0  0  0  0  0
    5.8800   13.1630    7.6420 C   0  0  0  0  0  0  0  0  0  0  0  0
    4.5270   13.5930    9.7650 C   0  0  0  0  0  0  0  0  0  0  0  0
    4.4150   12.6590   11.9990 C   0  0  0  0  0  0  0  0  0  0  0  0
    4.5130   13.2320    8.2960 C   0  0  0  0  0  0  0  0  0  0  0  0
    0.7940   12.7480   13.0200 C   0  0  0  0  0  0  0  0  0  0  0  0
    0.3730   11.4690   12.7270 C   0  0  0  0  0  0  0  0  0  0  0  0
   10.5170   14.0470    6.8480 C   0  0  0  0  0  0  0  0  0  0  0  0
   10.6850    9.8300    7.0790 C   0  0  0  0  0  0  0  0  0  0  0  0
    9.3400   13.3460    7.0620 C   0  0  0  0  0  0  0  0  0  0  0  0
    2.0910   13.1270   12.7300 C   0  0  0  0  0  0  0  0  0  0  0  0
   11.7150   13.3930    6.7580 C   0  0  0  0  0  0  0  0  0  0  0  0
    1.2490   10.5610   12.1450 C   0  0  0  0  0  0  0  0  0  0  0  0
    9.3580   11.9820    7.1780 C   0  0  0  0  0  0  0  0  0  0  0  0
   11.7790   11.9790    6.8480 C   0  0  0  0  0  0  0  0  0  0  0  0
    2.9820   12.2170   12.1650 C   0  0  0  0  0  0  0  0  0  0  0  0
   10.5820   11.2420    7.0470 C   0  0  0  0  0  0  0  0  0  0  0  0
    2.5750   10.9000   11.8530 C   0  0  0  0  0  0  0  0  0  0  0  0
    3.5340    9.7980   11.1930 B   0  5  0  0  0  0  0  0  0  0  0  0
   11.9578    8.2453    6.9723 H   0  0  0  0  0  0  0  0  0  0  0  0
   13.8381   11.7547    6.6269 H   0  0  0  0  0  0  0  0  0  0  0  0
    7.4313   13.8464    9.6521 H   0  0  0  0  0  0  0  0  0  0  0  0
    8.2885   12.4687    9.8355 H   0  0  0  0  0  0  0  0  0  0  0  0
    6.7506   11.5194   11.0573 H   0  0  0  0  0  0  0  0  0  0  0  0
    6.7317   13.0690   11.5721 H   0  0  0  0  0  0  0  0  0  0  0  0
    5.7597   12.7531    6.7379 H   0  0  0  0  0  0  0  0  0  0  0  0
    6.2120   14.1009    7.5412 H   0  0  0  0  0  0  0  0  0  0  0  0
    5.1484   14.3659    9.8935 H   0  0  0  0  0  0  0  0  0  0  0  0
    3.6015   13.8614   10.0322 H   0  0  0  0  0  0  0  0  0  0  0  0
    4.4706   13.6277   12.2409 H   0  0  0  0  0  0  0  0  0  0  0  0
    4.9790   12.1252   12.6290 H   0  0  0  0  0  0  0  0  0  0  0  0
    4.0773   12.3370    8.2002 H   0  0  0  0  0  0  0  0  0  0  0  0
    3.9716   13.9197    7.8123 H   0  0  0  0  0  0  0  0  0  0  0  0
    0.1631   13.3997   13.4410 H   0  0  0  0  0  0  0  0  0  0  0  0
   -0.5658   11.1935   12.9339 H   0  0  0  0  0  0  0  0  0  0  0  0
   10.4897   15.0426    6.7584 H   0  0  0  0  0  0  0  0  0  0  0  0
    9.8668    9.2670    7.1957 H   0  0  0  0  0  0  0  0  0  0  0  0
    8.4731   13.8395    7.1320 H   0  0  0  0  0  0  0  0  0  0  0  0
    2.3918   14.0601   12.9269 H   0  0  0  0  0  0  0  0  0  0  0  0
   12.5559   13.9182    6.6272 H   0  0  0  0  0  0  0  0  0  0  0  0
    0.9232    9.6406   11.9290 H   0  0  0  0  0  0  0  0  0  0  0  0
    2.6226    8.1419   12.0749 H   0  0  0  0  0  0  0  0  0  0  0  0
    3.1366   10.1183    9.2060 H   0  0  0  0  0  0  0  0  0  0  0  0
    4.6522   11.6239   10.2656 H   0  0  0  0  0  0  0  0  0  0  0  0
    4.9320    9.6090   11.7580 R#  0  0  0  0  0  0  0  0  0  0  0  0
  5 54  1  0  0  0  0
  4 53  1  0  0  0  0
 22 50  1  0  0  0  0
 21 49  1  0  0  0  0
 20 48  1  0  0  0  0
 19 47  1  0  0  0  0
 18 46  1  0  0  0  0
 17 45  1  0  0  0  0
 16 44  1  0  0  0  0
 16 43  1  0  0  0  0
 15 42  1  0  0  0  0
 15 41  1  0  0  0  0
 14 40  1  0  0  0  0
 14 39  1  0  0  0  0
 30 56  1  0  0  0  0
  1  2  2  0  0  0  0
  1  3  2  0  0  0  0
  1  7  1  0  0  0  0
  1 25  1  0  0  0  0
  4 30  1  0  0  0  0
  5 30  1  0  0  0  0
  6  9  2  0  0  0  0
  6 10  1  0  0  0  0
  7 11  1  0  0  0  0
  7 13  1  0  0  0  0
  8 12  1  0  0  0  0
  8 14  1  0  0  0  0
  8 15  1  0  0  0  0
  9 20  1  0  0  0  0
 10 26  2  0  0  0  0
 11 12  1  0  0  0  0
 13 16  1  0  0  0  0
 14 16  1  0  0  0  0
 15 27  1  0  0  0  0
 17 18  2  0  0  0  0
 17 22  1  0  0  0  0
 18 24  1  0  0  0  0
 19 21  1  0  0  0  0
 19 23  2  0  0  0  0
 20 28  2  0  0  0  0
 21 25  2  0  0  0  0
 22 27  2  0  0  0  0
 23 26  1  0  0  0  0
 24 29  2  0  0  0  0
 25 28  1  0  0  0  0
 26 28  1  0  0  0  0
 27 29  1  0  0  0  0
 29 30  1  0  0  0  0
 24 52  1  0  0  0  0
 23 51  1  0  0  0  0
  9 31  1  0  0  0  0
 10 32  1  0  0  0  0
 11 33  1  0  0  0  0
 11 34  1  0  0  0  0
 12 35  1  0  0  0  0
 12 36  1  0  0  0  0
 13 37  1  0  0  0  0
 13 38  1  0  0  0  0
  8 55  1  0  0  0  0
M  CHG  2   8   1  30  -1
M  RGP  1  56   1
M  END
$$$$
4UJ2_NVV_A_1351
prProtoss 08192305103D 1   1.00000     0.00000     0
Protoss beta proteinsplus
 42 45  0  0  0  0            999 V2000
   22.6990   10.1690    2.2470 I   0  0  0  0  0  0  0  0  0  0  0  0
   32.5960   10.4170   -4.5270 O   0  0  0  0  0  0  0  0  0  0  0  0
   25.2300   11.7570   -3.5850 O   0  0  0  0  0  0  0  0  0  0  0  0
   24.9840    7.4240   -2.9820 N   0  3  0  0  0  0  0  0  0  0  0  0
   32.5830   10.0670   -2.3060 N   0  0  0  0  0  0  0  0  0  0  0  0
   30.5070    9.5860   -1.2210 N   0  0  0  0  0  0  0  0  0  0  0  0
   31.8950    9.7940   -1.1980 C   0  0  0  0  0  0  0  0  0  0  0  0
   22.9090   13.4400   -0.6030 C   0  0  0  0  0  0  0  0  0  0  0  0
   24.3200    8.7210   -2.7680 C   0  0  0  0  0  0  0  0  0  0  0  0
   26.2270    7.7550   -3.7320 C   0  0  0  0  0  0  0  0  0  0  0  0
   22.6230   12.6570    0.5230 C   0  0  0  0  0  0  0  0  0  0  0  0
   23.6990   12.9110   -1.6230 C   0  0  0  0  0  0  0  0  0  0  0  0
   28.4600    9.8680   -4.8050 C   0  0  0  0  0  0  0  0  0  0  0  0
   29.8410   10.0750   -4.7770 C   0  0  0  0  0  0  0  0  0  0  0  0
   23.9190   10.8350   -0.4190 C   0  0  0  0  0  0  0  0  0  0  0  0
   28.4580    9.4760   -2.4320 C   0  0  0  0  0  0  0  0  0  0  0  0
   23.1300   11.3610    0.6110 C   0  0  0  0  0  0  0  0  0  0  0  0
   31.9300   10.1740   -3.5210 C   0  0  0  0  0  0  0  0  0  0  0  0
   25.0010   11.0940   -2.5790 C   0  0  0  0  0  0  0  0  0  0  0  0
   29.8420    9.6730   -2.3930 C   0  0  0  0  0  0  0  0  0  0  0  0
   24.2140   11.6100   -1.5360 C   0  0  0  0  0  0  0  0  0  0  0  0
   27.7470    9.5790   -3.6310 C   0  0  0  0  0  0  0  0  0  0  0  0
   30.5420    9.9790   -3.5690 C   0  0  0  0  0  0  0  0  0  0  0  0
   25.4920    9.6390   -2.4820 C   0  0  2  0  0  0  0  0  0  0  0  0
   26.3510    9.3050   -3.6970 C   0  0  2  0  0  0  0  0  0  0  0  0
   24.4008    6.8134   -3.5178 H   0  0  0  0  0  0  0  0  0  0  0  0
   33.5737   10.1948   -2.2592 H   0  0  0  0  0  0  0  0  0  0  0  0
   32.3809    9.7357   -0.3260 H   0  0  0  0  0  0  0  0  0  0  0  0
   22.5496   14.3704   -0.6746 H   0  0  0  0  0  0  0  0  0  0  0  0
   23.6917    8.6826   -1.9909 H   0  0  0  0  0  0  0  0  0  0  0  0
   23.8223    9.0125   -3.5849 H   0  0  0  0  0  0  0  0  0  0  0  0
   26.1587    7.4334   -4.6764 H   0  0  0  0  0  0  0  0  0  0  0  0
   27.0202    7.3332   -3.2928 H   0  0  0  0  0  0  0  0  0  0  0  0
   22.0576   13.0260    1.2606 H   0  0  0  0  0  0  0  0  0  0  0  0
   23.9012   13.4679   -2.4286 H   0  0  0  0  0  0  0  0  0  0  0  0
   27.9713    9.9266   -5.6755 H   0  0  0  0  0  0  0  0  0  0  0  0
   30.3301   10.2923   -5.6217 H   0  0  0  0  0  0  0  0  0  0  0  0
   24.2708    9.9014   -0.3517 H   0  0  0  0  0  0  0  0  0  0  0  0
   27.9687    9.2577   -1.5877 H   0  0  0  0  0  0  0  0  0  0  0  0
   25.9456    9.4360   -1.6142 H   0  0  0  0  0  0  0  0  0  0  0  0
   25.9559    9.7051   -4.5239 H   0  0  0  0  0  0  0  0  0  0  0  0
   25.2043    6.9920   -2.1074 H   0  0  0  0  0  0  0  0  0  0  0  0
  1 17  1  0  0  0  0
  2 18  2  0  0  0  0
  3 19  2  0  0  0  0
  4  9  1  0  0  0  0
  4 10  1  0  0  0  0
  5  7  1  0  0  0  0
  5 18  1  0  0  0  0
  6  7  2  0  0  0  0
  6 20  1  0  0  0  0
  8 11  2  0  0  0  0
  8 12  1  0  0  0  0
  9 24  1  0  0  0  0
 10 25  1  0  0  0  0
 11 17  1  0  0  0  0
 12 21  2  0  0  0  0
 13 14  1  0  0  0  0
 13 22  2  0  0  0  0
 14 23  2  0  0  0  0
 15 17  2  0  0  0  0
 15 21  1  0  0  0  0
 16 20  2  0  0  0  0
 16 22  1  0  0  0  0
 18 23  1  0  0  0  0
 19 21  1  0  0  0  0
 19 24  1  0  0  0  0
 20 23  1  0  0  0  0
 22 25  1  0  0  0  0
 24 25  1  0  0  0  0
  4 26  1  0  0  0  0
  5 27  1  0  0  0  0
  7 28  1  0  0  0  0
  8 29  1  0  0  0  0
  9 30  1  0  0  0  0
  9 31  1  0  0  0  0
 10 32  1  0  0  0  0
 10 33  1  0  0  0  0
 11 34  1  0  0  0  0
 12 35  1  0  0  0  0
 13 36  1  0  0  0  0
 14 37  1  0  0  0  0
 15 38  1  0  0  0  0
 16 39  1  0  0  0  0
 24 40  1  0  0  0  0
 25 41  1  0  0  0  0
  4 42  1  0  0  0  0
M  CHG  1   4   1
M  END
$$$$
4UJ2_MPD_A_1352
prProtoss 08192305103D 1   1.00000     0.00000     0
Protoss beta proteinsplus
 22 21  0  0  0  0            999 V2000
   27.7030    3.2490  -17.2970 O   0  0  0  0  0  0  0  0  0  0  0  0
   26.0060    5.0310  -16.0190 O   0  0  0  0  0  0  0  0  0  0  0  0
   29.9480    3.7400  -16.9820 C   0  0  0  0  0  0  0  0  0  0  0  0
   26.9090    7.0620  -15.3550 C   0  0  0  0  0  0  0  0  0  0  0  0
   26.4150    6.6270  -17.6750 C   0  0  0  0  0  0  0  0  0  0  0  0
   28.2630    5.4480  -16.6380 C   0  0  0  0  0  0  0  0  0  0  0  0
   28.5560    3.9870  -16.5090 C   0  0  1  0  0  0  0  0  0  0  0  0
   26.8900    6.0070  -16.4070 C   0  0  0  0  0  0  0  0  0  0  0  0
   26.8216    3.7168  -17.3631 H   0  0  0  0  0  0  0  0  0  0  0  0
   25.6046    5.2765  -15.1366 H   0  0  0  0  0  0  0  0  0  0  0  0
   30.5884    4.2670  -16.4232 H   0  0  0  0  0  0  0  0  0  0  0  0
   30.1593    2.7659  -16.9020 H   0  0  0  0  0  0  0  0  0  0  0  0
   30.0301    4.0215  -17.9381 H   0  0  0  0  0  0  0  0  0  0  0  0
   27.5483    7.7843  -15.6188 H   0  0  0  0  0  0  0  0  0  0  0  0
   25.9923    7.4487  -15.2541 H   0  0  0  0  0  0  0  0  0  0  0  0
   27.1991    6.6611  -14.4860 H   0  0  0  0  0  0  0  0  0  0  0  0
   27.0577    7.3384  -17.9594 H   0  0  0  0  0  0  0  0  0  0  0  0
   26.3562    5.9270  -18.3867 H   0  0  0  0  0  0  0  0  0  0  0  0
   25.5122    7.0319  -17.5303 H   0  0  0  0  0  0  0  0  0  0  0  0
   28.5155    5.7028  -17.5714 H   0  0  0  0  0  0  0  0  0  0  0  0
   28.8670    5.9128  -15.9906 H   0  0  0  0  0  0  0  0  0  0  0  0
   28.4662    3.7051  -15.5538 H   0  0  0  0  0  0  0  0  0  0  0  0
  1  7  1  0  0  0  0
  2  8  1  0  0  0  0
  3  7  1  0  0  0  0
  4  8  1  0  0  0  0
  5  8  1  0  0  0  0
  6  7  1  0  0  0  0
  6  8  1  0  0  0  0
  1  9  1  0  0  0  0
  2 10  1  0  0  0  0
  3 11  1  0  0  0  0
  3 12  1  0  0  0  0
  3 13  1  0  0  0  0
  4 14  1  0  0  0  0
  4 15  1  0  0  0  0
  4 16  1  0  0  0  0
  5 17  1  0  0  0  0
  5 18  1  0  0  0  0
  5 19  1  0  0  0  0
  6 20  1  0  0  0  0
  6 21  1  0  0  0  0
  7 22  1  0  0  0  0
M  END
$$$$
3VQH_IQB_A_401
prProtoss 08192304133D 1   1.00000     0.00000     0
Protoss beta proteinsplus
 48 50  0  0  0  0            999 V2000
  -15.0760   13.6160    1.7250 Br  0  0  0  0  0  0  0  0  0  0  0  0
   -8.4890    9.9930   -4.1080 S   0  0  0  0  0  0  0  0  0  0  0  0
   -8.2180   10.8510   -5.2860 O   0  0  0  0  0  0  0  0  0  0  0  0
   -9.6110   10.6030   -3.3390 O   0  0  0  0  0  0  0  0  0  0  0  0
   -8.9110    8.4930   -4.6080 N   0  0  0  0  0  0  0  0  0  0  0  0
  -11.5640    7.6010   -4.2570 N   0  3  0  0  0  0  0  0  0  0  0  0
   -3.1480    9.6910   -4.4750 N   0  0  0  0  0  0  0  0  0  0  0  0
   -9.1830    7.5200   -3.5110 C   0  0  0  0  0  0  0  0  0  0  0  0
  -10.6680    7.5000   -3.0950 C   0  0  0  0  0  0  0  0  0  0  0  0
  -11.9320    9.0140   -4.4740 C   0  0  0  0  0  0  0  0  0  0  0  0
   -4.1530    9.7200   -5.3400 C   0  0  0  0  0  0  0  0  0  0  0  0
   -3.3680    9.7470   -3.1630 C   0  0  0  0  0  0  0  0  0  0  0  0
  -12.6050    9.5440   -3.3690 C   0  0  0  0  0  0  0  0  0  0  0  0
   -6.1870    9.9860   -0.7770 C   0  0  0  0  0  0  0  0  0  0  0  0
   -5.4780    9.8060   -4.9020 C   0  0  0  0  0  0  0  0  0  0  0  0
   -7.2650   10.0170   -1.6590 C   0  0  0  0  0  0  0  0  0  0  0  0
  -14.5130   11.4300   -0.0450 C   0  0  0  0  0  0  0  0  0  0  0  0
  -13.2910   13.4490   -0.5310 C   0  0  0  0  0  0  0  0  0  0  0  0
  -12.3610   10.8670   -2.9990 C   0  0  0  0  0  0  0  0  0  0  0  0
   -4.8830    9.8960   -1.2680 C   0  0  0  0  0  0  0  0  0  0  0  0
  -13.9060   10.7960   -1.1260 C   0  0  0  0  0  0  0  0  0  0  0  0
  -12.6930   12.8100   -1.6130 C   0  0  0  0  0  0  0  0  0  0  0  0
  -14.2100   12.7570    0.2590 C   0  0  0  0  0  0  0  0  0  0  0  0
   -7.0620    9.9490   -3.0380 C   0  0  0  0  0  0  0  0  0  0  0  0
  -12.9890   11.4870   -1.9120 C   0  0  0  0  0  0  0  0  0  0  0  0
   -4.6660    9.8390   -2.6520 C   0  0  0  0  0  0  0  0  0  0  0  0
   -5.7500    9.8660   -3.5310 C   0  0  0  0  0  0  0  0  0  0  0  0
   -8.1654    8.1305   -5.1672 H   0  0  0  0  0  0  0  0  0  0  0  0
  -12.3903    7.0636   -4.0884 H   0  0  0  0  0  0  0  0  0  0  0  0
   -8.6305    7.7702   -2.7160 H   0  0  0  0  0  0  0  0  0  0  0  0
   -8.9246    6.6054   -3.8220 H   0  0  0  0  0  0  0  0  0  0  0  0
  -10.8576    6.6441   -2.6139 H   0  0  0  0  0  0  0  0  0  0  0  0
  -10.8430    8.2718   -2.4837 H   0  0  0  0  0  0  0  0  0  0  0  0
  -12.5258    9.0756   -5.2763 H   0  0  0  0  0  0  0  0  0  0  0  0
  -11.1001    9.5456   -4.6334 H   0  0  0  0  0  0  0  0  0  0  0  0
   -3.9601    9.6797   -6.3204 H   0  0  0  0  0  0  0  0  0  0  0  0
   -2.5920    9.7229   -2.5328 H   0  0  0  0  0  0  0  0  0  0  0  0
  -13.2515    8.9833   -2.8516 H   0  0  0  0  0  0  0  0  0  0  0  0
   -6.3474   10.0283    0.2092 H   0  0  0  0  0  0  0  0  0  0  0  0
   -6.2267    9.8245   -5.5647 H   0  0  0  0  0  0  0  0  0  0  0  0
   -8.1954   10.0888   -1.2996 H   0  0  0  0  0  0  0  0  0  0  0  0
  -15.1713   10.9300    0.5177 H   0  0  0  0  0  0  0  0  0  0  0  0
  -13.0632   14.3997   -0.3205 H   0  0  0  0  0  0  0  0  0  0  0  0
  -11.7058   11.3981   -3.5362 H   0  0  0  0  0  0  0  0  0  0  0  0
   -4.1083    9.8723   -0.6361 H   0  0  0  0  0  0  0  0  0  0  0  0
  -14.1290    9.8444   -1.3374 H   0  0  0  0  0  0  0  0  0  0  0  0
  -12.0413   13.3106   -2.1828 H   0  0  0  0  0  0  0  0  0  0  0  0
  -11.0977    7.2496   -5.0689 H   0  0  0  0  0  0  0  0  0  0  0  0
  1 23  1  0  0  0  0
  2  3  2  0  0  0  0
  2  4  2  0  0  0  0
  2  5  1  0  0  0  0
  2 24  1  0  0  0  0
  5  8  1  0  0  0  0
  6  9  1  0  0  0  0
  6 10  1  0  0  0  0
  7 11  2  0  0  0  0
  7 12  1  0  0  0  0
  8  9  1  0  0  0  0
 10 13  1  0  0  0  0
 11 15  1  0  0  0  0
 12 26  2  0  0  0  0
 13 19  2  0  0  0  0
 14 16  1  0  0  0  0
 14 20  2  0  0  0  0
 15 27  2  0  0  0  0
 16 24  2  0  0  0  0
 17 21  1  0  0  0  0
 17 23  2  0  0  0  0
 18 22  2  0  0  0  0
 18 23  1  0  0  0  0
 19 25  1  0  0  0  0
 20 26  1  0  0  0  0
 21 25  2  0  0  0  0
 22 25  1  0  0  0  0
 24 27  1  0  0  0  0
 26 27  1  0  0  0  0
  5 28  1  0  0  0  0
  6 29  1  0  0  0  0
  8 30  1  0  0  0  0
  8 31  1  0  0  0  0
  9 32  1  0  0  0  0
  9 33  1  0  0  0  0
 10 34  1  0  0  0  0
 10 35  1  0  0  0  0
 11 36  1  0  0  0  0
 12 37  1  0  0  0  0
 13 38  1  0  0  0  0
 14 39  1  0  0  0  0
 15 40  1  0  0  0  0
 16 41  1  0  0  0  0
 17 42  1  0  0  0  0
 18 43  1  0  0  0  0
 19 44  1  0  0  0  0
 20 45  1  0  0  0  0
 21 46  1  0  0  0  0
 22 47  1  0  0  0  0
  6 48  1  0  0  0  0
M  CHG  1   6   1
M  END
$$$$
3VQH_MPD_A_402
prProtoss 08192304133D 1   1.00000     0.00000     0
Protoss beta proteinsplus
 22 21  0  0  0  0            999 V2000
   -9.8620    5.6820  -17.1400 O   0  0  0  0  0  0  0  0  0  0  0  0
   -7.6990    2.6330  -16.3950 O   0  0  0  0  0  0  0  0  0  0  0  0
   -8.9980    7.1260  -15.4610 C   0  0  0  0  0  0  0  0  0  0  0  0
   -7.9110    3.9890  -18.3270 C   0  0  0  0  0  0  0  0  0  0  0  0
   -5.8160    4.0780  -17.0310 C   0  0  0  0  0  0  0  0  0  0  0  0
   -7.8690    4.9620  -15.9380 C   0  0  0  0  0  0  0  0  0  0  0  0
   -8.6460    6.1250  -16.5370 C   0  0  1  0  0  0  0  0  0  0  0  0
   -7.3260    3.9230  -16.9300 C   0  0  0  0  0  0  0  0  0  0  0  0
   -9.8501    5.9025  -18.1153 H   0  0  0  0  0  0  0  0  0  0  0  0
   -8.5707    2.3467  -16.7926 H   0  0  0  0  0  0  0  0  0  0  0  0
   -8.1606    7.4522  -15.0224 H   0  0  0  0  0  0  0  0  0  0  0  0
   -9.4827    7.8989  -15.8705 H   0  0  0  0  0  0  0  0  0  0  0  0
   -9.5836    6.6893  -14.7781 H   0  0  0  0  0  0  0  0  0  0  0  0
   -7.6799    4.8681  -18.7440 H   0  0  0  0  0  0  0  0  0  0  0  0
   -7.5337    3.2475  -18.8818 H   0  0  0  0  0  0  0  0  0  0  0  0
   -8.9053    3.8950  -18.2768 H   0  0  0  0  0  0  0  0  0  0  0  0
   -5.5977    4.9798  -17.4039 H   0  0  0  0  0  0  0  0  0  0  0  0
   -5.4099    3.9861  -16.1218 H   0  0  0  0  0  0  0  0  0  0  0  0
   -5.4478    3.3700  -17.6337 H   0  0  0  0  0  0  0  0  0  0  0  0
   -8.4754    4.4867  -15.3006 H   0  0  0  0  0  0  0  0  0  0  0  0
   -7.0907    5.3412  -15.4376 H   0  0  0  0  0  0  0  0  0  0  0  0
   -8.0815    6.5738  -17.2297 H   0  0  0  0  0  0  0  0  0  0  0  0
  1  7  1  0  0  0  0
  2  8  1  0  0  0  0
  3  7  1  0  0  0  0
  4  8  1  0  0  0  0
  5  8  1  0  0  0  0
  6  7  1  0  0  0  0
  6  8  1  0  0  0  0
  1  9  1  0  0  0  0
  2 10  1  0  0  0  0
  3 11  1  0  0  0  0
  3 12  1  0  0  0  0
  3 13  1  0  0  0  0
  4 14  1  0  0  0  0
  4 15  1  0  0  0  0
  4 16  1  0  0  0  0
  5 17  1  0  0  0  0
  5 18  1  0  0  0  0
  5 19  1  0  0  0  0
  6 20  1  0  0  0  0
  6 21  1  0  0  0  0
  7 22  1  0  0  0  0
M  END
$$$$
3E8C_G96_A_351
prProtoss 05262315423D 1   1.00000     0.00000     0
Protoss beta proteinsplus
 62 65  0  0  0  0            999 V2000
    4.0350   -8.1920   21.5960 O   0  0  0  0  0  0  0  0  0  0  0  0
   14.1940   -6.1750   23.1390 O   0  0  0  0  0  0  0  0  0  0  0  0
    8.6350  -13.3630   22.5800 O   0  0  0  0  0  0  0  0  0  0  0  0
   10.9190   -5.4950   22.2570 N   0  0  0  0  0  0  0  0  0  0  0  0
    7.2150  -15.3670   23.9000 N   0  3  0  0  0  0  0  0  0  0  0  0
   13.2180   -5.1940   22.7750 N   0  0  0  0  0  0  0  0  0  0  0  0
   13.6960   -7.5220   23.1810 N   0  0  0  0  0  0  0  0  0  0  0  0
    8.0400  -11.1450   22.1250 N   0  0  0  0  0  0  0  0  0  0  0  0
   10.1950   -8.1380   22.3450 N   0  0  0  0  0  0  0  0  0  0  0  0
   11.7410   -9.6540   22.9800 N   0  0  0  0  0  0  0  0  0  0  0  0
   13.7760  -10.7910   22.2180 C   0  0  0  0  0  0  0  0  0  0  0  0
    5.0570   -7.5920   19.4970 C   0  0  0  0  0  0  0  0  0  0  0  0
    5.4220   -6.2150   21.5560 C   0  0  0  0  0  0  0  0  0  0  0  0
    7.3860  -13.8160   22.0740 C   0  0  0  0  0  0  0  0  0  0  0  0
   12.9910  -10.3030   23.4170 C   0  0  0  0  0  0  0  0  0  0  0  0
    8.0360  -15.7310   17.5440 C   0  0  0  0  0  0  0  0  0  0  0  0
    8.9960  -15.0210   18.2560 C   0  0  0  0  0  0  0  0  0  0  0  0
    7.1630  -16.5780   18.2150 C   0  0  0  0  0  0  0  0  0  0  0  0
    9.0850  -15.1630   19.6360 C   0  0  0  0  0  0  0  0  0  0  0  0
    7.2430  -16.7140   19.6000 C   0  0  0  0  0  0  0  0  0  0  0  0
    7.3580   -9.0570   21.6680 C   0  0  0  0  0  0  0  0  0  0  0  0
   10.2610  -11.6410   22.8170 C   0  0  0  0  0  0  0  0  0  0  0  0
    8.2830  -16.1500   21.8190 C   0  0  0  0  0  0  0  0  0  0  0  0
    6.4130   -8.4160   21.3560 C   0  0  0  0  0  0  0  0  0  0  0  0
    8.9670  -12.0460   22.5040 C   0  0  0  0  0  0  0  0  0  0  0  0
   12.1410   -5.9860   22.6060 C   0  0  0  0  0  0  0  0  0  0  0  0
    7.1970  -15.2780   22.4490 C   0  0  1  0  0  0  0  0  0  0  0  0
   11.4640   -8.3660   22.7380 C   0  0  0  0  0  0  0  0  0  0  0  0
    8.3260   -9.8280   22.0330 C   0  0  0  0  0  0  0  0  0  0  0  0
   12.4020   -7.3290   22.8530 C   0  0  0  0  0  0  0  0  0  0  0  0
    9.6180   -9.3670   22.3390 C   0  0  0  0  0  0  0  0  0  0  0  0
   10.5920  -10.2940   22.7380 C   0  0  0  0  0  0  0  0  0  0  0  0
    8.2090  -16.0120   20.3120 C   0  0  0  0  0  0  0  0  0  0  0  0
    5.2190   -7.6210   21.0130 C   0  0  0  0  0  0  0  0  0  0  0  0
    3.6321   -8.8479   20.9576 H   0  0  0  0  0  0  0  0  0  0  0  0
   10.1446   -6.1171   22.1414 H   0  0  0  0  0  0  0  0  0  0  0  0
   10.7965   -4.5125   22.1164 H   0  0  0  0  0  0  0  0  0  0  0  0
    7.0925  -16.3200   24.1771 H   0  0  0  0  0  0  0  0  0  0  0  0
    8.0915  -15.0300   24.2438 H   0  0  0  0  0  0  0  0  0  0  0  0
   14.6202  -11.2285   22.5279 H   0  0  0  0  0  0  0  0  0  0  0  0
   13.2266  -11.4516   21.7063 H   0  0  0  0  0  0  0  0  0  0  0  0
   13.9997  -10.0153   21.6279 H   0  0  0  0  0  0  0  0  0  0  0  0
    5.8761   -7.1962   19.0818 H   0  0  0  0  0  0  0  0  0  0  0  0
    4.9283   -8.5238   19.1576 H   0  0  0  0  0  0  0  0  0  0  0  0
    4.2604   -7.0370   19.2575 H   0  0  0  0  0  0  0  0  0  0  0  0
    6.2452   -5.8170   21.1512 H   0  0  0  0  0  0  0  0  0  0  0  0
    4.6299   -5.6504   21.3239 H   0  0  0  0  0  0  0  0  0  0  0  0
    5.5243   -6.2531   22.5500 H   0  0  0  0  0  0  0  0  0  0  0  0
    7.3740  -13.7215   21.0785 H   0  0  0  0  0  0  0  0  0  0  0  0
    6.6469  -13.2707   22.4696 H   0  0  0  0  0  0  0  0  0  0  0  0
   12.7707  -11.0806   24.0059 H   0  0  0  0  0  0  0  0  0  0  0  0
   13.5438   -9.6444   23.9275 H   0  0  0  0  0  0  0  0  0  0  0  0
    7.9740  -15.6322   16.5508 H   0  0  0  0  0  0  0  0  0  0  0  0
    9.6228  -14.4078   17.7752 H   0  0  0  0  0  0  0  0  0  0  0  0
    6.4749  -17.0919   17.7027 H   0  0  0  0  0  0  0  0  0  0  0  0
    9.7793  -14.6548   20.1456 H   0  0  0  0  0  0  0  0  0  0  0  0
    6.6059  -17.3162   20.0812 H   0  0  0  0  0  0  0  0  0  0  0  0
   10.9465  -12.3134   23.0963 H   0  0  0  0  0  0  0  0  0  0  0  0
    8.1379  -17.1054   22.0763 H   0  0  0  0  0  0  0  0  0  0  0  0
    9.1818  -15.8512   22.1399 H   0  0  0  0  0  0  0  0  0  0  0  0
    6.3044  -15.5838   22.1176 H   0  0  0  0  0  0  0  0  0  0  0  0
    6.4734  -14.8122   24.2772 H   0  0  0  0  0  0  0  0  0  0  0  0
  1 34  1  0  0  0  0
  2  6  1  0  0  0  0
  2  7  1  0  0  0  0
  3 14  1  0  0  0  0
  3 25  1  0  0  0  0
  4 26  1  0  0  0  0
  5 27  1  0  0  0  0
  6 26  2  0  0  0  0
  7 30  2  0  0  0  0
  8 25  2  0  0  0  0
  8 29  1  0  0  0  0
  9 28  2  0  0  0  0
  9 31  1  0  0  0  0
 10 15  1  0  0  0  0
 10 28  1  0  0  0  0
 10 32  1  0  0  0  0
 11 15  1  0  0  0  0
 12 34  1  0  0  0  0
 13 34  1  0  0  0  0
 14 27  1  0  0  0  0
 16 17  2  0  0  0  0
 16 18  1  0  0  0  0
 17 19  1  0  0  0  0
 18 20  2  0  0  0  0
 19 33  2  0  0  0  0
 20 33  1  0  0  0  0
 21 24  3  0  0  0  0
 21 29  1  0  0  0  0
 22 25  1  0  0  0  0
 22 32  2  0  0  0  0
 23 27  1  0  0  0  0
 23 33  1  0  0  0  0
 24 34  1  0  0  0  0
 26 30  1  0  0  0  0
 28 30  1  0  0  0  0
 29 31  2  0  0  0  0
 31 32  1  0  0  0  0
  1 35  1  0  0  0  0
  4 36  1  0  0  0  0
  4 37  1  0  0  0  0
  5 38  1  0  0  0  0
  5 39  1  0  0  0  0
 11 40  1  0  0  0  0
 11 41  1  0  0  0  0
 11 42  1  0  0  0  0
 12 43  1  0  0  0  0
 12 44  1  0  0  0  0
 12 45  1  0  0  0  0
 13 46  1  0  0  0  0
 13 47  1  0  0  0  0
 13 48  1  0  0  0  0
 14 49  1  0  0  0  0
 14 50  1  0  0  0  0
 15 51  1  0  0  0  0
 15 52  1  0  0  0  0
 16 53  1  0  0  0  0
 17 54  1  0  0  0  0
 18 55  1  0  0  0  0
 19 56  1  0  0  0  0
 20 57  1  0  0  0  0
 22 58  1  0  0  0  0
 23 59  1  0  0  0  0
 23 60  1  0  0  0  0
 27 61  1  0  0  0  0
  5 62  1  0  0  0  0
M  CHG  1   5   1
M  END
$$$$
3E8C_G96_B_351
prProtoss 05262315423D 1   1.00000     0.00000     0
Protoss beta proteinsplus
 62 65  0  0  0  0            999 V2000
  -32.6740  -11.4120   13.9190 O   0  0  0  0  0  0  0  0  0  0  0  0
  -42.8890  -11.4600   12.7570 O   0  0  0  0  0  0  0  0  0  0  0  0
  -35.7720  -17.0410   11.2320 O   0  0  0  0  0  0  0  0  0  0  0  0
  -39.7970  -10.3410   13.8500 N   0  0  0  0  0  0  0  0  0  0  0  0
  -34.0810  -18.1050    9.1980 N   0  3  0  0  0  0  0  0  0  0  0  0
  -42.1150  -10.4350   13.4030 N   0  0  0  0  0  0  0  0  0  0  0  0
  -42.1070  -12.5960   12.3390 N   0  0  0  0  0  0  0  0  0  0  0  0
  -35.6780  -14.9570   12.3380 N   0  0  0  0  0  0  0  0  0  0  0  0
  -38.5020  -12.6270   12.9700 N   0  0  0  0  0  0  0  0  0  0  0  0
  -39.6880  -14.2170   11.9150 N   0  0  0  0  0  0  0  0  0  0  0  0
  -41.0140  -16.2620   12.0840 C   0  0  0  0  0  0  0  0  0  0  0  0
  -33.9270  -11.2970   15.9760 C   0  0  0  0  0  0  0  0  0  0  0  0
  -34.3740   -9.7450   14.0460 C   0  0  0  0  0  0  0  0  0  0  0  0
  -34.3840  -17.3010   11.4620 C   0  0  0  0  0  0  0  0  0  0  0  0
  -40.7590  -15.0030   11.2910 C   0  0  0  0  0  0  0  0  0  0  0  0
  -34.0110  -20.7890   15.0050 C   0  0  0  0  0  0  0  0  0  0  0  0
  -35.1780  -20.1290   14.6320 C   0  0  0  0  0  0  0  0  0  0  0  0
  -33.0630  -21.1150   14.0440 C   0  0  0  0  0  0  0  0  0  0  0  0
  -35.3890  -19.7950   13.3000 C   0  0  0  0  0  0  0  0  0  0  0  0
  -33.2710  -20.7850   12.7090 C   0  0  0  0  0  0  0  0  0  0  0  0
  -35.5610  -12.9590   13.3900 C   0  0  0  0  0  0  0  0  0  0  0  0
  -37.7570  -15.7540   11.5030 C   0  0  0  0  0  0  0  0  0  0  0  0
  -34.6660  -19.7520   10.8940 C   0  0  0  0  0  0  0  0  0  0  0  0
  -34.8720  -12.1470   13.8910 C   0  0  0  0  0  0  0  0  0  0  0  0
  -36.3850  -15.9110   11.7000 C   0  0  0  0  0  0  0  0  0  0  0  0
  -40.8870  -10.9850   13.3510 C   0  0  0  0  0  0  0  0  0  0  0  0
  -33.9080  -18.4640   10.5920 C   0  0  1  0  0  0  0  0  0  0  0  0
  -39.7110  -13.0220   12.5260 C   0  0  0  0  0  0  0  0  0  0  0  0
  -36.2800  -13.8380   12.8000 C   0  0  0  0  0  0  0  0  0  0  0  0
  -40.8620  -12.2290   12.7210 C   0  0  0  0  0  0  0  0  0  0  0  0
  -37.6560  -13.6320   12.6250 C   0  0  0  0  0  0  0  0  0  0  0  0
  -38.4060  -14.6090   11.9660 C   0  0  0  0  0  0  0  0  0  0  0  0
  -34.4370  -20.1250   12.3380 C   0  0  0  0  0  0  0  0  0  0  0  0
  -33.9660  -11.1480   14.4580 C   0  0  0  0  0  0  0  0  0  0  0  0
  -32.3986  -12.3440   14.1546 H   0  0  0  0  0  0  0  0  0  0  0  0
  -38.8955  -10.7709   13.7992 H   0  0  0  0  0  0  0  0  0  0  0  0
  -39.8975   -9.4379   14.2674 H   0  0  0  0  0  0  0  0  0  0  0  0
  -33.3847  -18.5644    8.6466 H   0  0  0  0  0  0  0  0  0  0  0  0
  -34.9896  -18.3883    8.8911 H   0  0  0  0  0  0  0  0  0  0  0  0
  -41.7449  -16.7878   11.6488 H   0  0  0  0  0  0  0  0  0  0  0  0
  -40.1795  -16.8123   12.1133 H   0  0  0  0  0  0  0  0  0  0  0  0
  -41.2865  -16.0200   13.0152 H   0  0  0  0  0  0  0  0  0  0  0  0
  -34.8346  -11.1114   16.3526 H   0  0  0  0  0  0  0  0  0  0  0  0
  -33.6522  -12.2290   16.2125 H   0  0  0  0  0  0  0  0  0  0  0  0
  -33.2686  -10.6483   16.3578 H   0  0  0  0  0  0  0  0  0  0  0  0
  -35.2804   -9.5395   14.4152 H   0  0  0  0  0  0  0  0  0  0  0  0
  -33.7114   -9.0867   14.4033 H   0  0  0  0  0  0  0  0  0  0  0  0
  -34.3990   -9.6846   13.0481 H   0  0  0  0  0  0  0  0  0  0  0  0
  -34.2474  -17.5327   12.4252 H   0  0  0  0  0  0  0  0  0  0  0  0
  -33.8540  -16.4832   11.2375 H   0  0  0  0  0  0  0  0  0  0  0  0
  -40.4887  -15.2484   10.3600 H   0  0  0  0  0  0  0  0  0  0  0  0
  -41.5957  -14.4561   11.2620 H   0  0  0  0  0  0  0  0  0  0  0  0
  -33.8553  -21.0281   15.9634 H   0  0  0  0  0  0  0  0  0  0  0  0
  -35.8636  -19.8955   15.3215 H   0  0  0  0  0  0  0  0  0  0  0  0
  -32.2254  -21.5901   14.3136 H   0  0  0  0  0  0  0  0  0  0  0  0
  -36.2254  -19.3171   13.0315 H   0  0  0  0  0  0  0  0  0  0  0  0
  -32.5858  -21.0211   12.0200 H   0  0  0  0  0  0  0  0  0  0  0  0
  -38.2770  -16.4643   11.0285 H   0  0  0  0  0  0  0  0  0  0  0  0
  -34.3327  -20.4849   10.3008 H   0  0  0  0  0  0  0  0  0  0  0  0
  -35.6432  -19.6121   10.7341 H   0  0  0  0  0  0  0  0  0  0  0  0
  -32.9350  -18.6166   10.7653 H   0  0  0  0  0  0  0  0  0  0  0  0
  -33.9880  -17.1147    9.0948 H   0  0  0  0  0  0  0  0  0  0  0  0
  1 34  1  0  0  0  0
  2  6  1  0  0  0  0
  2  7  1  0  0  0  0
  3 14  1  0  0  0  0
  3 25  1  0  0  0  0
  4 26  1  0  0  0  0
  5 27  1  0  0  0  0
  6 26  2  0  0  0  0
  7 30  2  0  0  0  0
  8 25  2  0  0  0  0
  8 29  1  0  0  0  0
  9 28  2  0  0  0  0
  9 31  1  0  0  0  0
 10 15  1  0  0  0  0
 10 28  1  0  0  0  0
 10 32  1  0  0  0  0
 11 15  1  0  0  0  0
 12 34  1  0  0  0  0
 13 34  1  0  0  0  0
 14 27  1  0  0  0  0
 16 17  2  0  0  0  0
 16 18  1  0  0  0  0
 17 19  1  0  0  0  0
 18 20  2  0  0  0  0
 19 33  2  0  0  0  0
 20 33  1  0  0  0  0
 21 24  3  0  0  0  0
 21 29  1  0  0  0  0
 22 25  1  0  0  0  0
 22 32  2  0  0  0  0
 23 27  1  0  0  0  0
 23 33  1  0  0  0  0
 24 34  1  0  0  0  0
 26 30  1  0  0  0  0
 28 30  1  0  0  0  0
 29 31  2  0  0  0  0
 31 32  1  0  0  0  0
  1 35  1  0  0  0  0
  4 36  1  0  0  0  0
  4 37  1  0  0  0  0
  5 38  1  0  0  0  0
  5 39  1  0  0  0  0
 11 40  1  0  0  0  0
 11 41  1  0  0  0  0
 11 42  1  0  0  0  0
 12 43  1  0  0  0  0
 12 44  1  0  0  0  0
 12 45  1  0  0  0  0
 13 46  1  0  0  0  0
 13 47  1  0  0  0  0
 13 48  1  0  0  0  0
 14 49  1  0  0  0  0
 14 50  1  0  0  0  0
 15 51  1  0  0  0  0
 15 52  1  0  0  0  0
 16 53  1  0  0  0  0
 17 54  1  0  0  0  0
 18 55  1  0  0  0  0
 19 56  1  0  0  0  0
 20 57  1  0  0  0  0
 22 58  1  0  0  0  0
 23 59  1  0  0  0  0
 23 60  1  0  0  0  0
 27 61  1  0  0  0  0
  5 62  1  0  0  0  0
M  CHG  1   5   1
M  END
$$$$
3E8C_G96_C_351
prProtoss 05262315423D 1   1.00000     0.00000     0
Protoss beta proteinsplus
 62 65  0  0  0  0            999 V2000
  -17.6190   39.3980   37.0710 O   0  0  0  0  0  0  0  0  0  0  0  0
  -27.8080   41.2780   35.5560 O   0  0  0  0  0  0  0  0  0  0  0  0
  -22.0450   34.2820   36.5440 O   0  0  0  0  0  0  0  0  0  0  0  0
  -24.5190   42.1330   36.2310 N   0  0  0  0  0  0  0  0  0  0  0  0
  -20.6370   32.0560   35.4950 N   0  3  0  0  0  0  0  0  0  0  0  0
  -26.8380   42.3130   35.7720 N   0  0  0  0  0  0  0  0  0  0  0  0
  -27.2700   39.9460   35.6270 N   0  0  0  0  0  0  0  0  0  0  0  0
  -21.4860   36.5610   36.8090 N   0  0  0  0  0  0  0  0  0  0  0  0
  -23.7350   39.4730   36.3840 N   0  0  0  0  0  0  0  0  0  0  0  0
  -25.2550   37.8780   35.9180 N   0  0  0  0  0  0  0  0  0  0  0  0
  -27.3420   36.8910   36.7920 C   0  0  0  0  0  0  0  0  0  0  0  0
  -18.5370   40.6400   38.9080 C   0  0  0  0  0  0  0  0  0  0  0  0
  -18.7710   41.4600   36.5620 C   0  0  0  0  0  0  0  0  0  0  0  0
  -20.7760   33.8900   37.0510 C   0  0  0  0  0  0  0  0  0  0  0  0
  -26.5000   37.1720   35.5620 C   0  0  0  0  0  0  0  0  0  0  0  0
  -21.5050   32.6790   41.8230 C   0  0  0  0  0  0  0  0  0  0  0  0
  -22.4210   33.2990   40.9770 C   0  0  0  0  0  0  0  0  0  0  0  0
  -20.6420   31.7090   41.3220 C   0  0  0  0  0  0  0  0  0  0  0  0
  -22.4820   32.9510   39.6350 C   0  0  0  0  0  0  0  0  0  0  0  0
  -20.6940   31.3630   39.9750 C   0  0  0  0  0  0  0  0  0  0  0  0
  -20.8930   38.7320   37.0620 C   0  0  0  0  0  0  0  0  0  0  0  0
  -23.7100   35.9480   36.2090 C   0  0  0  0  0  0  0  0  0  0  0  0
  -21.6720   31.6150   37.6680 C   0  0  0  0  0  0  0  0  0  0  0  0
  -19.9620   39.4370   37.2850 C   0  0  0  0  0  0  0  0  0  0  0  0
  -22.3990   35.6030   36.5250 C   0  0  0  0  0  0  0  0  0  0  0  0
  -25.7350   41.5670   35.9740 C   0  0  0  0  0  0  0  0  0  0  0  0
  -20.5940   32.3840   36.9090 C   0  0  1  0  0  0  0  0  0  0  0  0
  -25.0070   39.1910   36.0490 C   0  0  0  0  0  0  0  0  0  0  0  0
  -21.8170   37.8750   36.7940 C   0  0  0  0  0  0  0  0  0  0  0  0
  -25.9690   40.1990   35.8740 C   0  0  0  0  0  0  0  0  0  0  0  0
  -23.1270   38.2660   36.4760 C   0  0  0  0  0  0  0  0  0  0  0  0
  -24.0830   37.2870   36.1830 C   0  0  0  0  0  0  0  0  0  0  0  0
  -21.6160   31.9840   39.1340 C   0  0  0  0  0  0  0  0  0  0  0  0
  -18.7250   40.2230   37.4520 C   0  0  0  0  0  0  0  0  0  0  0  0
  -17.5895   38.5885   37.6573 H   0  0  0  0  0  0  0  0  0  0  0  0
  -23.7180   41.5524   36.3767 H   0  0  0  0  0  0  0  0  0  0  0  0
  -24.4296   43.1281   36.2735 H   0  0  0  0  0  0  0  0  0  0  0  0
  -20.0695   31.2510   35.3221 H   0  0  0  0  0  0  0  0  0  0  0  0
  -21.5806   31.8626   35.2262 H   0  0  0  0  0  0  0  0  0  0  0  0
  -28.1777   36.4129   36.5218 H   0  0  0  0  0  0  0  0  0  0  0  0
  -26.8226   36.3206   37.4283 H   0  0  0  0  0  0  0  0  0  0  0  0
  -27.5808   37.7542   37.2368 H   0  0  0  0  0  0  0  0  0  0  0  0
  -19.3025   41.2180   39.1907 H   0  0  0  0  0  0  0  0  0  0  0  0
  -18.5033   39.8250   39.4865 H   0  0  0  0  0  0  0  0  0  0  0  0
  -17.6820   41.1503   39.0009 H   0  0  0  0  0  0  0  0  0  0  0  0
  -19.5442   42.0348   36.8299 H   0  0  0  0  0  0  0  0  0  0  0  0
  -17.9207   41.9762   36.6645 H   0  0  0  0  0  0  0  0  0  0  0  0
  -18.8783   41.1804   35.6079 H   0  0  0  0  0  0  0  0  0  0  0  0
  -20.7148   34.1403   38.0172 H   0  0  0  0  0  0  0  0  0  0  0  0
  -20.0566   34.3592   36.5389 H   0  0  0  0  0  0  0  0  0  0  0  0
  -26.2686   36.3053   35.1201 H   0  0  0  0  0  0  0  0  0  0  0  0
  -27.0268   37.7389   34.9286 H   0  0  0  0  0  0  0  0  0  0  0  0
  -21.4674   32.9307   42.7901 H   0  0  0  0  0  0  0  0  0  0  0  0
  -23.0378   33.9983   41.3383 H   0  0  0  0  0  0  0  0  0  0  0  0
  -19.9854   31.2612   41.9290 H   0  0  0  0  0  0  0  0  0  0  0  0
  -23.1451   33.3931   39.0310 H   0  0  0  0  0  0  0  0  0  0  0  0
  -20.0712   30.6703   39.6112 H   0  0  0  0  0  0  0  0  0  0  0  0
  -24.3806   35.2358   36.0016 H   0  0  0  0  0  0  0  0  0  0  0  0
  -21.5157   30.6327   37.5652 H   0  0  0  0  0  0  0  0  0  0  0  0
  -22.5713   31.8498   37.2992 H   0  0  0  0  0  0  0  0  0  0  0  0
  -19.6979   32.1303   37.2733 H   0  0  0  0  0  0  0  0  0  0  0  0
  -20.2905   32.8286   34.9629 H   0  0  0  0  0  0  0  0  0  0  0  0
  1 34  1  0  0  0  0
  2  6  1  0  0  0  0
  2  7  1  0  0  0  0
  3 14  1  0  0  0  0
  3 25  1  0  0  0  0
  4 26  1  0  0  0  0
  5 27  1  0  0  0  0
  6 26  2  0  0  0  0
  7 30  2  0  0  0  0
  8 25  2  0  0  0  0
  8 29  1  0  0  0  0
  9 28  2  0  0  0  0
  9 31  1  0  0  0  0
 10 15  1  0  0  0  0
 10 28  1  0  0  0  0
 10 32  1  0  0  0  0
 11 15  1  0  0  0  0
 12 34  1  0  0  0  0
 13 34  1  0  0  0  0
 14 27  1  0  0  0  0
 16 17  2  0  0  0  0
 16 18  1  0  0  0  0
 17 19  1  0  0  0  0
 18 20  2  0  0  0  0
 19 33  2  0  0  0  0
 20 33  1  0  0  0  0
 21 24  3  0  0  0  0
 21 29  1  0  0  0  0
 22 25  1  0  0  0  0
 22 32  2  0  0  0  0
 23 27  1  0  0  0  0
 23 33  1  0  0  0  0
 24 34  1  0  0  0  0
 26 30  1  0  0  0  0
 28 30  1  0  0  0  0
 29 31  2  0  0  0  0
 31 32  1  0  0  0  0
  1 35  1  0  0  0  0
  4 36  1  0  0  0  0
  4 37  1  0  0  0  0
  5 38  1  0  0  0  0
  5 39  1  0  0  0  0
 11 40  1  0  0  0  0
 11 41  1  0  0  0  0
 11 42  1  0  0  0  0
 12 43  1  0  0  0  0
 12 44  1  0  0  0  0
 12 45  1  0  0  0  0
 13 46  1  0  0  0  0
 13 47  1  0  0  0  0
 13 48  1  0  0  0  0
 14 49  1  0  0  0  0
 14 50  1  0  0  0  0
 15 51  1  0  0  0  0
 15 52  1  0  0  0  0
 16 53  1  0  0  0  0
 17 54  1  0  0  0  0
 18 55  1  0  0  0  0
 19 56  1  0  0  0  0
 20 57  1  0  0  0  0
 22 58  1  0  0  0  0
 23 59  1  0  0  0  0
 23 60  1  0  0  0  0
 27 61  1  0  0  0  0
  5 62  1  0  0  0  0
M  CHG  1   5   1
M  END
$$$$
3E8C_G96_D_351
prProtoss 05262315423D 1   1.00000     0.00000     0
Protoss beta proteinsplus
 62 65  0  0  0  0            999 V2000
   19.0960   36.6760   44.7580 O   0  0  0  0  0  0  0  0  0  0  0  0
   29.4140   36.6780   46.2180 O   0  0  0  0  0  0  0  0  0  0  0  0
   22.1640   31.4620   48.1320 O   0  0  0  0  0  0  0  0  0  0  0  0
   26.3800   37.8300   44.9960 N   0  0  0  0  0  0  0  0  0  0  0  0
   20.4900   30.5710   50.2360 N   0  3  0  0  0  0  0  0  0  0  0  0
   28.6920   37.6890   45.4920 N   0  0  0  0  0  0  0  0  0  0  0  0
   28.5910   35.6070   46.7130 N   0  0  0  0  0  0  0  0  0  0  0  0
   22.1170   33.4450   46.8450 N   0  0  0  0  0  0  0  0  0  0  0  0
   24.9940   35.6470   46.0340 N   0  0  0  0  0  0  0  0  0  0  0  0
   26.1360   34.1250   47.2430 N   0  0  0  0  0  0  0  0  0  0  0  0
   27.6160   32.1690   47.1270 C   0  0  0  0  0  0  0  0  0  0  0  0
   20.5100   36.7680   42.8160 C   0  0  0  0  0  0  0  0  0  0  0  0
   20.7180   38.4400   44.6980 C   0  0  0  0  0  0  0  0  0  0  0  0
   20.7720   31.2170   47.9260 C   0  0  0  0  0  0  0  0  0  0  0  0
   27.1810   33.3660   47.9470 C   0  0  0  0  0  0  0  0  0  0  0  0
   20.3790   27.4650   44.6250 C   0  0  0  0  0  0  0  0  0  0  0  0
   21.5570   28.1300   44.9510 C   0  0  0  0  0  0  0  0  0  0  0  0
   19.4160   27.2370   45.6020 C   0  0  0  0  0  0  0  0  0  0  0  0
   21.7690   28.5660   46.2560 C   0  0  0  0  0  0  0  0  0  0  0  0
   19.6230   27.6720   46.9060 C   0  0  0  0  0  0  0  0  0  0  0  0
   22.0320   35.3410   45.6120 C   0  0  0  0  0  0  0  0  0  0  0  0
   24.1690   32.6810   47.7640 C   0  0  0  0  0  0  0  0  0  0  0  0
   21.0220   28.8100   48.6500 C   0  0  0  0  0  0  0  0  0  0  0  0
   21.3420   36.0910   45.0200 C   0  0  0  0  0  0  0  0  0  0  0  0
   22.7980   32.5380   47.5750 C   0  0  0  0  0  0  0  0  0  0  0  0
   27.4410   37.1880   45.5640 C   0  0  0  0  0  0  0  0  0  0  0  0
   20.2810   30.1250   48.8730 C   0  0  1  0  0  0  0  0  0  0  0  0
   26.1920   35.2570   46.5220 C   0  0  0  0  0  0  0  0  0  0  0  0
   22.7410   34.5100   46.2860 C   0  0  0  0  0  0  0  0  0  0  0  0
   27.3680   35.9930   46.2830 C   0  0  0  0  0  0  0  0  0  0  0  0
   24.1200   34.6980   46.4540 C   0  0  0  0  0  0  0  0  0  0  0  0
   24.8430   33.7650   47.2060 C   0  0  0  0  0  0  0  0  0  0  0  0
   20.8000   28.3350   47.2350 C   0  0  0  0  0  0  0  0  0  0  0  0
   20.4180   36.9930   44.3250 C   0  0  0  0  0  0  0  0  0  0  0  0
   18.8960   35.7195   44.5454 H   0  0  0  0  0  0  0  0  0  0  0  0
   25.4630   37.4370   45.0640 H   0  0  0  0  0  0  0  0  0  0  0  0
   26.5192   38.6937   44.5116 H   0  0  0  0  0  0  0  0  0  0  0  0
   19.7926   30.1686   50.8290 H   0  0  0  0  0  0  0  0  0  0  0  0
   21.3966   30.2840   50.5453 H   0  0  0  0  0  0  0  0  0  0  0  0
   28.3255   31.6665   47.6211 H   0  0  0  0  0  0  0  0  0  0  0  0
   26.8311   31.5696   46.9698 H   0  0  0  0  0  0  0  0  0  0  0  0
   27.9786   32.4806   46.2487 H   0  0  0  0  0  0  0  0  0  0  0  0
   21.4337   36.9876   42.5019 H   0  0  0  0  0  0  0  0  0  0  0  0
   20.3060   35.8112   42.6086 H   0  0  0  0  0  0  0  0  0  0  0  0
   19.8505   37.3580   42.3502 H   0  0  0  0  0  0  0  0  0  0  0  0
   21.6429   38.6762   44.4000 H   0  0  0  0  0  0  0  0  0  0  0  0
   20.0589   39.0434   44.2492 H   0  0  0  0  0  0  0  0  0  0  0  0
   20.6490   38.5498   45.6896 H   0  0  0  0  0  0  0  0  0  0  0  0
   20.6247   30.9250   46.9810 H   0  0  0  0  0  0  0  0  0  0  0  0
   20.2598   32.0583   48.0987 H   0  0  0  0  0  0  0  0  0  0  0  0
   26.8220   33.0497   48.8251 H   0  0  0  0  0  0  0  0  0  0  0  0
   27.9695   33.9607   48.1040 H   0  0  0  0  0  0  0  0  0  0  0  0
   20.2249   27.1510   43.6882 H   0  0  0  0  0  0  0  0  0  0  0  0
   22.2501   28.2944   44.2491 H   0  0  0  0  0  0  0  0  0  0  0  0
   18.5707   26.7579   45.3654 H   0  0  0  0  0  0  0  0  0  0  0  0
   22.6147   29.0444   46.4924 H   0  0  0  0  0  0  0  0  0  0  0  0
   18.9273   27.5085   47.6055 H   0  0  0  0  0  0  0  0  0  0  0  0
   24.6717   32.0041   48.3016 H   0  0  0  0  0  0  0  0  0  0  0  0
   20.6783   28.1222   49.2894 H   0  0  0  0  0  0  0  0  0  0  0  0
   22.0002   28.9493   48.8043 H   0  0  0  0  0  0  0  0  0  0  0  0
   19.3032   29.9784   48.7236 H   0  0  0  0  0  0  0  0  0  0  0  0
   20.4250   31.5682   50.2741 H   0  0  0  0  0  0  0  0  0  0  0  0
  1 34  1  0  0  0  0
  2  6  1  0  0  0  0
  2  7  1  0  0  0  0
  3 14  1  0  0  0  0
  3 25  1  0  0  0  0
  4 26  1  0  0  0  0
  5 27  1  0  0  0  0
  6 26  2  0  0  0  0
  7 30  2  0  0  0  0
  8 25  2  0  0  0  0
  8 29  1  0  0  0  0
  9 28  2  0  0  0  0
  9 31  1  0  0  0  0
 10 15  1  0  0  0  0
 10 28  1  0  0  0  0
 10 32  1  0  0  0  0
 11 15  1  0  0  0  0
 12 34  1  0  0  0  0
 13 34  1  0  0  0  0
 14 27  1  0  0  0  0
 16 17  2  0  0  0  0
 16 18  1  0  0  0  0
 17 19  1  0  0  0  0
 18 20  2  0  0  0  0
 19 33  2  0  0  0  0
 20 33  1  0  0  0  0
 21 24  3  0  0  0  0
 21 29  1  0  0  0  0
 22 25  1  0  0  0  0
 22 32  2  0  0  0  0
 23 27  1  0  0  0  0
 23 33  1  0  0  0  0
 24 34  1  0  0  0  0
 26 30  1  0  0  0  0
 28 30  1  0  0  0  0
 29 31  2  0  0  0  0
 31 32  1  0  0  0  0
  1 35  1  0  0  0  0
  4 36  1  0  0  0  0
  4 37  1  0  0  0  0
  5 38  1  0  0  0  0
  5 39  1  0  0  0  0
 11 40  1  0  0  0  0
 11 41  1  0  0  0  0
 11 42  1  0  0  0  0
 12 43  1  0  0  0  0
 12 44  1  0  0  0  0
 12 45  1  0  0  0  0
 13 46  1  0  0  0  0
 13 47  1  0  0  0  0
 13 48  1  0  0  0  0
 14 49  1  0  0  0  0
 14 50  1  0  0  0  0
 15 51  1  0  0  0  0
 15 52  1  0  0  0  0
 16 53  1  0  0  0  0
 17 54  1  0  0  0  0
 18 55  1  0  0  0  0
 19 56  1  0  0  0  0
 20 57  1  0  0  0  0
 22 58  1  0  0  0  0
 23 59  1  0  0  0  0
 23 60  1  0  0  0  0
 27 61  1  0  0  0  0
  5 62  1  0  0  0  0
M  CHG  1   5   1
M  END
$$$$
3E8C_G96_E_351
prProtoss 05262315423D 1   1.00000     0.00000     0
Protoss beta proteinsplus
 62 65  0  0  0  0            999 V2000
  -46.1000   -7.0230   72.4380 O   0  0  0  0  0  0  0  0  0  0  0  0
  -56.2840   -7.4900   71.2800 O   0  0  0  0  0  0  0  0  0  0  0  0
  -49.0240  -12.9150   70.0200 O   0  0  0  0  0  0  0  0  0  0  0  0
  -53.1840   -6.2450   72.2190 N   0  0  0  0  0  0  0  0  0  0  0  0
  -47.3890  -14.1540   68.0690 N   0  3  0  0  0  0  0  0  0  0  0  0
  -55.5240   -6.4030   71.8290 N   0  0  0  0  0  0  0  0  0  0  0  0
  -55.4960   -8.6450   70.9280 N   0  0  0  0  0  0  0  0  0  0  0  0
  -49.0010  -10.7750   71.0280 N   0  0  0  0  0  0  0  0  0  0  0  0
  -51.8960   -8.5350   71.5390 N   0  0  0  0  0  0  0  0  0  0  0  0
  -53.0310  -10.2060   70.5510 N   0  0  0  0  0  0  0  0  0  0  0  0
  -54.8820  -11.7360   71.0530 C   0  0  0  0  0  0  0  0  0  0  0  0
  -47.1480   -7.3520   74.5710 C   0  0  0  0  0  0  0  0  0  0  0  0
  -47.9300   -5.5520   73.0010 C   0  0  0  0  0  0  0  0  0  0  0  0
  -47.6380  -13.1410   70.2540 C   0  0  0  0  0  0  0  0  0  0  0  0
  -54.1010  -11.0260   69.9690 C   0  0  0  0  0  0  0  0  0  0  0  0
  -47.3770  -16.1770   74.1440 C   0  0  0  0  0  0  0  0  0  0  0  0
  -48.5190  -15.5190   73.6910 C   0  0  0  0  0  0  0  0  0  0  0  0
  -46.4380  -16.6550   73.2310 C   0  0  0  0  0  0  0  0  0  0  0  0
  -48.7270  -15.3440   72.3220 C   0  0  0  0  0  0  0  0  0  0  0  0
  -46.6370  -16.4780   71.8630 C   0  0  0  0  0  0  0  0  0  0  0  0
  -48.9570   -8.7370   71.9870 C   0  0  0  0  0  0  0  0  0  0  0  0
  -51.0460  -11.6890   70.2220 C   0  0  0  0  0  0  0  0  0  0  0  0
  -47.9970  -15.6220   69.9240 C   0  0  0  0  0  0  0  0  0  0  0  0
  -48.2730   -7.9260   72.4950 C   0  0  0  0  0  0  0  0  0  0  0  0
  -49.6720  -11.7840   70.4320 C   0  0  0  0  0  0  0  0  0  0  0  0
  -54.2840   -6.9330   71.7910 C   0  0  0  0  0  0  0  0  0  0  0  0
  -47.2040  -14.3900   69.4880 C   0  0  1  0  0  0  0  0  0  0  0  0
  -53.0870   -8.9900   71.1110 C   0  0  0  0  0  0  0  0  0  0  0  0
  -49.6470   -9.6610   71.4340 C   0  0  0  0  0  0  0  0  0  0  0  0
  -54.2550   -8.2220   71.2630 C   0  0  0  0  0  0  0  0  0  0  0  0
  -51.0220   -9.5220   71.2410 C   0  0  0  0  0  0  0  0  0  0  0  0
  -51.7360  -10.5530   70.6270 C   0  0  0  0  0  0  0  0  0  0  0  0
  -47.7840  -15.8260   71.4070 C   0  0  0  0  0  0  0  0  0  0  0  0
  -47.3580   -6.9600   73.1150 C   0  0  0  0  0  0  0  0  0  0  0  0
  -45.5268   -7.7229   72.8641 H   0  0  0  0  0  0  0  0  0  0  0  0
  -52.2801   -6.6705   72.1757 H   0  0  0  0  0  0  0  0  0  0  0  0
  -53.2828   -5.3160   72.5756 H   0  0  0  0  0  0  0  0  0  0  0  0
  -46.7126  -14.6794   67.5527 H   0  0  0  0  0  0  0  0  0  0  0  0
  -48.3089  -14.4401   67.8007 H   0  0  0  0  0  0  0  0  0  0  0  0
  -55.6044  -12.2879   70.6363 H   0  0  0  0  0  0  0  0  0  0  0  0
  -54.2672  -12.3292   71.5727 H   0  0  0  0  0  0  0  0  0  0  0  0
  -55.2907  -11.0602   71.6664 H   0  0  0  0  0  0  0  0  0  0  0  0
  -48.0214   -7.3120   75.0563 H   0  0  0  0  0  0  0  0  0  0  0  0
  -46.7837   -8.2822   74.6166 H   0  0  0  0  0  0  0  0  0  0  0  0
  -46.5009   -6.7194   74.9965 H   0  0  0  0  0  0  0  0  0  0  0  0
  -48.8095   -5.5101   73.4750 H   0  0  0  0  0  0  0  0  0  0  0  0
  -47.2959   -4.9000   73.4167 H   0  0  0  0  0  0  0  0  0  0  0  0
  -48.0598   -5.3220   72.0365 H   0  0  0  0  0  0  0  0  0  0  0  0
  -47.4803  -13.2755   71.2323 H   0  0  0  0  0  0  0  0  0  0  0  0
  -47.1110  -12.3526   69.9367 H   0  0  0  0  0  0  0  0  0  0  0  0
  -53.6972  -11.7058   69.3568 H   0  0  0  0  0  0  0  0  0  0  0  0
  -54.7207  -10.4368   69.4505 H   0  0  0  0  0  0  0  0  0  0  0  0
  -47.2310  -16.3064   75.1248 H   0  0  0  0  0  0  0  0  0  0  0  0
  -49.1895  -15.1722   74.3469 H   0  0  0  0  0  0  0  0  0  0  0  0
  -45.6192  -17.1263   73.5587 H   0  0  0  0  0  0  0  0  0  0  0  0
  -49.5479  -14.8753   71.9957 H   0  0  0  0  0  0  0  0  0  0  0  0
  -45.9600  -16.8171   71.2099 H   0  0  0  0  0  0  0  0  0  0  0  0
  -51.5364  -12.4396   69.7791 H   0  0  0  0  0  0  0  0  0  0  0  0
  -47.6755  -16.4254   69.4229 H   0  0  0  0  0  0  0  0  0  0  0  0
  -48.9695  -15.4807   69.7387 H   0  0  0  0  0  0  0  0  0  0  0  0
  -46.2331  -14.5537   69.6631 H   0  0  0  0  0  0  0  0  0  0  0  0
  -47.2730  -13.1798   67.8752 H   0  0  0  0  0  0  0  0  0  0  0  0
  1 34  1  0  0  0  0
  2  6  1  0  0  0  0
  2  7  1  0  0  0  0
  3 14  1  0  0  0  0
  3 25  1  0  0  0  0
  4 26  1  0  0  0  0
  5 27  1  0  0  0  0
  6 26  2  0  0  0  0
  7 30  2  0  0  0  0
  8 25  2  0  0  0  0
  8 29  1  0  0  0  0
  9 28  2  0  0  0  0
  9 31  1  0  0  0  0
 10 15  1  0  0  0  0
 10 28  1  0  0  0  0
 10 32  1  0  0  0  0
 11 15  1  0  0  0  0
 12 34  1  0  0  0  0
 13 34  1  0  0  0  0
 14 27  1  0  0  0  0
 16 17  2  0  0  0  0
 16 18  1  0  0  0  0
 17 19  1  0  0  0  0
 18 20  2  0  0  0  0
 19 33  2  0  0  0  0
 20 33  1  0  0  0  0
 21 24  3  0  0  0  0
 21 29  1  0  0  0  0
 22 25  1  0  0  0  0
 22 32  2  0  0  0  0
 23 27  1  0  0  0  0
 23 33  1  0  0  0  0
 24 34  1  0  0  0  0
 26 30  1  0  0  0  0
 28 30  1  0  0  0  0
 29 31  2  0  0  0  0
 31 32  1  0  0  0  0
  1 35  1  0  0  0  0
  4 36  1  0  0  0  0
  4 37  1  0  0  0  0
  5 38  1  0  0  0  0
  5 39  1  0  0  0  0
 11 40  1  0  0  0  0
 11 41  1  0  0  0  0
 11 42  1  0  0  0  0
 12 43  1  0  0  0  0
 12 44  1  0  0  0  0
 12 45  1  0  0  0  0
 13 46  1  0  0  0  0
 13 47  1  0  0  0  0
 13 48  1  0  0  0  0
 14 49  1  0  0  0  0
 14 50  1  0  0  0  0
 15 51  1  0  0  0  0
 15 52  1  0  0  0  0
 16 53  1  0  0  0  0
 17 54  1  0  0  0  0
 18 55  1  0  0  0  0
 19 56  1  0  0  0  0
 20 57  1  0  0  0  0
 22 58  1  0  0  0  0
 23 59  1  0  0  0  0
 23 60  1  0  0  0  0
 27 61  1  0  0  0  0
  5 62  1  0  0  0  0
M  CHG  1   5   1
M  END
$$$$
3E8C_G96_F_351
prProtoss 05262315423D 1   1.00000     0.00000     0
Protoss beta proteinsplus
 62 65  0  0  0  0            999 V2000
   -9.3140   -3.1140   80.0470 O   0  0  0  0  0  0  0  0  0  0  0  0
    0.8450   -1.3360   80.9970 O   0  0  0  0  0  0  0  0  0  0  0  0
   -4.8640   -8.4730   81.2650 O   0  0  0  0  0  0  0  0  0  0  0  0
   -2.5200   -0.6770   80.4600 N   0  0  0  0  0  0  0  0  0  0  0  0
   -6.2260  -10.5410   82.6690 N   0  3  0  0  0  0  0  0  0  0  0  0
   -0.1780   -0.3620   80.7190 N   0  0  0  0  0  0  0  0  0  0  0  0
    0.3580   -2.6870   81.1170 N   0  0  0  0  0  0  0  0  0  0  0  0
   -5.4290   -6.2550   80.6740 N   0  0  0  0  0  0  0  0  0  0  0  0
   -3.1930   -3.3120   80.5960 N   0  0  0  0  0  0  0  0  0  0  0  0
   -1.6470   -4.8110   81.2620 N   0  0  0  0  0  0  0  0  0  0  0  0
    0.4680   -5.8040   80.4880 C   0  0  0  0  0  0  0  0  0  0  0  0
   -8.2690   -2.3910   78.0030 C   0  0  0  0  0  0  0  0  0  0  0  0
   -7.8680   -1.2090   80.1850 C   0  0  0  0  0  0  0  0  0  0  0  0
   -6.1180   -8.9650   80.8010 C   0  0  0  0  0  0  0  0  0  0  0  0
   -0.3850   -5.4370   81.6860 C   0  0  0  0  0  0  0  0  0  0  0  0
   -5.7660  -11.2310   76.3090 C   0  0  0  0  0  0  0  0  0  0  0  0
   -4.7680  -10.4580   76.9000 C   0  0  0  0  0  0  0  0  0  0  0  0
   -6.5840  -12.0360   77.0930 C   0  0  0  0  0  0  0  0  0  0  0  0
   -4.5860  -10.4880   78.2800 C   0  0  0  0  0  0  0  0  0  0  0  0
   -6.4120  -12.0630   78.4740 C   0  0  0  0  0  0  0  0  0  0  0  0
   -6.0330   -4.1320   80.1020 C   0  0  0  0  0  0  0  0  0  0  0  0
   -3.1950   -6.7740   81.3060 C   0  0  0  0  0  0  0  0  0  0  0  0
   -5.2310  -11.3150   80.5700 C   0  0  0  0  0  0  0  0  0  0  0  0
   -6.9510   -3.4440   79.7820 C   0  0  0  0  0  0  0  0  0  0  0  0
   -4.5120   -7.1630   81.0800 C   0  0  0  0  0  0  0  0  0  0  0  0
   -1.2630   -1.1610   80.6880 C   0  0  0  0  0  0  0  0  0  0  0  0
   -6.2920  -10.4240   81.2190 C   0  0  1  0  0  0  0  0  0  0  0  0
   -1.9120   -3.5350   80.9410 C   0  0  0  0  0  0  0  0  0  0  0  0
   -5.1060   -4.9510   80.4780 C   0  0  0  0  0  0  0  0  0  0  0  0
   -0.9660   -2.5000   80.9290 C   0  0  0  0  0  0  0  0  0  0  0  0
   -3.7930   -4.5190   80.7010 C   0  0  0  0  0  0  0  0  0  0  0  0
   -2.8250   -5.4430   81.1200 C   0  0  0  0  0  0  0  0  0  0  0  0
   -5.4110  -11.2920   79.0680 C   0  0  0  0  0  0  0  0  0  0  0  0
   -8.1020   -2.5550   79.5120 C   0  0  0  0  0  0  0  0  0  0  0  0
   -9.4859   -4.0037   79.6239 H   0  0  0  0  0  0  0  0  0  0  0  0
   -3.3010   -1.3014   80.4444 H   0  0  0  0  0  0  0  0  0  0  0  0
   -2.6591    0.3016   80.3087 H   0  0  0  0  0  0  0  0  0  0  0  0
   -6.7899  -11.3111   82.9673 H   0  0  0  0  0  0  0  0  0  0  0  0
   -5.2781  -10.6941   82.9483 H   0  0  0  0  0  0  0  0  0  0  0  0
    1.3183   -6.2268   80.8012 H   0  0  0  0  0  0  0  0  0  0  0  0
   -0.0309   -6.4483   79.9084 H   0  0  0  0  0  0  0  0  0  0  0  0
    0.6793   -4.9789   79.9640 H   0  0  0  0  0  0  0  0  0  0  0  0
   -7.4330   -2.0026   77.6154 H   0  0  0  0  0  0  0  0  0  0  0  0
   -8.4453   -3.2837   77.5882 H   0  0  0  0  0  0  0  0  0  0  0  0
   -9.0380   -1.7794   77.8173 H   0  0  0  0  0  0  0  0  0  0  0  0
   -7.0283   -0.7995   79.8283 H   0  0  0  0  0  0  0  0  0  0  0  0
   -8.6408   -0.6031   79.9961 H   0  0  0  0  0  0  0  0  0  0  0  0
   -7.7813   -1.3407   81.1725 H   0  0  0  0  0  0  0  0  0  0  0  0
   -6.1511   -8.8998   79.8037 H   0  0  0  0  0  0  0  0  0  0  0  0
   -6.8556   -8.4170   81.1956 H   0  0  0  0  0  0  0  0  0  0  0  0
   -0.5898   -6.2651   82.2078 H   0  0  0  0  0  0  0  0  0  0  0  0
    0.1205   -4.7957   82.2633 H   0  0  0  0  0  0  0  0  0  0  0  0
   -5.8939  -11.2063   75.3175 H   0  0  0  0  0  0  0  0  0  0  0  0
   -4.1816   -9.8808   76.3317 H   0  0  0  0  0  0  0  0  0  0  0  0
   -7.2948  -12.5948   76.6657 H   0  0  0  0  0  0  0  0  0  0  0  0
   -3.8679   -9.9364   78.7044 H   0  0  0  0  0  0  0  0  0  0  0  0
   -7.0054  -12.6346   79.0407 H   0  0  0  0  0  0  0  0  0  0  0  0
   -2.5166   -7.4469   81.6008 H   0  0  0  0  0  0  0  0  0  0  0  0
   -5.3315  -12.2521   80.9043 H   0  0  0  0  0  0  0  0  0  0  0  0
   -4.3202  -10.9739   80.8027 H   0  0  0  0  0  0  0  0  0  0  0  0
   -7.1935  -10.7343   80.9172 H   0  0  0  0  0  0  0  0  0  0  0  0
   -6.5647   -9.6981   83.0872 H   0  0  0  0  0  0  0  0  0  0  0  0
  1 34  1  0  0  0  0
  2  6  1  0  0  0  0
  2  7  1  0  0  0  0
  3 14  1  0  0  0  0
  3 25  1  0  0  0  0
  4 26  1  0  0  0  0
  5 27  1  0  0  0  0
  6 26  2  0  0  0  0
  7 30  2  0  0  0  0
  8 25  2  0  0  0  0
  8 29  1  0  0  0  0
  9 28  2  0  0  0  0
  9 31  1  0  0  0  0
 10 15  1  0  0  0  0
 10 28  1  0  0  0  0
 10 32  1  0  0  0  0
 11 15  1  0  0  0  0
 12 34  1  0  0  0  0
 13 34  1  0  0  0  0
 14 27  1  0  0  0  0
 16 17  2  0  0  0  0
 16 18  1  0  0  0  0
 17 19  1  0  0  0  0
 18 20  2  0  0  0  0
 19 33  2  0  0  0  0
 20 33  1  0  0  0  0
 21 24  3  0  0  0  0
 21 29  1  0  0  0  0
 22 25  1  0  0  0  0
 22 32  2  0  0  0  0
 23 27  1  0  0  0  0
 23 33  1  0  0  0  0
 24 34  1  0  0  0  0
 26 30  1  0  0  0  0
 28 30  1  0  0  0  0
 29 31  2  0  0  0  0
 31 32  1  0  0  0  0
  1 35  1  0  0  0  0
  4 36  1  0  0  0  0
  4 37  1  0  0  0  0
  5 38  1  0  0  0  0
  5 39  1  0  0  0  0
 11 40  1  0  0  0  0
 11 41  1  0  0  0  0
 11 42  1  0  0  0  0
 12 43  1  0  0  0  0
 12 44  1  0  0  0  0
 12 45  1  0  0  0  0
 13 46  1  0  0  0  0
 13 47  1  0  0  0  0
 13 48  1  0  0  0  0
 14 49  1  0  0  0  0
 14 50  1  0  0  0  0
 15 51  1  0  0  0  0
 15 52  1  0  0  0  0
 16 53  1  0  0  0  0
 17 54  1  0  0  0  0
 18 55  1  0  0  0  0
 19 56  1  0  0  0  0
 20 57  1  0  0  0  0
 22 58  1  0  0  0  0
 23 59  1  0  0  0  0
 23 60  1  0  0  0  0
 27 61  1  0  0  0  0
  5 62  1  0  0  0  0
M  CHG  1   5   1
M  END
$$$$
3KKV_B99_A_351
prProtoss 11272419013D 1   1.00000     0.00000     0
Protoss beta proteinsplus
 61 66  0  0  0  0            999 V2000
  -30.0640  -13.1770    2.3520 O   0  0  0  0  0  0  0  0  0  0  0  0
  -24.9700   -8.4930   -0.6440 O   0  0  0  0  0  0  0  0  0  0  0  0
  -23.0400   -7.1990   -1.2980 N   0  3  0  0  0  0  0  0  0  0  0  0
  -32.7270  -10.2440   -4.0610 N   0  0  0  0  0  0  0  0  0  0  0  0
  -33.1540  -10.0650   -2.7990 N   0  0  0  0  0  0  0  0  0  0  0  0
  -21.4610  -10.3350    0.4770 N   0  0  0  0  0  0  0  0  0  0  0  0
  -26.6780  -11.1910    1.0480 N   0  0  0  0  0  0  0  0  0  0  0  0
  -30.6920  -10.5550   -5.4560 C   0  0  0  0  0  0  0  0  0  0  0  0
  -30.4300  -13.5760    1.1030 C   0  0  0  0  0  0  0  0  0  0  0  0
  -29.0920  -12.2350    2.2080 C   0  0  0  0  0  0  0  0  0  0  0  0
  -24.8460   -8.6290   -2.0450 C   0  0  0  0  0  0  0  0  0  0  0  0
  -25.7600  -10.3100    0.6530 C   0  0  0  0  0  0  0  0  0  0  0  0
  -21.5750   -9.2940   -0.3950 C   0  0  0  0  0  0  0  0  0  0  0  0
  -22.6190  -13.6770   -0.3070 C   0  0  0  0  0  0  0  0  0  0  0  0
  -23.0810  -13.3880   -1.5660 C   0  0  0  0  0  0  0  0  0  0  0  0
  -29.6960  -12.9000    0.1540 C   0  0  0  0  0  0  0  0  0  0  0  0
  -22.0430  -12.7280    0.4990 C   0  0  0  0  0  0  0  0  0  0  0  0
  -31.9020   -9.9060   -0.6840 C   0  0  0  0  0  0  0  0  0  0  0  0
  -30.5730   -9.9610   -0.3120 C   0  0  0  0  0  0  0  0  0  0  0  0
  -23.0080  -12.1320   -2.1160 C   0  0  0  0  0  0  0  0  0  0  0  0
  -22.5030   -9.0060   -2.7410 C   0  0  0  0  0  0  0  0  0  0  0  0
  -27.2100   -9.2730   -0.9390 C   0  0  0  0  0  0  0  0  0  0  0  0
  -29.5960  -10.2910   -2.5140 C   0  0  0  0  0  0  0  0  0  0  0  0
  -25.9870   -9.3620   -0.3150 C   0  0  0  0  0  0  0  0  0  0  0  0
  -23.5540   -7.9640   -2.4580 C   0  0  2  0  0  0  0  0  0  0  0  0
  -31.3710  -10.3550   -4.1640 C   0  0  0  0  0  0  0  0  0  0  0  0
  -32.0470  -10.0570   -2.0430 C   0  0  0  0  0  0  0  0  0  0  0  0
  -21.9740  -11.4780   -0.0640 C   0  0  0  0  0  0  0  0  0  0  0  0
  -27.8560  -11.0870    0.4300 C   0  0  0  0  0  0  0  0  0  0  0  0
  -28.8350  -12.0350    0.8720 C   0  0  0  0  0  0  0  0  0  0  0  0
  -22.1800   -9.7760   -1.5330 C   0  0  0  0  0  0  0  0  0  0  0  0
  -29.4820  -10.1420   -1.1450 C   0  0  0  0  0  0  0  0  0  0  0  0
  -30.9230  -10.2350   -2.8690 C   0  0  0  0  0  0  0  0  0  0  0  0
  -22.4330  -11.1560   -1.3280 C   0  0  0  0  0  0  0  0  0  0  0  0
  -28.1770  -10.1700   -0.5470 C   0  0  0  0  0  0  0  0  0  0  0  0
  -22.0413   -7.1653   -1.3370 H   0  0  0  0  0  0  0  0  0  0  0  0
  -23.4061   -6.2688   -1.3235 H   0  0  0  0  0  0  0  0  0  0  0  0
  -34.0990   -9.9599   -2.4892 H   0  0  0  0  0  0  0  0  0  0  0  0
  -21.0565  -10.2702    1.3892 H   0  0  0  0  0  0  0  0  0  0  0  0
  -29.7045  -10.6099   -5.3086 H   0  0  0  0  0  0  0  0  0  0  0  0
  -31.0144  -11.4043   -5.8740 H   0  0  0  0  0  0  0  0  0  0  0  0
  -30.8963   -9.7865   -6.0624 H   0  0  0  0  0  0  0  0  0  0  0  0
  -31.1307  -14.2610    0.9035 H   0  0  0  0  0  0  0  0  0  0  0  0
  -28.6342  -11.7604    2.9598 H   0  0  0  0  0  0  0  0  0  0  0  0
  -25.6181   -8.1853   -2.5000 H   0  0  0  0  0  0  0  0  0  0  0  0
  -24.8249   -9.5976   -2.2927 H   0  0  0  0  0  0  0  0  0  0  0  0
  -24.8581  -10.3404    1.0839 H   0  0  0  0  0  0  0  0  0  0  0  0
  -21.2744   -8.3534   -0.2370 H   0  0  0  0  0  0  0  0  0  0  0  0
  -22.7052  -14.6126    0.0353 H   0  0  0  0  0  0  0  0  0  0  0  0
  -23.4886  -14.1240   -2.1066 H   0  0  0  0  0  0  0  0  0  0  0  0
  -29.7583  -12.9996   -0.8391 H   0  0  0  0  0  0  0  0  0  0  0  0
  -21.7027  -12.9295    1.4175 H   0  0  0  0  0  0  0  0  0  0  0  0
  -32.6612   -9.7734   -0.0468 H   0  0  0  0  0  0  0  0  0  0  0  0
  -30.3779   -9.8592    0.6635 H   0  0  0  0  0  0  0  0  0  0  0  0
  -23.3516  -11.9359   -3.0344 H   0  0  0  0  0  0  0  0  0  0  0  0
  -21.6746   -8.5528   -3.0702 H   0  0  0  0  0  0  0  0  0  0  0  0
  -22.8434   -9.6301   -3.4443 H   0  0  0  0  0  0  0  0  0  0  0  0
  -27.3880   -8.5877   -1.6452 H   0  0  0  0  0  0  0  0  0  0  0  0
  -28.8328  -10.4194   -3.1473 H   0  0  0  0  0  0  0  0  0  0  0  0
  -23.6926   -7.3683   -3.2492 H   0  0  0  0  0  0  0  0  0  0  0  0
  -23.3256   -7.6465   -0.4506 H   0  0  0  0  0  0  0  0  0  0  0  0
  1  9  1  0  0  0  0
  1 10  1  0  0  0  0
  2 11  1  0  0  0  0
  2 24  1  0  0  0  0
  3 25  1  0  0  0  0
  4  5  1  0  0  0  0
  4 26  2  0  0  0  0
  5 27  1  0  0  0  0
  6 13  1  0  0  0  0
  6 28  1  0  0  0  0
  7 12  2  0  0  0  0
  7 29  1  0  0  0  0
  8 26  1  0  0  0  0
  9 16  2  0  0  0  0
 10 30  2  0  0  0  0
 11 25  1  0  0  0  0
 12 24  1  0  0  0  0
 13 31  2  0  0  0  0
 14 15  2  0  0  0  0
 14 17  1  0  0  0  0
 15 20  1  0  0  0  0
 16 30  1  0  0  0  0
 17 28  2  0  0  0  0
 18 19  1  0  0  0  0
 18 27  2  0  0  0  0
 19 32  2  0  0  0  0
 20 34  2  0  0  0  0
 21 25  1  0  0  0  0
 21 31  1  0  0  0  0
 22 24  2  0  0  0  0
 22 35  1  0  0  0  0
 23 32  1  0  0  0  0
 23 33  2  0  0  0  0
 26 33  1  0  0  0  0
 27 33  1  0  0  0  0
 28 34  1  0  0  0  0
 29 30  1  0  0  0  0
 29 35  2  0  0  0  0
 31 34  1  0  0  0  0
 32 35  1  0  0  0  0
  3 36  1  0  0  0  0
  3 37  1  0  0  0  0
  5 38  1  0  0  0  0
  6 39  1  0  0  0  0
  8 40  1  0  0  0  0
  8 41  1  0  0  0  0
  8 42  1  0  0  0  0
  9 43  1  0  0  0  0
 10 44  1  0  0  0  0
 11 45  1  0  0  0  0
 11 46  1  0  0  0  0
 12 47  1  0  0  0  0
 13 48  1  0  0  0  0
 14 49  1  0  0  0  0
 15 50  1  0  0  0  0
 16 51  1  0  0  0  0
 17 52  1  0  0  0  0
 18 53  1  0  0  0  0
 19 54  1  0  0  0  0
 20 55  1  0  0  0  0
 21 56  1  0  0  0  0
 21 57  1  0  0  0  0
 22 58  1  0  0  0  0
 23 59  1  0  0  0  0
 25 60  1  0  0  0  0
  3 61  1  0  0  0  0
M  CHG  1   3   1
M  END
$$$$
3E8E_G98_A_351
prProtoss 05262315163D 1   1.00000     0.00000     0
Protoss beta proteinsplus
 62 65  0  0  0  0            999 V2000
    3.9900   -8.8000   21.2450 O   0  0  0  0  0  0  0  0  0  0  0  0
   14.3190   -6.7580   22.6050 O   0  0  0  0  0  0  0  0  0  0  0  0
    8.4930  -13.8770   22.5140 O   0  0  0  0  0  0  0  0  0  0  0  0
    7.5600  -15.7210   23.8860 N   0  3  0  0  0  0  0  0  0  0  0  0
   11.0270   -5.7770   22.1100 N   0  0  0  0  0  0  0  0  0  0  0  0
   13.3740   -5.6960   22.3800 N   0  0  0  0  0  0  0  0  0  0  0  0
   13.7350   -8.0510   22.6680 N   0  0  0  0  0  0  0  0  0  0  0  0
    7.9410  -11.6490   22.0150 N   0  0  0  0  0  0  0  0  0  0  0  0
   10.1310   -8.6530   22.0860 N   0  0  0  0  0  0  0  0  0  0  0  0
   11.6750  -10.1440   22.7350 N   0  0  0  0  0  0  0  0  0  0  0  0
   13.5260  -11.5830   22.0530 C   0  0  0  0  0  0  0  0  0  0  0  0
    5.1980   -7.7480   19.4230 C   0  0  0  0  0  0  0  0  0  0  0  0
    5.2830   -6.8210   21.7510 C   0  0  0  0  0  0  0  0  0  0  0  0
    8.5290  -16.7030   23.4360 C   0  0  0  0  0  0  0  0  0  0  0  0
   12.9210  -10.7860   23.1850 C   0  0  0  0  0  0  0  0  0  0  0  0
    7.2720  -16.3750   18.2890 C   0  0  0  0  0  0  0  0  0  0  0  0
    6.6240  -16.4390   19.5180 C   0  0  0  0  0  0  0  0  0  0  0  0
    8.5460  -15.8200   18.2140 C   0  0  0  0  0  0  0  0  0  0  0  0
    9.6610  -16.0250   22.6820 C   0  0  0  0  0  0  0  0  0  0  0  0
    7.2450  -15.9520   20.6660 C   0  0  0  0  0  0  0  0  0  0  0  0
    9.1760  -15.3320   19.3510 C   0  0  0  0  0  0  0  0  0  0  0  0
    7.2930   -9.5780   21.5020 C   0  0  0  0  0  0  0  0  0  0  0  0
   10.1690  -12.1370   22.6720 C   0  0  0  0  0  0  0  0  0  0  0  0
    6.3630   -8.9150   21.2160 C   0  0  0  0  0  0  0  0  0  0  0  0
    8.8600  -12.5550   22.4020 C   0  0  0  0  0  0  0  0  0  0  0  0
   12.2220   -6.4040   22.3140 C   0  0  0  0  0  0  0  0  0  0  0  0
    9.2410  -14.8610   21.7840 C   0  0  1  0  0  0  0  0  0  0  0  0
   11.4000   -8.8640   22.4670 C   0  0  0  0  0  0  0  0  0  0  0  0
    8.2500  -10.3410   21.8690 C   0  0  0  0  0  0  0  0  0  0  0  0
   12.4240   -7.7720   22.5140 C   0  0  0  0  0  0  0  0  0  0  0  0
    9.5470   -9.8760   22.1290 C   0  0  0  0  0  0  0  0  0  0  0  0
   10.5150  -10.7920   22.5390 C   0  0  0  0  0  0  0  0  0  0  0  0
    8.5270  -15.3890   20.5870 C   0  0  0  0  0  0  0  0  0  0  0  0
    5.1930   -8.0880   20.9060 C   0  0  0  0  0  0  0  0  0  0  0  0
    3.9425   -9.6460   20.7139 H   0  0  0  0  0  0  0  0  0  0  0  0
    6.6669  -15.9262   23.4856 H   0  0  0  0  0  0  0  0  0  0  0  0
    7.4932  -15.7514   24.8833 H   0  0  0  0  0  0  0  0  0  0  0  0
   10.1833   -6.3118   22.0633 H   0  0  0  0  0  0  0  0  0  0  0  0
   10.9951   -4.7828   22.0072 H   0  0  0  0  0  0  0  0  0  0  0  0
   14.3715  -12.0163   22.3650 H   0  0  0  0  0  0  0  0  0  0  0  0
   12.8798  -12.2870   21.7584 H   0  0  0  0  0  0  0  0  0  0  0  0
   13.7271  -10.9733   21.2863 H   0  0  0  0  0  0  0  0  0  0  0  0
    6.0374   -7.2536   19.1972 H   0  0  0  0  0  0  0  0  0  0  0  0
    5.1535   -8.5914   18.8875 H   0  0  0  0  0  0  0  0  0  0  0  0
    4.4063   -7.1755   19.2096 H   0  0  0  0  0  0  0  0  0  0  0  0
    6.1185   -6.3234   21.5178 H   0  0  0  0  0  0  0  0  0  0  0  0
    4.4883   -6.2419   21.5691 H   0  0  0  0  0  0  0  0  0  0  0  0
    5.3012   -7.0672   22.7200 H   0  0  0  0  0  0  0  0  0  0  0  0
    8.0769  -17.3587   22.8313 H   0  0  0  0  0  0  0  0  0  0  0  0
    8.9031  -17.1839   24.2290 H   0  0  0  0  0  0  0  0  0  0  0  0
   12.7214  -11.3969   23.9511 H   0  0  0  0  0  0  0  0  0  0  0  0
   13.5688  -10.0832   23.4791 H   0  0  0  0  0  0  0  0  0  0  0  0
    6.8258  -16.7252   17.4654 H   0  0  0  0  0  0  0  0  0  0  0  0
    5.7083  -16.8363   19.5778 H   0  0  0  0  0  0  0  0  0  0  0  0
    9.0131  -15.7721   17.3311 H   0  0  0  0  0  0  0  0  0  0  0  0
   10.1062  -16.7128   22.1087 H   0  0  0  0  0  0  0  0  0  0  0  0
   10.3150  -15.6770   23.3537 H   0  0  0  0  0  0  0  0  0  0  0  0
    6.7760  -16.0039   21.5476 H   0  0  0  0  0  0  0  0  0  0  0  0
   10.0936  -14.9400   19.2853 H   0  0  0  0  0  0  0  0  0  0  0  0
   10.8566  -12.8034   22.9605 H   0  0  0  0  0  0  0  0  0  0  0  0
   10.0773  -14.4186   21.4601 H   0  0  0  0  0  0  0  0  0  0  0  0
    7.8522  -14.8087   23.5992 H   0  0  0  0  0  0  0  0  0  0  0  0
  1 34  1  0  0  0  0
  2  6  1  0  0  0  0
  2  7  1  0  0  0  0
  3 25  1  0  0  0  0
  3 27  1  0  0  0  0
  4 14  1  0  0  0  0
  5 26  1  0  0  0  0
  6 26  2  0  0  0  0
  7 30  2  0  0  0  0
  8 25  2  0  0  0  0
  8 29  1  0  0  0  0
  9 28  2  0  0  0  0
  9 31  1  0  0  0  0
 10 15  1  0  0  0  0
 10 28  1  0  0  0  0
 10 32  1  0  0  0  0
 11 15  1  0  0  0  0
 12 34  1  0  0  0  0
 13 34  1  0  0  0  0
 14 19  1  0  0  0  0
 16 17  2  0  0  0  0
 16 18  1  0  0  0  0
 17 20  1  0  0  0  0
 18 21  2  0  0  0  0
 19 27  1  0  0  0  0
 20 33  2  0  0  0  0
 21 33  1  0  0  0  0
 22 24  3  0  0  0  0
 22 29  1  0  0  0  0
 23 25  1  0  0  0  0
 23 32  2  0  0  0  0
 24 34  1  0  0  0  0
 26 30  1  0  0  0  0
 27 33  1  0  0  0  0
 28 30  1  0  0  0  0
 29 31  2  0  0  0  0
 31 32  1  0  0  0  0
  1 35  1  0  0  0  0
  4 36  1  0  0  0  0
  4 37  1  0  0  0  0
  5 38  1  0  0  0  0
  5 39  1  0  0  0  0
 11 40  1  0  0  0  0
 11 41  1  0  0  0  0
 11 42  1  0  0  0  0
 12 43  1  0  0  0  0
 12 44  1  0  0  0  0
 12 45  1  0  0  0  0
 13 46  1  0  0  0  0
 13 47  1  0  0  0  0
 13 48  1  0  0  0  0
 14 49  1  0  0  0  0
 14 50  1  0  0  0  0
 15 51  1  0  0  0  0
 15 52  1  0  0  0  0
 16 53  1  0  0  0  0
 17 54  1  0  0  0  0
 18 55  1  0  0  0  0
 19 56  1  0  0  0  0
 19 57  1  0  0  0  0
 20 58  1  0  0  0  0
 21 59  1  0  0  0  0
 23 60  1  0  0  0  0
 27 61  1  0  0  0  0
  4 62  1  0  0  0  0
M  CHG  1   4   1
M  END
$$$$
3E8E_G98_B_351
prProtoss 05262315163D 1   1.00000     0.00000     0
Protoss beta proteinsplus
 62 65  0  0  0  0            999 V2000
  -17.2790   38.7820   37.0250 O   0  0  0  0  0  0  0  0  0  0  0  0
  -27.7130   40.5770   35.6510 O   0  0  0  0  0  0  0  0  0  0  0  0
  -21.6440   33.6630   36.3430 O   0  0  0  0  0  0  0  0  0  0  0  0
  -21.6740   32.5730   33.8770 N   0  3  0  0  0  0  0  0  0  0  0  0
  -24.4420   41.7030   36.0350 N   0  0  0  0  0  0  0  0  0  0  0  0
  -26.7800   41.6630   35.7480 N   0  0  0  0  0  0  0  0  0  0  0  0
  -27.0990   39.2920   35.7550 N   0  0  0  0  0  0  0  0  0  0  0  0
  -21.2130   35.9220   36.7180 N   0  0  0  0  0  0  0  0  0  0  0  0
  -23.4880   38.8250   36.4150 N   0  0  0  0  0  0  0  0  0  0  0  0
  -24.9760   37.2370   35.8410 N   0  0  0  0  0  0  0  0  0  0  0  0
  -26.7010   35.5930   36.4970 C   0  0  0  0  0  0  0  0  0  0  0  0
  -18.2590   39.8730   38.9240 C   0  0  0  0  0  0  0  0  0  0  0  0
  -18.5440   40.7720   36.5770 C   0  0  0  0  0  0  0  0  0  0  0  0
  -21.6660   31.4110   34.7660 C   0  0  0  0  0  0  0  0  0  0  0  0
  -26.1880   36.5140   35.4120 C   0  0  0  0  0  0  0  0  0  0  0  0
  -20.7250   31.1070   40.5550 C   0  0  0  0  0  0  0  0  0  0  0  0
  -20.1130   30.8250   39.3340 C   0  0  0  0  0  0  0  0  0  0  0  0
  -21.8860   31.8810   40.5830 C   0  0  0  0  0  0  0  0  0  0  0  0
  -22.6970   31.5100   35.8980 C   0  0  0  0  0  0  0  0  0  0  0  0
  -20.6570   31.3180   38.1480 C   0  0  0  0  0  0  0  0  0  0  0  0
  -22.4330   32.3670   39.4000 C   0  0  0  0  0  0  0  0  0  0  0  0
  -20.6040   38.0240   37.1010 C   0  0  0  0  0  0  0  0  0  0  0  0
  -23.4070   35.3120   36.0440 C   0  0  0  0  0  0  0  0  0  0  0  0
  -19.6480   38.7210   37.2600 C   0  0  0  0  0  0  0  0  0  0  0  0
  -22.0880   34.9650   36.3650 C   0  0  0  0  0  0  0  0  0  0  0  0
  -25.6150   41.0020   35.9020 C   0  0  0  0  0  0  0  0  0  0  0  0
  -22.4410   32.6250   36.9230 C   0  0  1  0  0  0  0  0  0  0  0  0
  -24.7490   38.5460   36.0400 C   0  0  0  0  0  0  0  0  0  0  0  0
  -21.5500   37.2250   36.7580 C   0  0  0  0  0  0  0  0  0  0  0  0
  -25.7920   39.6120   35.8900 C   0  0  0  0  0  0  0  0  0  0  0  0
  -22.8610   37.6240   36.4510 C   0  0  0  0  0  0  0  0  0  0  0  0
  -23.7980   36.6500   36.0900 C   0  0  0  0  0  0  0  0  0  0  0  0
  -21.8240   32.0930   38.1740 C   0  0  0  0  0  0  0  0  0  0  0  0
  -18.4290   39.5240   37.4450 C   0  0  0  0  0  0  0  0  0  0  0  0
  -17.2048   37.9461   37.5689 H   0  0  0  0  0  0  0  0  0  0  0  0
  -20.7750   33.0106   33.8924 H   0  0  0  0  0  0  0  0  0  0  0  0
  -21.8854   32.2783   32.9451 H   0  0  0  0  0  0  0  0  0  0  0  0
  -23.5774   41.2138   36.1493 H   0  0  0  0  0  0  0  0  0  0  0  0
  -24.4523   42.7028   36.0176 H   0  0  0  0  0  0  0  0  0  0  0  0
  -27.5206   35.1205   36.1731 H   0  0  0  0  0  0  0  0  0  0  0  0
  -25.9965   34.9207   36.7242 H   0  0  0  0  0  0  0  0  0  0  0  0
  -26.9250   36.1291   37.3109 H   0  0  0  0  0  0  0  0  0  0  0  0
  -19.0538   40.3927   39.2373 H   0  0  0  0  0  0  0  0  0  0  0  0
  -18.1794   39.0313   39.4581 H   0  0  0  0  0  0  0  0  0  0  0  0
  -17.4326   40.4232   39.0438 H   0  0  0  0  0  0  0  0  0  0  0  0
  -19.3441   41.3015   36.8589 H   0  0  0  0  0  0  0  0  0  0  0  0
  -17.7207   41.3295   36.6840 H   0  0  0  0  0  0  0  0  0  0  0  0
  -18.6426   40.5036   35.6187 H   0  0  0  0  0  0  0  0  0  0  0  0
  -20.7557   31.3271   35.1714 H   0  0  0  0  0  0  0  0  0  0  0  0
  -21.8661   30.5947   34.2241 H   0  0  0  0  0  0  0  0  0  0  0  0
  -25.9716   35.9707   34.6008 H   0  0  0  0  0  0  0  0  0  0  0  0
  -26.9002   37.1791   35.1875 H   0  0  0  0  0  0  0  0  0  0  0  0
  -20.3340   30.7564   41.4060 H   0  0  0  0  0  0  0  0  0  0  0  0
  -19.2826   30.2683   39.3087 H   0  0  0  0  0  0  0  0  0  0  0  0
  -22.3263   32.0870   41.4569 H   0  0  0  0  0  0  0  0  0  0  0  0
  -22.7046   30.6373   36.3862 H   0  0  0  0  0  0  0  0  0  0  0  0
  -23.5941   31.6692   35.4858 H   0  0  0  0  0  0  0  0  0  0  0  0
  -20.2121   31.1174   37.2752 H   0  0  0  0  0  0  0  0  0  0  0  0
  -23.2681   32.9164   39.4279 H   0  0  0  0  0  0  0  0  0  0  0  0
  -24.0641   34.6046   35.7835 H   0  0  0  0  0  0  0  0  0  0  0  0
  -23.3259   33.0222   37.1664 H   0  0  0  0  0  0  0  0  0  0  0  0
  -22.3671   33.2243   34.1859 H   0  0  0  0  0  0  0  0  0  0  0  0
  1 34  1  0  0  0  0
  2  6  1  0  0  0  0
  2  7  1  0  0  0  0
  3 25  1  0  0  0  0
  3 27  1  0  0  0  0
  4 14  1  0  0  0  0
  5 26  1  0  0  0  0
  6 26  2  0  0  0  0
  7 30  2  0  0  0  0
  8 25  2  0  0  0  0
  8 29  1  0  0  0  0
  9 28  2  0  0  0  0
  9 31  1  0  0  0  0
 10 15  1  0  0  0  0
 10 28  1  0  0  0  0
 10 32  1  0  0  0  0
 11 15  1  0  0  0  0
 12 34  1  0  0  0  0
 13 34  1  0  0  0  0
 14 19  1  0  0  0  0
 16 17  2  0  0  0  0
 16 18  1  0  0  0  0
 17 20  1  0  0  0  0
 18 21  2  0  0  0  0
 19 27  1  0  0  0  0
 20 33  2  0  0  0  0
 21 33  1  0  0  0  0
 22 24  3  0  0  0  0
 22 29  1  0  0  0  0
 23 25  1  0  0  0  0
 23 32  2  0  0  0  0
 24 34  1  0  0  0  0
 26 30  1  0  0  0  0
 27 33  1  0  0  0  0
 28 30  1  0  0  0  0
 29 31  2  0  0  0  0
 31 32  1  0  0  0  0
  1 35  1  0  0  0  0
  4 36  1  0  0  0  0
  4 37  1  0  0  0  0
  5 38  1  0  0  0  0
  5 39  1  0  0  0  0
 11 40  1  0  0  0  0
 11 41  1  0  0  0  0
 11 42  1  0  0  0  0
 12 43  1  0  0  0  0
 12 44  1  0  0  0  0
 12 45  1  0  0  0  0
 13 46  1  0  0  0  0
 13 47  1  0  0  0  0
 13 48  1  0  0  0  0
 14 49  1  0  0  0  0
 14 50  1  0  0  0  0
 15 51  1  0  0  0  0
 15 52  1  0  0  0  0
 16 53  1  0  0  0  0
 17 54  1  0  0  0  0
 18 55  1  0  0  0  0
 19 56  1  0  0  0  0
 19 57  1  0  0  0  0
 20 58  1  0  0  0  0
 21 59  1  0  0  0  0
 23 60  1  0  0  0  0
 27 61  1  0  0  0  0
  4 62  1  0  0  0  0
M  CHG  1   4   1
M  END
$$$$
3E8E_G98_E_351
prProtoss 05262315163D 1   1.00000     0.00000     0
Protoss beta proteinsplus
 62 65  0  0  0  0            999 V2000
  -32.5610  -11.9270   14.0070 O   0  0  0  0  0  0  0  0  0  0  0  0
  -43.0330  -11.9280   12.8080 O   0  0  0  0  0  0  0  0  0  0  0  0
  -35.6500  -17.2510   10.9960 O   0  0  0  0  0  0  0  0  0  0  0  0
  -34.5220  -18.2000    8.9800 N   0  3  0  0  0  0  0  0  0  0  0  0
  -40.0670  -10.6430   14.0180 N   0  0  0  0  0  0  0  0  0  0  0  0
  -42.3310  -10.9000   13.5040 N   0  0  0  0  0  0  0  0  0  0  0  0
  -42.1880  -13.0000   12.3680 N   0  0  0  0  0  0  0  0  0  0  0  0
  -35.6550  -15.2750   12.3020 N   0  0  0  0  0  0  0  0  0  0  0  0
  -38.5230  -13.0430   13.0750 N   0  0  0  0  0  0  0  0  0  0  0  0
  -39.6530  -14.5070   11.8010 N   0  0  0  0  0  0  0  0  0  0  0  0
  -41.0710  -16.4880   11.8180 C   0  0  0  0  0  0  0  0  0  0  0  0
  -33.6710  -11.9520   16.1520 C   0  0  0  0  0  0  0  0  0  0  0  0
  -34.2290  -10.2450   14.4140 C   0  0  0  0  0  0  0  0  0  0  0  0
  -35.1250  -19.5110    9.1240 C   0  0  0  0  0  0  0  0  0  0  0  0
  -40.6900  -15.2360   11.0580 C   0  0  0  0  0  0  0  0  0  0  0  0
  -33.8300  -20.7010   14.1520 C   0  0  0  0  0  0  0  0  0  0  0  0
  -33.2040  -20.1290   13.0480 C   0  0  0  0  0  0  0  0  0  0  0  0
  -35.2080  -20.5800   14.3010 C   0  0  0  0  0  0  0  0  0  0  0  0
  -36.3650  -19.4090   10.0020 C   0  0  0  0  0  0  0  0  0  0  0  0
  -33.9510  -19.4260   12.1070 C   0  0  0  0  0  0  0  0  0  0  0  0
  -35.9620  -19.8920   13.3590 C   0  0  0  0  0  0  0  0  0  0  0  0
  -35.5360  -13.4160   13.5660 C   0  0  0  0  0  0  0  0  0  0  0  0
  -37.6870  -15.9820   11.3140 C   0  0  0  0  0  0  0  0  0  0  0  0
  -34.8270  -12.6110   14.0810 C   0  0  0  0  0  0  0  0  0  0  0  0
  -36.3160  -16.1610   11.5360 C   0  0  0  0  0  0  0  0  0  0  0  0
  -41.0720  -11.3660   13.4520 C   0  0  0  0  0  0  0  0  0  0  0  0
  -36.1760  -18.5680   11.2720 C   0  0  1  0  0  0  0  0  0  0  0  0
  -39.7140  -13.3860   12.5340 C   0  0  0  0  0  0  0  0  0  0  0  0
  -36.2700  -14.2050   12.8600 C   0  0  0  0  0  0  0  0  0  0  0  0
  -40.9700  -12.5820   12.7730 C   0  0  0  0  0  0  0  0  0  0  0  0
  -37.6500  -13.9830   12.6540 C   0  0  0  0  0  0  0  0  0  0  0  0
  -38.3640  -14.8910   11.8710 C   0  0  0  0  0  0  0  0  0  0  0  0
  -35.3370  -19.3110   12.2550 C   0  0  0  0  0  0  0  0  0  0  0  0
  -33.8230  -11.6990   14.6520 C   0  0  0  0  0  0  0  0  0  0  0  0
  -32.2738  -12.8724   14.1613 H   0  0  0  0  0  0  0  0  0  0  0  0
  -33.5344  -18.2989    8.8583 H   0  0  0  0  0  0  0  0  0  0  0  0
  -34.9117  -17.7397    8.1824 H   0  0  0  0  0  0  0  0  0  0  0  0
  -39.1268  -10.9820   13.9842 H   0  0  0  0  0  0  0  0  0  0  0  0
  -40.2689   -9.7729   14.4676 H   0  0  0  0  0  0  0  0  0  0  0  0
  -41.7768  -16.9835   11.3117 H   0  0  0  0  0  0  0  0  0  0  0  0
  -40.2657  -17.0712   11.9247 H   0  0  0  0  0  0  0  0  0  0  0  0
  -41.4223  -16.2366   12.7199 H   0  0  0  0  0  0  0  0  0  0  0  0
  -34.5474  -11.7947   16.6071 H   0  0  0  0  0  0  0  0  0  0  0  0
  -33.3820  -12.8973   16.3030 H   0  0  0  0  0  0  0  0  0  0  0  0
  -32.9842  -11.3295   16.5271 H   0  0  0  0  0  0  0  0  0  0  0  0
  -35.1077  -10.0675   14.8571 H   0  0  0  0  0  0  0  0  0  0  0  0
  -33.5335   -9.6376   14.7978 H   0  0  0  0  0  0  0  0  0  0  0  0
  -34.3115  -10.0785   13.4314 H   0  0  0  0  0  0  0  0  0  0  0  0
  -34.4680  -20.1349    9.5471 H   0  0  0  0  0  0  0  0  0  0  0  0
  -35.3830  -19.8595    8.2229 H   0  0  0  0  0  0  0  0  0  0  0  0
  -40.3389  -15.4877   10.1561 H   0  0  0  0  0  0  0  0  0  0  0  0
  -41.4954  -14.6530   10.9513 H   0  0  0  0  0  0  0  0  0  0  0  0
  -33.2922  -21.1962   14.8343 H   0  0  0  0  0  0  0  0  0  0  0  0
  -32.2154  -20.2233   12.9307 H   0  0  0  0  0  0  0  0  0  0  0  0
  -35.6593  -20.9917   15.0927 H   0  0  0  0  0  0  0  0  0  0  0  0
  -36.6311  -20.3332   10.2758 H   0  0  0  0  0  0  0  0  0  0  0  0
  -37.0983  -18.9975    9.4608 H   0  0  0  0  0  0  0  0  0  0  0  0
  -33.4958  -19.0024   11.3238 H   0  0  0  0  0  0  0  0  0  0  0  0
  -36.9525  -19.8131   13.4720 H   0  0  0  0  0  0  0  0  0  0  0  0
  -38.1874  -16.6404   10.7518 H   0  0  0  0  0  0  0  0  0  0  0  0
  -37.0788  -18.4465   11.6845 H   0  0  0  0  0  0  0  0  0  0  0  0
  -34.7042  -17.6574    9.8000 H   0  0  0  0  0  0  0  0  0  0  0  0
  1 34  1  0  0  0  0
  2  6  1  0  0  0  0
  2  7  1  0  0  0  0
  3 25  1  0  0  0  0
  3 27  1  0  0  0  0
  4 14  1  0  0  0  0
  5 26  1  0  0  0  0
  6 26  2  0  0  0  0
  7 30  2  0  0  0  0
  8 25  2  0  0  0  0
  8 29  1  0  0  0  0
  9 28  2  0  0  0  0
  9 31  1  0  0  0  0
 10 15  1  0  0  0  0
 10 28  1  0  0  0  0
 10 32  1  0  0  0  0
 11 15  1  0  0  0  0
 12 34  1  0  0  0  0
 13 34  1  0  0  0  0
 14 19  1  0  0  0  0
 16 17  2  0  0  0  0
 16 18  1  0  0  0  0
 17 20  1  0  0  0  0
 18 21  2  0  0  0  0
 19 27  1  0  0  0  0
 20 33  2  0  0  0  0
 21 33  1  0  0  0  0
 22 24  3  0  0  0  0
 22 29  1  0  0  0  0
 23 25  1  0  0  0  0
 23 32  2  0  0  0  0
 24 34  1  0  0  0  0
 26 30  1  0  0  0  0
 27 33  1  0  0  0  0
 28 30  1  0  0  0  0
 29 31  2  0  0  0  0
 31 32  1  0  0  0  0
  1 35  1  0  0  0  0
  4 36  1  0  0  0  0
  4 37  1  0  0  0  0
  5 38  1  0  0  0  0
  5 39  1  0  0  0  0
 11 40  1  0  0  0  0
 11 41  1  0  0  0  0
 11 42  1  0  0  0  0
 12 43  1  0  0  0  0
 12 44  1  0  0  0  0
 12 45  1  0  0  0  0
 13 46  1  0  0  0  0
 13 47  1  0  0  0  0
 13 48  1  0  0  0  0
 14 49  1  0  0  0  0
 14 50  1  0  0  0  0
 15 51  1  0  0  0  0
 15 52  1  0  0  0  0
 16 53  1  0  0  0  0
 17 54  1  0  0  0  0
 18 55  1  0  0  0  0
 19 56  1  0  0  0  0
 19 57  1  0  0  0  0
 20 58  1  0  0  0  0
 21 59  1  0  0  0  0
 23 60  1  0  0  0  0
 27 61  1  0  0  0  0
  4 62  1  0  0  0  0
M  CHG  1   4   1
M  END
$$$$
3E8E_G98_I_351
prProtoss 05262315163D 1   1.00000     0.00000     0
Protoss beta proteinsplus
 62 65  0  0  0  0            999 V2000
   19.2880   35.9050   44.7120 O   0  0  0  0  0  0  0  0  0  0  0  0
   29.7220   35.6560   45.9280 O   0  0  0  0  0  0  0  0  0  0  0  0
   22.2830   30.7200   48.1990 O   0  0  0  0  0  0  0  0  0  0  0  0
   21.0500   29.5750   50.2610 N   0  3  0  0  0  0  0  0  0  0  0  0
   26.7300   36.9500   44.7030 N   0  0  0  0  0  0  0  0  0  0  0  0
   29.0240   36.6660   45.1800 N   0  0  0  0  0  0  0  0  0  0  0  0
   28.8540   34.6490   46.4680 N   0  0  0  0  0  0  0  0  0  0  0  0
   22.2800   32.6070   46.7490 N   0  0  0  0  0  0  0  0  0  0  0  0
   25.1920   34.6990   45.8090 N   0  0  0  0  0  0  0  0  0  0  0  0
   26.2950   33.2710   47.1590 N   0  0  0  0  0  0  0  0  0  0  0  0
   27.5780   31.1770   47.3910 C   0  0  0  0  0  0  0  0  0  0  0  0
   20.3800   35.4750   42.6120 C   0  0  0  0  0  0  0  0  0  0  0  0
   21.0550   37.4100   44.0980 C   0  0  0  0  0  0  0  0  0  0  0  0
   21.8290   28.3590   50.1330 C   0  0  0  0  0  0  0  0  0  0  0  0
   27.3150   32.5610   47.9470 C   0  0  0  0  0  0  0  0  0  0  0  0
   20.0860   27.0730   45.5060 C   0  0  0  0  0  0  0  0  0  0  0  0
   19.5640   28.0480   46.3580 C   0  0  0  0  0  0  0  0  0  0  0  0
   21.4600   26.8660   45.4610 C   0  0  0  0  0  0  0  0  0  0  0  0
   23.0530   28.6370   49.2710 C   0  0  0  0  0  0  0  0  0  0  0  0
   20.4150   28.8070   47.1660 C   0  0  0  0  0  0  0  0  0  0  0  0
   22.3140   27.6180   46.2590 C   0  0  0  0  0  0  0  0  0  0  0  0
   22.2600   34.4250   45.3660 C   0  0  0  0  0  0  0  0  0  0  0  0
   24.3090   31.8990   47.7640 C   0  0  0  0  0  0  0  0  0  0  0  0
   21.5150   35.0890   44.7260 C   0  0  0  0  0  0  0  0  0  0  0  0
   22.9370   31.7510   47.5680 C   0  0  0  0  0  0  0  0  0  0  0  0
   27.7500   36.2490   45.2890 C   0  0  0  0  0  0  0  0  0  0  0  0
   22.7460   29.3740   47.9560 C   0  0  1  0  0  0  0  0  0  0  0  0
   26.3720   34.3430   46.3560 C   0  0  0  0  0  0  0  0  0  0  0  0
   22.9320   33.6190   46.1120 C   0  0  0  0  0  0  0  0  0  0  0  0
   27.6410   35.0850   46.0540 C   0  0  0  0  0  0  0  0  0  0  0  0
   24.3040   33.8040   46.2950 C   0  0  0  0  0  0  0  0  0  0  0  0
   25.0000   32.9270   47.1280 C   0  0  0  0  0  0  0  0  0  0  0  0
   21.7960   28.5900   47.1180 C   0  0  0  0  0  0  0  0  0  0  0  0
   20.5530   35.9660   44.0450 C   0  0  0  0  0  0  0  0  0  0  0  0
   18.9583   34.9609   44.7157 H   0  0  0  0  0  0  0  0  0  0  0  0
   20.0836   29.3419   50.3693 H   0  0  0  0  0  0  0  0  0  0  0  0
   21.3610   30.0874   51.0615 H   0  0  0  0  0  0  0  0  0  0  0  0
   25.7871   36.6290   44.7918 H   0  0  0  0  0  0  0  0  0  0  0  0
   26.9280   37.7830   44.1863 H   0  0  0  0  0  0  0  0  0  0  0  0
   28.2736   30.7213   47.9464 H   0  0  0  0  0  0  0  0  0  0  0  0
   26.7326   30.6433   47.4117 H   0  0  0  0  0  0  0  0  0  0  0  0
   27.9014   31.2526   46.4478 H   0  0  0  0  0  0  0  0  0  0  0  0
   21.2595   35.5141   42.1378 H   0  0  0  0  0  0  0  0  0  0  0  0
   20.0476   34.5319   42.6206 H   0  0  0  0  0  0  0  0  0  0  0  0
   19.7194   36.0570   42.1377 H   0  0  0  0  0  0  0  0  0  0  0  0
   21.9397   37.4725   43.6360 H   0  0  0  0  0  0  0  0  0  0  0  0
   20.3972   38.0086   43.6409 H   0  0  0  0  0  0  0  0  0  0  0  0
   21.1563   37.6929   45.0518 H   0  0  0  0  0  0  0  0  0  0  0  0
   21.2717   27.6485   49.7034 H   0  0  0  0  0  0  0  0  0  0  0  0
   22.1206   28.0517   51.0388 H   0  0  0  0  0  0  0  0  0  0  0  0
   26.9967   32.4772   48.8913 H   0  0  0  0  0  0  0  0  0  0  0  0
   28.1655   33.0866   47.9273 H   0  0  0  0  0  0  0  0  0  0  0  0
   19.4757   26.5272   44.9319 H   0  0  0  0  0  0  0  0  0  0  0  0
   18.5768   28.2040   46.3903 H   0  0  0  0  0  0  0  0  0  0  0  0
   21.8369   26.1703   44.8495 H   0  0  0  0  0  0  0  0  0  0  0  0
   23.4836   27.7627   49.0470 H   0  0  0  0  0  0  0  0  0  0  0  0
   23.6899   29.1959   49.8021 H   0  0  0  0  0  0  0  0  0  0  0  0
   20.0377   29.5032   47.7767 H   0  0  0  0  0  0  0  0  0  0  0  0
   23.3011   27.4629   46.2181 H   0  0  0  0  0  0  0  0  0  0  0  0
   24.7984   31.2652   48.3630 H   0  0  0  0  0  0  0  0  0  0  0  0
   23.6040   29.4426   47.4469 H   0  0  0  0  0  0  0  0  0  0  0  0
   21.1681   30.1344   49.4406 H   0  0  0  0  0  0  0  0  0  0  0  0
  1 34  1  0  0  0  0
  2  6  1  0  0  0  0
  2  7  1  0  0  0  0
  3 25  1  0  0  0  0
  3 27  1  0  0  0  0
  4 14  1  0  0  0  0
  5 26  1  0  0  0  0
  6 26  2  0  0  0  0
  7 30  2  0  0  0  0
  8 25  2  0  0  0  0
  8 29  1  0  0  0  0
  9 28  2  0  0  0  0
  9 31  1  0  0  0  0
 10 15  1  0  0  0  0
 10 28  1  0  0  0  0
 10 32  1  0  0  0  0
 11 15  1  0  0  0  0
 12 34  1  0  0  0  0
 13 34  1  0  0  0  0
 14 19  1  0  0  0  0
 16 17  2  0  0  0  0
 16 18  1  0  0  0  0
 17 20  1  0  0  0  0
 18 21  2  0  0  0  0
 19 27  1  0  0  0  0
 20 33  2  0  0  0  0
 21 33  1  0  0  0  0
 22 24  3  0  0  0  0
 22 29  1  0  0  0  0
 23 25  1  0  0  0  0
 23 32  2  0  0  0  0
 24 34  1  0  0  0  0
 26 30  1  0  0  0  0
 27 33  1  0  0  0  0
 28 30  1  0  0  0  0
 29 31  2  0  0  0  0
 31 32  1  0  0  0  0
  1 35  1  0  0  0  0
  4 36  1  0  0  0  0
  4 37  1  0  0  0  0
  5 38  1  0  0  0  0
  5 39  1  0  0  0  0
 11 40  1  0  0  0  0
 11 41  1  0  0  0  0
 11 42  1  0  0  0  0
 12 43  1  0  0  0  0
 12 44  1  0  0  0  0
 12 45  1  0  0  0  0
 13 46  1  0  0  0  0
 13 47  1  0  0  0  0
 13 48  1  0  0  0  0
 14 49  1  0  0  0  0
 14 50  1  0  0  0  0
 15 51  1  0  0  0  0
 15 52  1  0  0  0  0
 16 53  1  0  0  0  0
 17 54  1  0  0  0  0
 18 55  1  0  0  0  0
 19 56  1  0  0  0  0
 19 57  1  0  0  0  0
 20 58  1  0  0  0  0
 21 59  1  0  0  0  0
 23 60  1  0  0  0  0
 27 61  1  0  0  0  0
  4 62  1  0  0  0  0
M  CHG  1   4   1
M  END
$$$$
3E8E_G98_L_351
prProtoss 05262315163D 1   1.00000     0.00000     0
Protoss beta proteinsplus
 62 65  0  0  0  0            999 V2000
  -46.0720   -7.5360   72.5520 O   0  0  0  0  0  0  0  0  0  0  0  0
  -56.3600   -8.1160   71.3900 O   0  0  0  0  0  0  0  0  0  0  0  0
  -48.9700  -13.2510   69.4880 O   0  0  0  0  0  0  0  0  0  0  0  0
  -47.5580  -15.3040   67.6660 N   0  3  0  0  0  0  0  0  0  0  0  0
  -53.3680   -6.5120   72.1270 N   0  0  0  0  0  0  0  0  0  0  0  0
  -55.6700   -6.9530   71.8800 N   0  0  0  0  0  0  0  0  0  0  0  0
  -55.4870   -9.1790   70.9890 N   0  0  0  0  0  0  0  0  0  0  0  0
  -48.9250  -11.2220   70.7320 N   0  0  0  0  0  0  0  0  0  0  0  0
  -51.8180   -9.0210   71.4840 N   0  0  0  0  0  0  0  0  0  0  0  0
  -52.9530  -10.5550   70.3010 N   0  0  0  0  0  0  0  0  0  0  0  0
  -54.7180  -12.2330   70.5690 C   0  0  0  0  0  0  0  0  0  0  0  0
  -47.2870   -7.8370   74.6060 C   0  0  0  0  0  0  0  0  0  0  0  0
  -47.9400   -6.0580   72.9400 C   0  0  0  0  0  0  0  0  0  0  0  0
  -48.5260  -16.2360   68.2060 C   0  0  0  0  0  0  0  0  0  0  0  0
  -54.0160  -11.2960   69.6110 C   0  0  0  0  0  0  0  0  0  0  0  0
  -46.9200  -16.1600   73.0040 C   0  0  0  0  0  0  0  0  0  0  0  0
  -46.3460  -15.6410   71.8470 C   0  0  0  0  0  0  0  0  0  0  0  0
  -48.3050  -16.1420   73.1540 C   0  0  0  0  0  0  0  0  0  0  0  0
  -49.7230  -15.4740   68.7730 C   0  0  0  0  0  0  0  0  0  0  0  0
  -47.1600  -15.1030   70.8490 C   0  0  0  0  0  0  0  0  0  0  0  0
  -49.1210  -15.6120   72.1580 C   0  0  0  0  0  0  0  0  0  0  0  0
  -48.8840   -9.2900   71.9310 C   0  0  0  0  0  0  0  0  0  0  0  0
  -50.9780  -12.0060   69.8160 C   0  0  0  0  0  0  0  0  0  0  0  0
  -48.2760   -8.4190   72.4520 C   0  0  0  0  0  0  0  0  0  0  0  0
  -49.6020  -12.1460   70.0100 C   0  0  0  0  0  0  0  0  0  0  0  0
  -54.3890   -7.3520   71.7670 C   0  0  0  0  0  0  0  0  0  0  0  0
  -49.4510  -14.5250   69.9500 C   0  0  1  0  0  0  0  0  0  0  0  0
  -53.0060   -9.4040   70.9810 C   0  0  0  0  0  0  0  0  0  0  0  0
  -49.5660  -10.1490   71.2630 C   0  0  0  0  0  0  0  0  0  0  0  0
  -54.2750   -8.6340   71.2230 C   0  0  0  0  0  0  0  0  0  0  0  0
  -50.9420   -9.9700   71.0780 C   0  0  0  0  0  0  0  0  0  0  0  0
  -51.6590  -10.9160   70.3450 C   0  0  0  0  0  0  0  0  0  0  0  0
  -48.5520  -15.0940   70.9930 C   0  0  0  0  0  0  0  0  0  0  0  0
  -47.3820   -7.4670   73.1300 C   0  0  0  0  0  0  0  0  0  0  0  0
  -45.5320   -8.2276   73.0316 H   0  0  0  0  0  0  0  0  0  0  0  0
  -46.6398  -15.6911   67.7498 H   0  0  0  0  0  0  0  0  0  0  0  0
  -47.7612  -15.1337   66.7018 H   0  0  0  0  0  0  0  0  0  0  0  0
  -52.4185   -6.8136   72.0410 H   0  0  0  0  0  0  0  0  0  0  0  0
  -53.5724   -5.5974   72.4758 H   0  0  0  0  0  0  0  0  0  0  0  0
  -55.4378  -12.7288   70.0830 H   0  0  0  0  0  0  0  0  0  0  0  0
  -54.0576  -12.8848   70.9418 H   0  0  0  0  0  0  0  0  0  0  0  0
  -55.1227  -11.7048   71.3154 H   0  0  0  0  0  0  0  0  0  0  0  0
  -48.1961   -7.7922   75.0201 H   0  0  0  0  0  0  0  0  0  0  0  0
  -46.9258   -8.7653   74.6944 H   0  0  0  0  0  0  0  0  0  0  0  0
  -46.6767   -7.1962   75.0717 H   0  0  0  0  0  0  0  0  0  0  0  0
  -48.8542   -6.0046   73.3417 H   0  0  0  0  0  0  0  0  0  0  0  0
  -47.3389   -5.3979   73.3904 H   0  0  0  0  0  0  0  0  0  0  0  0
  -47.9923   -5.8490   71.9635 H   0  0  0  0  0  0  0  0  0  0  0  0
  -48.0993  -16.7722   68.9343 H   0  0  0  0  0  0  0  0  0  0  0  0
  -48.8371  -16.8487   67.4795 H   0  0  0  0  0  0  0  0  0  0  0  0
  -53.6152  -11.8279   68.8651 H   0  0  0  0  0  0  0  0  0  0  0  0
  -54.6804  -10.6479   69.2387 H   0  0  0  0  0  0  0  0  0  0  0  0
  -46.3414  -16.5437   73.7237 H   0  0  0  0  0  0  0  0  0  0  0  0
  -45.3528  -15.6536   71.7311 H   0  0  0  0  0  0  0  0  0  0  0  0
  -48.7174  -16.5136   73.9857 H   0  0  0  0  0  0  0  0  0  0  0  0
  -50.3935  -16.1499   69.0790 H   0  0  0  0  0  0  0  0  0  0  0  0
  -50.1134  -14.9297   68.0305 H   0  0  0  0  0  0  0  0  0  0  0  0
  -46.7448  -14.7205   70.0236 H   0  0  0  0  0  0  0  0  0  0  0  0
  -50.1138  -15.6024   72.2770 H   0  0  0  0  0  0  0  0  0  0  0  0
  -51.4775  -12.6959   69.2920 H   0  0  0  0  0  0  0  0  0  0  0  0
  -50.3321  -14.3560   70.3918 H   0  0  0  0  0  0  0  0  0  0  0  0
  -47.6046  -14.4436   68.1735 H   0  0  0  0  0  0  0  0  0  0  0  0
  1 34  1  0  0  0  0
  2  6  1  0  0  0  0
  2  7  1  0  0  0  0
  3 25  1  0  0  0  0
  3 27  1  0  0  0  0
  4 14  1  0  0  0  0
  5 26  1  0  0  0  0
  6 26  2  0  0  0  0
  7 30  2  0  0  0  0
  8 25  2  0  0  0  0
  8 29  1  0  0  0  0
  9 28  2  0  0  0  0
  9 31  1  0  0  0  0
 10 15  1  0  0  0  0
 10 28  1  0  0  0  0
 10 32  1  0  0  0  0
 11 15  1  0  0  0  0
 12 34  1  0  0  0  0
 13 34  1  0  0  0  0
 14 19  1  0  0  0  0
 16 17  2  0  0  0  0
 16 18  1  0  0  0  0
 17 20  1  0  0  0  0
 18 21  2  0  0  0  0
 19 27  1  0  0  0  0
 20 33  2  0  0  0  0
 21 33  1  0  0  0  0
 22 24  3  0  0  0  0
 22 29  1  0  0  0  0
 23 25  1  0  0  0  0
 23 32  2  0  0  0  0
 24 34  1  0  0  0  0
 26 30  1  0  0  0  0
 27 33  1  0  0  0  0
 28 30  1  0  0  0  0
 29 31  2  0  0  0  0
 31 32  1  0  0  0  0
  1 35  1  0  0  0  0
  4 36  1  0  0  0  0
  4 37  1  0  0  0  0
  5 38  1  0  0  0  0
  5 39  1  0  0  0  0
 11 40  1  0  0  0  0
 11 41  1  0  0  0  0
 11 42  1  0  0  0  0
 12 43  1  0  0  0  0
 12 44  1  0  0  0  0
 12 45  1  0  0  0  0
 13 46  1  0  0  0  0
 13 47  1  0  0  0  0
 13 48  1  0  0  0  0
 14 49  1  0  0  0  0
 14 50  1  0  0  0  0
 15 51  1  0  0  0  0
 15 52  1  0  0  0  0
 16 53  1  0  0  0  0
 17 54  1  0  0  0  0
 18 55  1  0  0  0  0
 19 56  1  0  0  0  0
 19 57  1  0  0  0  0
 20 58  1  0  0  0  0
 21 59  1  0  0  0  0
 23 60  1  0  0  0  0
 27 61  1  0  0  0  0
  4 62  1  0  0  0  0
M  CHG  1   4   1
M  END
$$$$
3E8E_G98_P_351
prProtoss 05262315163D 1   1.00000     0.00000     0
Protoss beta proteinsplus
 62 65  0  0  0  0            999 V2000
   -9.2620   -3.7530   79.6080 O   0  0  0  0  0  0  0  0  0  0  0  0
    0.9720   -1.6320   80.4570 O   0  0  0  0  0  0  0  0  0  0  0  0
   -4.7720   -8.8110   80.9260 O   0  0  0  0  0  0  0  0  0  0  0  0
   -5.1590  -10.3020   82.7890 N   0  3  0  0  0  0  0  0  0  0  0  0
   -2.3600   -0.7830   80.0320 N   0  0  0  0  0  0  0  0  0  0  0  0
   -0.0180   -0.6220   80.2230 N   0  0  0  0  0  0  0  0  0  0  0  0
    0.4430   -2.9600   80.5880 N   0  0  0  0  0  0  0  0  0  0  0  0
   -5.3700   -6.6210   80.2830 N   0  0  0  0  0  0  0  0  0  0  0  0
   -3.1640   -3.6500   80.1340 N   0  0  0  0  0  0  0  0  0  0  0  0
   -1.6070   -5.0930   80.8540 N   0  0  0  0  0  0  0  0  0  0  0  0
    0.4340   -6.2300   80.1580 C   0  0  0  0  0  0  0  0  0  0  0  0
   -8.2670   -2.9810   77.5540 C   0  0  0  0  0  0  0  0  0  0  0  0
   -8.0020   -1.6930   79.7060 C   0  0  0  0  0  0  0  0  0  0  0  0
   -4.2660  -11.3250   82.2750 C   0  0  0  0  0  0  0  0  0  0  0  0
   -0.3530   -5.6920   81.3230 C   0  0  0  0  0  0  0  0  0  0  0  0
   -6.1000  -11.7840   77.0840 C   0  0  0  0  0  0  0  0  0  0  0  0
   -6.5900  -11.8330   78.3860 C   0  0  0  0  0  0  0  0  0  0  0  0
   -4.9320  -11.0820   76.8160 C   0  0  0  0  0  0  0  0  0  0  0  0
   -3.3300  -10.7560   81.2110 C   0  0  0  0  0  0  0  0  0  0  0  0
   -5.9130  -11.1840   79.4200 C   0  0  0  0  0  0  0  0  0  0  0  0
   -4.2500  -10.4380   77.8430 C   0  0  0  0  0  0  0  0  0  0  0  0
   -5.9590   -4.5060   79.6580 C   0  0  0  0  0  0  0  0  0  0  0  0
   -3.1260   -7.0740   80.9480 C   0  0  0  0  0  0  0  0  0  0  0  0
   -6.9070   -3.8510   79.3610 C   0  0  0  0  0  0  0  0  0  0  0  0
   -4.4400   -7.4950   80.7270 C   0  0  0  0  0  0  0  0  0  0  0  0
   -1.1390   -1.3690   80.2200 C   0  0  0  0  0  0  0  0  0  0  0  0
   -3.9750   -9.7770   80.2250 C   0  0  1  0  0  0  0  0  0  0  0  0
   -1.8860   -3.8320   80.4990 C   0  0  0  0  0  0  0  0  0  0  0  0
   -5.0490   -5.3220   80.0560 C   0  0  0  0  0  0  0  0  0  0  0  0
   -0.8820   -2.7220   80.4610 C   0  0  0  0  0  0  0  0  0  0  0  0
   -3.7480   -4.8600   80.2790 C   0  0  0  0  0  0  0  0  0  0  0  0
   -2.7730   -5.7480   80.7290 C   0  0  0  0  0  0  0  0  0  0  0  0
   -4.7350  -10.4840   79.1540 C   0  0  0  0  0  0  0  0  0  0  0  0
   -8.1180   -3.0720   79.0700 C   0  0  0  0  0  0  0  0  0  0  0  0
   -9.3171   -4.6719   79.2174 H   0  0  0  0  0  0  0  0  0  0  0  0
   -6.0211  -10.7231   83.0710 H   0  0  0  0  0  0  0  0  0  0  0  0
   -4.7343   -9.8533   83.5753 H   0  0  0  0  0  0  0  0  0  0  0  0
   -3.1885   -1.3430   80.0308 H   0  0  0  0  0  0  0  0  0  0  0  0
   -2.4245    0.2056   79.8957 H   0  0  0  0  0  0  0  0  0  0  0  0
    1.2858   -6.6354   80.4899 H   0  0  0  0  0  0  0  0  0  0  0  0
   -0.1049   -6.9272   79.6852 H   0  0  0  0  0  0  0  0  0  0  0  0
    0.6439   -5.4849   79.5250 H   0  0  0  0  0  0  0  0  0  0  0  0
   -7.4746   -2.5079   77.1690 H   0  0  0  0  0  0  0  0  0  0  0  0
   -8.3249   -3.9020   77.1689 H   0  0  0  0  0  0  0  0  0  0  0  0
   -9.0992   -2.4734   77.3307 H   0  0  0  0  0  0  0  0  0  0  0  0
   -7.2052   -1.2190   79.3312 H   0  0  0  0  0  0  0  0  0  0  0  0
   -8.8276   -1.1644   79.5087 H   0  0  0  0  0  0  0  0  0  0  0  0
   -7.8969   -1.7901   80.6957 H   0  0  0  0  0  0  0  0  0  0  0  0
   -4.8103  -12.0604   81.8713 H   0  0  0  0  0  0  0  0  0  0  0  0
   -3.7196  -11.6899   83.0288 H   0  0  0  0  0  0  0  0  0  0  0  0
   -0.5598   -6.4389   81.9550 H   0  0  0  0  0  0  0  0  0  0  0  0
    0.1890   -4.9966   81.7948 H   0  0  0  0  0  0  0  0  0  0  0  0
   -6.5862  -12.2516   76.3458 H   0  0  0  0  0  0  0  0  0  0  0  0
   -7.4318  -12.3360   78.5817 H   0  0  0  0  0  0  0  0  0  0  0  0
   -4.5800  -11.0394   75.8810 H   0  0  0  0  0  0  0  0  0  0  0  0
   -2.9573  -11.5215   80.6866 H   0  0  0  0  0  0  0  0  0  0  0  0
   -2.5859  -10.2783   81.6781 H   0  0  0  0  0  0  0  0  0  0  0  0
   -6.2724  -11.2206   80.3525 H   0  0  0  0  0  0  0  0  0  0  0  0
   -3.4071   -9.9387   77.6426 H   0  0  0  0  0  0  0  0  0  0  0  0
   -2.4387   -7.7279   81.2642 H   0  0  0  0  0  0  0  0  0  0  0  0
   -3.2327   -9.2775   79.7783 H   0  0  0  0  0  0  0  0  0  0  0  0
   -5.3366   -9.6251   82.0747 H   0  0  0  0  0  0  0  0  0  0  0  0
  1 34  1  0  0  0  0
  2  6  1  0  0  0  0
  2  7  1  0  0  0  0
  3 25  1  0  0  0  0
  3 27  1  0  0  0  0
  4 14  1  0  0  0  0
  5 26  1  0  0  0  0
  6 26  2  0  0  0  0
  7 30  2  0  0  0  0
  8 25  2  0  0  0  0
  8 29  1  0  0  0  0
  9 28  2  0  0  0  0
  9 31  1  0  0  0  0
 10 15  1  0  0  0  0
 10 28  1  0  0  0  0
 10 32  1  0  0  0  0
 11 15  1  0  0  0  0
 12 34  1  0  0  0  0
 13 34  1  0  0  0  0
 14 19  1  0  0  0  0
 16 17  2  0  0  0  0
 16 18  1  0  0  0  0
 17 20  1  0  0  0  0
 18 21  2  0  0  0  0
 19 27  1  0  0  0  0
 20 33  2  0  0  0  0
 21 33  1  0  0  0  0
 22 24  3  0  0  0  0
 22 29  1  0  0  0  0
 23 25  1  0  0  0  0
 23 32  2  0  0  0  0
 24 34  1  0  0  0  0
 26 30  1  0  0  0  0
 27 33  1  0  0  0  0
 28 30  1  0  0  0  0
 29 31  2  0  0  0  0
 31 32  1  0  0  0  0
  1 35  1  0  0  0  0
  4 36  1  0  0  0  0
  4 37  1  0  0  0  0
  5 38  1  0  0  0  0
  5 39  1  0  0  0  0
 11 40  1  0  0  0  0
 11 41  1  0  0  0  0
 11 42  1  0  0  0  0
 12 43  1  0  0  0  0
 12 44  1  0  0  0  0
 12 45  1  0  0  0  0
 13 46  1  0  0  0  0
 13 47  1  0  0  0  0
 13 48  1  0  0  0  0
 14 49  1  0  0  0  0
 14 50  1  0  0  0  0
 15 51  1  0  0  0  0
 15 52  1  0  0  0  0
 16 53  1  0  0  0  0
 17 54  1  0  0  0  0
 18 55  1  0  0  0  0
 19 56  1  0  0  0  0
 19 57  1  0  0  0  0
 20 58  1  0  0  0  0
 21 59  1  0  0  0  0
 23 60  1  0  0  0  0
 27 61  1  0  0  0  0
  4 62  1  0  0  0  0
M  CHG  1   4   1
M  END
$$$$
3AMB_VX6_A_351
prProtoss 05262315433D 1   1.00000     0.00000     0
Protoss beta proteinsplus
 62 66  0  0  0  0            999 V2000
  -27.6470  -10.2770   -8.5870 S   0  0  0  0  0  0  0  0  0  0  0  0
  -27.3650  -11.3040   -1.7980 O   0  0  0  0  0  0  0  0  0  0  0  0
  -33.4480   -9.7080   -5.1670 N   0  0  0  0  0  0  0  0  0  0  0  0
  -33.1240   -9.8830   -3.9940 N   0  0  0  0  0  0  0  0  0  0  0  0
  -30.2570   -9.9800   -7.9470 N   0  0  0  0  0  0  0  0  0  0  0  0
  -32.5020   -9.7340   -7.2890 N   0  0  0  0  0  0  0  0  0  0  0  0
  -29.6900   -9.9290  -10.2220 N   0  0  0  0  0  0  0  0  0  0  0  0
  -27.0940   -9.2430   -2.7640 N   0  0  0  0  0  0  0  0  0  0  0  0
  -31.7510   -8.4810  -14.4850 N   0  3  0  0  0  0  0  0  0  0  0  0
  -31.2820   -9.6310  -11.9610 N   0  0  0  0  0  0  0  0  0  0  0  0
  -31.8180   -7.3730  -15.4420 C   0  0  0  0  0  0  0  0  0  0  0  0
  -31.0840  -10.3970   -2.6180 C   0  0  0  0  0  0  0  0  0  0  0  0
  -30.3410   -8.6250  -14.0490 C   0  0  0  0  0  0  0  0  0  0  0  0
  -32.6810   -8.1690  -13.3730 C   0  0  0  0  0  0  0  0  0  0  0  0
  -30.1980   -9.7380  -13.0020 C   0  0  0  0  0  0  0  0  0  0  0  0
  -32.6870   -9.3550  -12.4020 C   0  0  0  0  0  0  0  0  0  0  0  0
  -27.4550   -8.6800   -6.3420 C   0  0  0  0  0  0  0  0  0  0  0  0
  -27.3850  -11.0570   -5.9610 C   0  0  0  0  0  0  0  0  0  0  0  0
  -27.3360   -8.4440   -4.9640 C   0  0  0  0  0  0  0  0  0  0  0  0
  -27.2500  -10.8220   -4.5880 C   0  0  0  0  0  0  0  0  0  0  0  0
  -27.8110   -9.9280    0.7480 C   0  0  0  0  0  0  0  0  0  0  0  0
  -26.3100  -10.2760    0.7060 C   0  0  0  0  0  0  0  0  0  0  0  0
  -31.9390   -9.6900   -9.5800 C   0  0  0  0  0  0  0  0  0  0  0  0
  -31.3160  -10.1340   -5.1750 C   0  0  0  0  0  0  0  0  0  0  0  0
  -29.3410  -10.0380   -8.9290 C   0  0  0  0  0  0  0  0  0  0  0  0
  -27.1420  -10.0870   -1.7350 C   0  0  0  0  0  0  0  0  0  0  0  0
  -32.3900   -9.8650   -5.9520 C   0  0  0  0  0  0  0  0  0  0  0  0
  -31.5570   -9.8070   -8.2360 C   0  0  0  0  0  0  0  0  0  0  0  0
  -27.4980   -9.9830   -6.8400 C   0  0  0  0  0  0  0  0  0  0  0  0
  -30.9690   -9.7570  -10.5850 C   0  0  0  0  0  0  0  0  0  0  0  0
  -31.8230  -10.1420   -3.9400 C   0  0  0  0  0  0  0  0  0  0  0  0
  -27.2350   -9.5170   -4.0760 C   0  0  0  0  0  0  0  0  0  0  0  0
  -26.9200   -9.4060   -0.3990 C   0  0  0  0  0  0  0  0  0  0  0  0
  -33.4274   -9.5560   -7.6235 H   0  0  0  0  0  0  0  0  0  0  0  0
  -26.9327   -8.2833   -2.5338 H   0  0  0  0  0  0  0  0  0  0  0  0
  -32.7618   -7.2562  -15.7512 H   0  0  0  0  0  0  0  0  0  0  0  0
  -31.5053   -6.5319  -15.0006 H   0  0  0  0  0  0  0  0  0  0  0  0
  -31.2326   -7.5749  -16.2272 H   0  0  0  0  0  0  0  0  0  0  0  0
  -30.1170  -10.5705   -2.8048 H   0  0  0  0  0  0  0  0  0  0  0  0
  -31.1707   -9.5946   -2.0275 H   0  0  0  0  0  0  0  0  0  0  0  0
  -31.4831  -11.1919   -2.1610 H   0  0  0  0  0  0  0  0  0  0  0  0
  -30.0321   -7.7609  -13.6516 H   0  0  0  0  0  0  0  0  0  0  0  0
  -29.7748   -8.8482  -14.8425 H   0  0  0  0  0  0  0  0  0  0  0  0
  -33.6022   -8.0229  -13.7337 H   0  0  0  0  0  0  0  0  0  0  0  0
  -32.3746   -7.3444  -12.8974 H   0  0  0  0  0  0  0  0  0  0  0  0
  -30.2651  -10.6265  -13.4559 H   0  0  0  0  0  0  0  0  0  0  0  0
  -29.3061   -9.6576  -12.5569 H   0  0  0  0  0  0  0  0  0  0  0  0
  -33.2509   -9.1341  -11.6063 H   0  0  0  0  0  0  0  0  0  0  0  0
  -33.0592  -10.1620  -12.8606 H   0  0  0  0  0  0  0  0  0  0  0  0
  -27.5096   -7.9067   -6.9737 H   0  0  0  0  0  0  0  0  0  0  0  0
  -27.4003  -11.9940   -6.3100 H   0  0  0  0  0  0  0  0  0  0  0  0
  -27.3235   -7.5061   -4.6173 H   0  0  0  0  0  0  0  0  0  0  0  0
  -27.1629  -11.5972   -3.9623 H   0  0  0  0  0  0  0  0  0  0  0  0
  -28.1594   -9.2952    1.4395 H   0  0  0  0  0  0  0  0  0  0  0  0
  -28.4946  -10.6356    0.5691 H   0  0  0  0  0  0  0  0  0  0  0  0
  -26.0197  -11.2110    0.5023 H   0  0  0  0  0  0  0  0  0  0  0  0
  -25.6846   -9.8706    1.3727 H   0  0  0  0  0  0  0  0  0  0  0  0
  -32.9012   -9.5592   -9.8189 H   0  0  0  0  0  0  0  0  0  0  0  0
  -30.3695  -10.2895   -5.4577 H   0  0  0  0  0  0  0  0  0  0  0  0
  -26.6912   -8.4325   -0.4049 H   0  0  0  0  0  0  0  0  0  0  0  0
  -32.0453   -9.3242  -14.9349 H   0  0  0  0  0  0  0  0  0  0  0  0
  -33.7405   -9.8376   -3.2080 H   0  0  0  0  0  0  0  0  0  0  0  0
  1 25  1  0  0  0  0
  1 29  1  0  0  0  0
  2 26  2  0  0  0  0
  3  4  1  0  0  0  0
  3 27  2  0  0  0  0
  4 31  1  0  0  0  0
  5 25  2  0  0  0  0
  5 28  1  0  0  0  0
  6 27  1  0  0  0  0
  6 28  1  0  0  0  0
  7 25  1  0  0  0  0
  7 30  2  0  0  0  0
  8 26  1  0  0  0  0
  8 32  1  0  0  0  0
  9 11  1  0  0  0  0
  9 13  1  0  0  0  0
  9 14  1  0  0  0  0
 10 15  1  0  0  0  0
 10 16  1  0  0  0  0
 10 30  1  0  0  0  0
 12 31  1  0  0  0  0
 13 15  1  0  0  0  0
 14 16  1  0  0  0  0
 17 19  1  0  0  0  0
 17 29  2  0  0  0  0
 18 20  2  0  0  0  0
 18 29  1  0  0  0  0
 19 32  2  0  0  0  0
 20 32  1  0  0  0  0
 21 22  1  0  0  0  0
 21 33  1  0  0  0  0
 22 33  1  0  0  0  0
 23 28  2  0  0  0  0
 23 30  1  0  0  0  0
 24 27  1  0  0  0  0
 24 31  2  0  0  0  0
 26 33  1  0  0  0  0
  9 61  1  0  0  0  0
  6 34  1  0  0  0  0
  8 35  1  0  0  0  0
 11 36  1  0  0  0  0
 11 37  1  0  0  0  0
 11 38  1  0  0  0  0
 12 39  1  0  0  0  0
 12 40  1  0  0  0  0
 12 41  1  0  0  0  0
 13 42  1  0  0  0  0
 13 43  1  0  0  0  0
 14 44  1  0  0  0  0
 14 45  1  0  0  0  0
 15 46  1  0  0  0  0
 15 47  1  0  0  0  0
 16 48  1  0  0  0  0
 16 49  1  0  0  0  0
 17 50  1  0  0  0  0
 18 51  1  0  0  0  0
 19 52  1  0  0  0  0
 20 53  1  0  0  0  0
 21 54  1  0  0  0  0
 21 55  1  0  0  0  0
 22 56  1  0  0  0  0
 22 57  1  0  0  0  0
 23 58  1  0  0  0  0
 24 59  1  0  0  0  0
 33 60  1  0  0  0  0
  4 62  1  0  0  0  0
M  CHG  1   9   1
M  END
$$$$
4C34_STU_A_1351
prProtoss 05262315373D 1   1.00000     0.00000     0
Protoss beta proteinsplus
 62 69  0  0  0  0            999 V2000
   12.8330   -9.4250   -7.2100 O   0  0  0  0  0  0  0  0  0  0  0  0
    6.7280  -11.9500  -10.4220 O   0  0  0  0  0  0  0  0  0  0  0  0
    5.7010  -10.5720   -7.5500 O   0  0  0  0  0  0  0  0  0  0  0  0
    4.5570  -10.4020  -11.5880 N   0  3  0  0  0  0  0  0  0  0  0  0
   12.8620  -11.7420   -7.1830 N   0  0  0  0  0  0  0  0  0  0  0  0
    7.6200   -9.3030   -8.0360 N   0  0  0  0  0  0  0  0  0  0  0  0
    7.0840  -12.4930   -7.8700 N   0  0  0  0  0  0  0  0  0  0  0  0
    6.8890  -13.1750  -11.1540 C   0  0  0  0  0  0  0  0  0  0  0  0
    3.1220  -10.3950  -11.8330 C   0  0  0  0  0  0  0  0  0  0  0  0
    4.5940  -12.5190   -7.3760 C   0  0  0  0  0  0  0  0  0  0  0  0
   11.9270  -12.8670   -7.2560 C   0  0  0  0  0  0  0  0  0  0  0  0
    8.8650   -5.7840   -8.3900 C   0  0  0  0  0  0  0  0  0  0  0  0
    7.2000  -16.2530   -7.9990 C   0  0  0  0  0  0  0  0  0  0  0  0
   10.2150   -6.0560   -8.1860 C   0  0  0  0  0  0  0  0  0  0  0  0
    8.5640  -16.3910   -7.7970 C   0  0  0  0  0  0  0  0  0  0  0  0
    7.9200   -6.8030   -8.3370 C   0  0  0  0  0  0  0  0  0  0  0  0
    6.6100  -14.9960   -8.0160 C   0  0  0  0  0  0  0  0  0  0  0  0
    9.3720  -15.2730   -7.6340 C   0  0  0  0  0  0  0  0  0  0  0  0
   10.6440   -7.3550   -7.9350 C   0  0  0  0  0  0  0  0  0  0  0  0
    5.8160   -9.3360   -9.7240 C   0  0  0  0  0  0  0  0  0  0  0  0
   12.2620  -10.5030   -7.3300 C   0  0  0  0  0  0  0  0  0  0  0  0
    6.1480   -9.4160   -8.2540 C   0  0  1  0  0  0  0  0  0  0  0  0
    5.4940  -11.8500   -9.7170 C   0  0  2  0  0  0  0  0  0  0  0  0
    4.8670  -10.4680  -10.1280 C   0  0  2  0  0  0  0  0  0  0  0  0
    8.3510   -8.1050   -8.0870 C   0  0  0  0  0  0  0  0  0  0  0  0
    7.4180  -13.8740   -7.8340 C   0  0  0  0  0  0  0  0  0  0  0  0
    8.4930  -10.3470   -7.8040 C   0  0  0  0  0  0  0  0  0  0  0  0
    8.2700  -11.7570   -7.7390 C   0  0  0  0  0  0  0  0  0  0  0  0
   10.6520  -12.1400   -7.4890 C   0  0  0  0  0  0  0  0  0  0  0  0
    8.8070  -14.0000   -7.6580 C   0  0  0  0  0  0  0  0  0  0  0  0
    9.7130   -8.3970   -7.8820 C   0  0  0  0  0  0  0  0  0  0  0  0
   10.8410  -10.7620   -7.5350 C   0  0  0  0  0  0  0  0  0  0  0  0
    9.3510  -12.6510   -7.6020 C   0  0  0  0  0  0  0  0  0  0  0  0
    9.8040   -9.8380   -7.7030 C   0  0  0  0  0  0  0  0  0  0  0  0
    5.7400  -11.8670   -8.1210 C   0  0  1  0  0  0  0  0  0  0  0  0
    4.9546   -9.5661  -11.9664 H   0  0  0  0  0  0  0  0  0  0  0  0
   13.8449  -11.8583   -7.0399 H   0  0  0  0  0  0  0  0  0  0  0  0
    7.7739  -13.1712  -11.6197 H   0  0  0  0  0  0  0  0  0  0  0  0
    6.8483  -13.9488  -10.5219 H   0  0  0  0  0  0  0  0  0  0  0  0
    6.1569  -13.2580  -11.8301 H   0  0  0  0  0  0  0  0  0  0  0  0
    2.9521  -10.3504  -12.8175 H   0  0  0  0  0  0  0  0  0  0  0  0
    2.7165  -11.2305  -11.4623 H   0  0  0  0  0  0  0  0  0  0  0  0
    2.7117   -9.5993  -11.3875 H   0  0  0  0  0  0  0  0  0  0  0  0
    4.4946  -13.4663   -7.6804 H   0  0  0  0  0  0  0  0  0  0  0  0
    4.7824  -12.5024   -6.3941 H   0  0  0  0  0  0  0  0  0  0  0  0
    3.7482  -12.0188   -7.5616 H   0  0  0  0  0  0  0  0  0  0  0  0
   11.9058  -13.3862   -6.4016 H   0  0  0  0  0  0  0  0  0  0  0  0
   12.1462  -13.4813   -8.0140 H   0  0  0  0  0  0  0  0  0  0  0  0
    8.5718   -4.8463   -8.5766 H   0  0  0  0  0  0  0  0  0  0  0  0
    6.6348  -17.0669   -8.1339 H   0  0  0  0  0  0  0  0  0  0  0  0
   10.8816   -5.3114   -8.2202 H   0  0  0  0  0  0  0  0  0  0  0  0
    8.9705  -17.3042   -7.7683 H   0  0  0  0  0  0  0  0  0  0  0  0
    6.9496   -6.6055   -8.4756 H   0  0  0  0  0  0  0  0  0  0  0  0
    5.6248  -14.8973   -8.1560 H   0  0  0  0  0  0  0  0  0  0  0  0
   10.3570  -15.3817   -7.4997 H   0  0  0  0  0  0  0  0  0  0  0  0
   11.6158   -7.5433   -7.7928 H   0  0  0  0  0  0  0  0  0  0  0  0
    6.6599   -9.4099  -10.2554 H   0  0  0  0  0  0  0  0  0  0  0  0
    5.3782   -8.4573   -9.9141 H   0  0  0  0  0  0  0  0  0  0  0  0
    5.7250   -8.6235   -7.8145 H   0  0  0  0  0  0  0  0  0  0  0  0
    4.8844  -12.5977   -9.9803 H   0  0  0  0  0  0  0  0  0  0  0  0
    4.0118  -10.3520   -9.6229 H   0  0  0  0  0  0  0  0  0  0  0  0
    4.9594  -11.1974  -12.0412 H   0  0  0  0  0  0  0  0  0  0  0  0
  1 21  2  0  0  0  0
  2  8  1  0  0  0  0
  2 23  1  0  0  0  0
  3 22  1  0  0  0  0
  3 35  1  0  0  0  0
  4  9  1  0  0  0  0
  4 24  1  0  0  0  0
  5 11  1  0  0  0  0
  5 21  1  0  0  0  0
  6 22  1  0  0  0  0
  6 25  1  0  0  0  0
  6 27  1  0  0  0  0
  7 26  1  0  0  0  0
  7 28  1  0  0  0  0
  7 35  1  0  0  0  0
 10 35  1  0  0  0  0
 11 29  1  0  0  0  0
 12 14  2  0  0  0  0
 12 16  1  0  0  0  0
 13 15  2  0  0  0  0
 13 17  1  0  0  0  0
 14 19  1  0  0  0  0
 15 18  1  0  0  0  0
 16 25  2  0  0  0  0
 17 26  2  0  0  0  0
 18 30  2  0  0  0  0
 19 31  2  0  0  0  0
 20 22  1  0  0  0  0
 20 24  1  0  0  0  0
 21 32  1  0  0  0  0
 23 24  1  0  0  0  0
 23 35  1  0  0  0  0
 25 31  1  0  0  0  0
 26 30  1  0  0  0  0
 27 28  1  0  0  0  0
 27 34  2  0  0  0  0
 28 33  2  0  0  0  0
 29 32  2  0  0  0  0
 29 33  1  0  0  0  0
 30 33  1  0  0  0  0
 31 34  1  0  0  0  0
 32 34  1  0  0  0  0
  4 36  1  0  0  0  0
  5 37  1  0  0  0  0
  8 38  1  0  0  0  0
  8 39  1  0  0  0  0
  8 40  1  0  0  0  0
  9 41  1  0  0  0  0
  9 42  1  0  0  0  0
  9 43  1  0  0  0  0
 10 44  1  0  0  0  0
 10 45  1  0  0  0  0
 10 46  1  0  0  0  0
 11 47  1  0  0  0  0
 11 48  1  0  0  0  0
 12 49  1  0  0  0  0
 13 50  1  0  0  0  0
 14 51  1  0  0  0  0
 15 52  1  0  0  0  0
 16 53  1  0  0  0  0
 17 54  1  0  0  0  0
 18 55  1  0  0  0  0
 19 56  1  0  0  0  0
 20 57  1  0  0  0  0
 20 58  1  0  0  0  0
 22 59  1  0  0  0  0
 23 60  1  0  0  0  0
 24 61  1  0  0  0  0
  4 62  1  0  0  0  0
M  CHG  1   4   1
M  END
$$$$
4C34_GOL_A_1352
prProtoss 05262315373D 1   1.00000     0.00000     0
Protoss beta proteinsplus
 14 13  0  0  0  0            999 V2000
   -2.2650  -30.1460   -3.1570 O   0  0  0  0  0  0  0  0  0  0  0  0
   -1.3080  -33.9840   -3.4090 O   0  0  0  0  0  0  0  0  0  0  0  0
   -0.5730  -31.1020   -5.5170 O   0  0  0  0  0  0  0  0  0  0  0  0
   -2.4180  -31.2640   -4.0010 C   0  0  0  0  0  0  0  0  0  0  0  0
   -1.1730  -33.2800   -4.6350 C   0  0  0  0  0  0  0  0  0  0  0  0
   -1.0580  -31.7970   -4.3670 C   0  0  0  0  0  0  0  0  0  0  0  0
   -1.7769  -30.4186   -2.3279 H   0  0  0  0  0  0  0  0  0  0  0  0
   -2.1735  -34.4849   -3.4058 H   0  0  0  0  0  0  0  0  0  0  0  0
   -0.8625  -31.5836   -6.3442 H   0  0  0  0  0  0  0  0  0  0  0  0
   -2.9054  -30.9925   -4.8309 H   0  0  0  0  0  0  0  0  0  0  0  0
   -2.9385  -31.9733   -3.5257 H   0  0  0  0  0  0  0  0  0  0  0  0
   -1.9754  -33.4524   -5.2064 H   0  0  0  0  0  0  0  0  0  0  0  0
   -0.3516  -33.5958   -5.1099 H   0  0  0  0  0  0  0  0  0  0  0  0
   -0.4298  -31.6483   -3.6033 H   0  0  0  0  0  0  0  0  0  0  0  0
  1  4  1  0  0  0  0
  2  5  1  0  0  0  0
  3  6  1  0  0  0  0
  4  6  1  0  0  0  0
  5  6  1  0  0  0  0
  1  7  1  0  0  0  0
  2  8  1  0  0  0  0
  3  9  1  0  0  0  0
  4 10  1  0  0  0  0
  4 11  1  0  0  0  0
  5 12  1  0  0  0  0
  5 13  1  0  0  0  0
  6 14  1  0  0  0  0
M  END
$$$$
4C34_MG8_A_1353
prProtoss 05262315373D 1   1.00000     0.00000     0
Protoss beta proteinsplus
 23 22  0  0  0  0            999 V2000
   30.3840  -21.7040  -22.4090 C   0  0  0  0  0  0  0  0  0  0  0  0
   23.0030  -22.5190  -22.9940 C   0  0  0  0  0  0  0  0  0  0  0  0
   29.2080  -21.6600  -23.4030 C   0  0  0  0  0  0  0  0  0  0  0  0
   24.3370  -22.4750  -23.7480 C   0  0  0  0  0  0  0  0  0  0  0  0
   27.8660  -21.2930  -22.7400 C   0  0  0  0  0  0  0  0  0  0  0  0
   25.3610  -21.6160  -22.9770 C   0  0  0  0  0  0  0  0  0  0  0  0
   26.7130  -21.6220  -23.7110 C   0  0  0  0  0  0  0  0  0  0  0  0
   31.2232  -21.9462  -22.8960 H   0  0  0  0  0  0  0  0  0  0  0  0
   30.4935  -20.8063  -21.9823 H   0  0  0  0  0  0  0  0  0  0  0  0
   30.1987  -22.3880  -21.7035 H   0  0  0  0  0  0  0  0  0  0  0  0
   22.3499  -23.0783  -23.5045 H   0  0  0  0  0  0  0  0  0  0  0  0
   23.1454  -22.9166  -22.0876 H   0  0  0  0  0  0  0  0  0  0  0  0
   22.6435  -21.5908  -22.8981 H   0  0  0  0  0  0  0  0  0  0  0  0
   29.1169  -22.5608  -23.8276 H   0  0  0  0  0  0  0  0  0  0  0  0
   29.4117  -20.9790  -24.1064 H   0  0  0  0  0  0  0  0  0  0  0  0
   24.1905  -22.0790  -24.6545 H   0  0  0  0  0  0  0  0  0  0  0  0
   24.6924  -23.4048  -23.8439 H   0  0  0  0  0  0  0  0  0  0  0  0
   27.8547  -20.3162  -22.5263 H   0  0  0  0  0  0  0  0  0  0  0  0
   27.7542  -21.8199  -21.8974 H   0  0  0  0  0  0  0  0  0  0  0  0
   25.4818  -21.9906  -22.0577 H   0  0  0  0  0  0  0  0  0  0  0  0
   25.0235  -20.6769  -22.9126 H   0  0  0  0  0  0  0  0  0  0  0  0
   26.8666  -22.5271  -24.1075 H   0  0  0  0  0  0  0  0  0  0  0  0
   26.6932  -20.9378  -24.4400 H   0  0  0  0  0  0  0  0  0  0  0  0
  1  3  1  0  0  0  0
  2  4  1  0  0  0  0
  3  5  1  0  0  0  0
  4  6  1  0  0  0  0
  5  7  1  0  0  0  0
  6  7  1  0  0  0  0
  1  8  1  0  0  0  0
  1  9  1  0  0  0  0
  1 10  1  0  0  0  0
  2 11  1  0  0  0  0
  2 12  1  0  0  0  0
  2 13  1  0  0  0  0
  3 14  1  0  0  0  0
  3 15  1  0  0  0  0
  4 16  1  0  0  0  0
  4 17  1  0  0  0  0
  5 18  1  0  0  0  0
  5 19  1  0  0  0  0
  6 20  1  0  0  0  0
  6 21  1  0  0  0  0
  7 22  1  0  0  0  0
  7 23  1  0  0  0  0
M  END
$$$$
2UZV_SS5_A_1351
prProtoss 05262315543D 1   1.00000     0.00000     0
Protoss beta proteinsplus
 70 74  0  0  0  0            999 V2000
   11.1130    9.0080    1.6850 O   0  0  0  0  0  0  0  0  0  0  0  0
   18.4530   10.0330    4.1220 O   0  0  0  0  0  0  0  0  0  0  0  0
   12.8660    7.2070    3.0130 N   0  3  0  0  0  0  0  0  0  0  0  0
    2.7140   10.0970    3.8830 N   0  0  0  0  0  0  0  0  0  0  0  0
    2.4360    9.8550    2.5940 N   0  0  0  0  0  0  0  0  0  0  0  0
    9.2920   10.0160   -1.4290 N   0  0  0  0  0  0  0  0  0  0  0  0
    4.6560   10.4840    5.4310 C   0  0  0  0  0  0  0  0  0  0  0  0
   12.3820    8.6650    1.1510 C   0  0  0  0  0  0  0  0  0  0  0  0
   19.5570   10.0170    5.0160 C   0  0  0  0  0  0  0  0  0  0  0  0
   10.3140    9.6830   -0.6150 C   0  0  0  0  0  0  0  0  0  0  0  0
    8.0170   10.0520   -0.9430 C   0  0  0  0  0  0  0  0  0  0  0  0
   21.2700   14.0560    4.2160 C   0  0  0  0  0  0  0  0  0  0  0  0
   22.2310   12.8840    4.5410 C   0  0  0  0  0  0  0  0  0  0  0  0
   19.9310   13.9550    4.9800 C   0  0  0  0  0  0  0  0  0  0  0  0
   17.1640    6.4120    4.1710 C   0  0  0  0  0  0  0  0  0  0  0  0
   17.9860    7.5360    4.5020 C   0  0  0  0  0  0  0  0  0  0  0  0
   21.5490   11.5040    4.3630 C   0  0  0  0  0  0  0  0  0  0  0  0
   19.2740   12.5690    4.8040 C   0  0  0  0  0  0  0  0  0  0  0  0
   16.0990    6.5570    3.2560 C   0  0  0  0  0  0  0  0  0  0  0  0
    3.8350    9.5690    0.4860 C   0  0  0  0  0  0  0  0  0  0  0  0
    5.1790    9.5660    0.0360 C   0  0  0  0  0  0  0  0  0  0  0  0
   16.6610    8.9280    3.0000 C   0  0  0  0  0  0  0  0  0  0  0  0
    8.7860    9.4100    1.2430 C   0  0  0  0  0  0  0  0  0  0  0  0
   14.7300    8.0470    1.6700 C   0  0  0  0  0  0  0  0  0  0  0  0
    5.9640   10.0140    2.3130 C   0  0  0  0  0  0  0  0  0  0  0  0
   10.1090    9.3610    0.7670 C   0  0  0  0  0  0  0  0  0  0  0  0
   17.7320    8.8240    3.9050 C   0  0  0  0  0  0  0  0  0  0  0  0
   13.3670    8.3610    2.2770 C   0  0  2  0  0  0  0  0  0  0  0  0
    4.0270   10.2120    4.0830 C   0  0  0  0  0  0  0  0  0  0  0  0
    3.5590    9.7880    1.8270 C   0  0  0  0  0  0  0  0  0  0  0  0
   20.2370   11.4000    5.1820 C   0  0  0  0  0  0  0  0  0  0  0  0
   15.8390    7.8210    2.6620 C   0  0  0  0  0  0  0  0  0  0  0  0
    7.7000    9.7550    0.4060 C   0  0  0  0  0  0  0  0  0  0  0  0
    6.2750    9.7850    0.9210 C   0  0  0  0  0  0  0  0  0  0  0  0
    4.6400   10.0180    2.7730 C   0  0  0  0  0  0  0  0  0  0  0  0
   13.4959    6.9877    3.7580 H   0  0  0  0  0  0  0  0  0  0  0  0
   11.9642    7.4181    3.3902 H   0  0  0  0  0  0  0  0  0  0  0  0
    1.5095    9.7371    2.2366 H   0  0  0  0  0  0  0  0  0  0  0  0
    5.6501   10.5277    5.3322 H   0  0  0  0  0  0  0  0  0  0  0  0
    4.3178   11.3551    5.7870 H   0  0  0  0  0  0  0  0  0  0  0  0
    4.4160    9.7490    6.0652 H   0  0  0  0  0  0  0  0  0  0  0  0
   12.7285    9.4294    0.6072 H   0  0  0  0  0  0  0  0  0  0  0  0
   12.2874    7.8575    0.5687 H   0  0  0  0  0  0  0  0  0  0  0  0
   20.2359    9.3699    4.6692 H   0  0  0  0  0  0  0  0  0  0  0  0
   19.2342    9.7132    5.9124 H   0  0  0  0  0  0  0  0  0  0  0  0
   11.2423    9.6599   -0.9861 H   0  0  0  0  0  0  0  0  0  0  0  0
    7.2745   10.2986   -1.5658 H   0  0  0  0  0  0  0  0  0  0  0  0
   21.0798   14.0515    3.2343 H   0  0  0  0  0  0  0  0  0  0  0  0
   21.7169   14.9152    4.4650 H   0  0  0  0  0  0  0  0  0  0  0  0
   22.5379   12.9721    5.4886 H   0  0  0  0  0  0  0  0  0  0  0  0
   23.0201   12.9350    3.9289 H   0  0  0  0  0  0  0  0  0  0  0  0
   19.3070   14.6554    4.6336 H   0  0  0  0  0  0  0  0  0  0  0  0
   20.1008   14.1116    5.9530 H   0  0  0  0  0  0  0  0  0  0  0  0
   17.3446    5.5217    4.5890 H   0  0  0  0  0  0  0  0  0  0  0  0
   18.7398    7.4277    5.1501 H   0  0  0  0  0  0  0  0  0  0  0  0
   22.1788   10.7899    4.6687 H   0  0  0  0  0  0  0  0  0  0  0  0
   21.3376   11.3699    3.3948 H   0  0  0  0  0  0  0  0  0  0  0  0
   19.0001   12.4628    3.8481 H   0  0  0  0  0  0  0  0  0  0  0  0
   18.4651   12.5206    5.3899 H   0  0  0  0  0  0  0  0  0  0  0  0
   15.5272    5.7695    3.0258 H   0  0  0  0  0  0  0  0  0  0  0  0
    3.0887    9.4138   -0.1612 H   0  0  0  0  0  0  0  0  0  0  0  0
    5.3644    9.4051   -0.9334 H   0  0  0  0  0  0  0  0  0  0  0  0
   16.4712    9.8148    2.5787 H   0  0  0  0  0  0  0  0  0  0  0  0
    8.6082    9.1941    2.2031 H   0  0  0  0  0  0  0  0  0  0  0  0
   14.9913    8.8139    1.0839 H   0  0  0  0  0  0  0  0  0  0  0  0
   14.6381    7.2199    1.1155 H   0  0  0  0  0  0  0  0  0  0  0  0
    6.7084   10.1729    2.9616 H   0  0  0  0  0  0  0  0  0  0  0  0
   13.4397    9.1493    2.8880 H   0  0  0  0  0  0  0  0  0  0  0  0
   20.4749   11.5053    6.1476 H   0  0  0  0  0  0  0  0  0  0  0  0
   12.7941    6.4235    2.3957 H   0  0  0  0  0  0  0  0  0  0  0  0
  1  8  1  0  0  0  0
  1 26  1  0  0  0  0
  2  9  1  0  0  0  0
  2 27  1  0  0  0  0
  3 28  1  0  0  0  0
  4  5  1  0  0  0  0
  4 29  2  0  0  0  0
  5 30  1  0  0  0  0
  6 10  2  0  0  0  0
  6 11  1  0  0  0  0
  7 29  1  0  0  0  0
  8 28  1  0  0  0  0
  9 31  1  0  0  0  0
 10 26  1  0  0  0  0
 11 33  2  0  0  0  0
 12 13  1  0  0  0  0
 12 14  1  0  0  0  0
 13 17  1  0  0  0  0
 14 18  1  0  0  0  0
 15 16  2  0  0  0  0
 15 19  1  0  0  0  0
 16 27  1  0  0  0  0
 17 31  1  0  0  0  0
 18 31  1  0  0  0  0
 19 32  2  0  0  0  0
 20 21  1  0  0  0  0
 20 30  2  0  0  0  0
 21 34  2  0  0  0  0
 22 27  2  0  0  0  0
 22 32  1  0  0  0  0
 23 26  2  0  0  0  0
 23 33  1  0  0  0  0
 24 28  1  0  0  0  0
 24 32  1  0  0  0  0
 25 34  1  0  0  0  0
 25 35  2  0  0  0  0
 29 35  1  0  0  0  0
 30 35  1  0  0  0  0
 33 34  1  0  0  0  0
  3 36  1  0  0  0  0
  3 37  1  0  0  0  0
  5 38  1  0  0  0  0
  7 39  1  0  0  0  0
  7 40  1  0  0  0  0
  7 41  1  0  0  0  0
  8 42  1  0  0  0  0
  8 43  1  0  0  0  0
  9 44  1  0  0  0  0
  9 45  1  0  0  0  0
 10 46  1  0  0  0  0
 11 47  1  0  0  0  0
 12 48  1  0  0  0  0
 12 49  1  0  0  0  0
 13 50  1  0  0  0  0
 13 51  1  0  0  0  0
 14 52  1  0  0  0  0
 14 53  1  0  0  0  0
 15 54  1  0  0  0  0
 16 55  1  0  0  0  0
 17 56  1  0  0  0  0
 17 57  1  0  0  0  0
 18 58  1  0  0  0  0
 18 59  1  0  0  0  0
 19 60  1  0  0  0  0
 20 61  1  0  0  0  0
 21 62  1  0  0  0  0
 22 63  1  0  0  0  0
 23 64  1  0  0  0  0
 24 65  1  0  0  0  0
 24 66  1  0  0  0  0
 25 67  1  0  0  0  0
 28 68  1  0  0  0  0
 31 69  1  0  0  0  0
  3 70  1  0  0  0  0
M  CHG  1   3   1
M  END
$$$$
7Y1G_I5G_A_500
prProtoss 08172315213D 1   1.00000     0.00000     0
Protoss beta proteinsplus
 53 56  0  0  0  0            999 V2000
  -74.3760   -5.6300    9.5800 Cl  0  0  0  0  0  0  0  0  0  0  0  0
  -70.3620  -15.0880    9.0320 Cl  0  0  0  0  0  0  0  0  0  0  0  0
  -75.8380  -12.7890   11.3590 O   0  0  0  0  0  0  0  0  0  0  0  0
  -70.5820  -13.8130   16.1430 O   0  0  0  0  0  0  0  0  0  0  0  0
  -72.4570  -10.2380   10.9530 O   0  0  0  0  0  0  0  0  0  0  0  0
  -70.7740  -18.8730    9.1400 N   0  0  0  0  0  0  0  0  0  0  0  0
  -76.8840   -6.2790    9.7100 N   0  0  0  0  0  0  0  0  0  0  0  0
  -73.4090  -12.9650   15.1760 N   0  3  0  0  0  0  0  0  0  0  0  0
  -73.7660  -12.4670   12.1930 N   0  0  0  0  0  0  0  0  0  0  0  0
  -71.3110   -9.4290   10.6670 C   0  0  0  0  0  0  0  0  0  0  0  0
  -71.2840  -18.0270    9.7510 C   0  0  0  0  0  0  0  0  0  0  0  0
  -77.8940   -7.1210    9.9510 C   0  0  0  0  0  0  0  0  0  0  0  0
  -72.3810  -12.2770   15.9500 C   0  0  0  0  0  0  0  0  0  0  0  0
  -77.6910   -8.4350   10.3320 C   0  0  0  0  0  0  0  0  0  0  0  0
  -72.7790  -17.2130   11.4880 C   0  0  0  0  0  0  0  0  0  0  0  0
  -73.3740  -16.1700   12.2100 C   0  0  0  0  0  0  0  0  0  0  0  0
  -71.3660  -13.1380   13.9340 C   0  0  0  0  0  0  0  0  0  0  0  0
  -72.0870  -14.5220   10.9650 C   0  0  0  0  0  0  0  0  0  0  0  0
  -74.0130   -8.4630   10.3610 C   0  0  0  0  0  0  0  0  0  0  0  0
  -76.1660  -10.2030   10.8830 C   0  0  0  0  0  0  0  0  0  0  0  0
  -75.6510   -6.7380    9.8580 C   0  0  0  0  0  0  0  0  0  0  0  0
  -74.8350  -12.0740   11.5090 C   0  0  0  0  0  0  0  0  0  0  0  0
  -71.5060  -15.5620   10.2390 C   0  0  0  0  0  0  0  0  0  0  0  0
  -71.0480  -12.7160   15.3690 C   0  0  2  0  0  0  0  0  0  0  0  0
  -73.7520   -9.7910   10.7920 C   0  0  0  0  0  0  0  0  0  0  0  0
  -72.7850  -13.7350   14.0820 C   0  0  2  0  0  0  0  0  0  0  0  0
  -73.6600  -13.7810   12.7840 C   0  0  2  0  0  0  0  0  0  0  0  0
  -71.8600  -16.9120   10.4860 C   0  0  0  0  0  0  0  0  0  0  0  0
  -73.0400  -14.8410   11.9280 C   0  0  0  0  0  0  0  0  0  0  0  0
  -76.3950   -8.8970   10.4820 C   0  0  0  0  0  0  0  0  0  0  0  0
  -74.8610  -10.6640   11.0230 C   0  0  0  0  0  0  0  0  0  0  0  0
  -75.3360   -8.0460   10.2220 C   0  0  0  0  0  0  0  0  0  0  0  0
  -69.7027  -14.1252   15.7832 H   0  0  0  0  0  0  0  0  0  0  0  0
  -74.0392  -12.2915   14.7896 H   0  0  0  0  0  0  0  0  0  0  0  0
  -73.0047  -11.8280   12.3031 H   0  0  0  0  0  0  0  0  0  0  0  0
  -70.4791   -9.9514   10.8541 H   0  0  0  0  0  0  0  0  0  0  0  0
  -71.3255   -9.1589    9.7043 H   0  0  0  0  0  0  0  0  0  0  0  0
  -71.3279   -8.6116   11.2428 H   0  0  0  0  0  0  0  0  0  0  0  0
  -78.8318   -6.7882    9.8521 H   0  0  0  0  0  0  0  0  0  0  0  0
  -72.4412  -12.5363   16.9139 H   0  0  0  0  0  0  0  0  0  0  0  0
  -72.4872  -11.2864   15.8640 H   0  0  0  0  0  0  0  0  0  0  0  0
  -78.4686   -9.0419   10.4965 H   0  0  0  0  0  0  0  0  0  0  0  0
  -73.0120  -18.1642   11.6903 H   0  0  0  0  0  0  0  0  0  0  0  0
  -74.0386  -16.3759   12.9282 H   0  0  0  0  0  0  0  0  0  0  0  0
  -70.7162  -13.8228   13.6041 H   0  0  0  0  0  0  0  0  0  0  0  0
  -71.3650  -12.3523   13.3154 H   0  0  0  0  0  0  0  0  0  0  0  0
  -71.8254  -13.5714   10.7978 H   0  0  0  0  0  0  0  0  0  0  0  0
  -73.2595   -7.8369   10.1604 H   0  0  0  0  0  0  0  0  0  0  0  0
  -76.9362  -10.8124   11.0712 H   0  0  0  0  0  0  0  0  0  0  0  0
  -70.3884  -11.9645   15.3820 H   0  0  0  0  0  0  0  0  0  0  0  0
  -72.6797  -14.6761   14.4032 H   0  0  0  0  0  0  0  0  0  0  0  0
  -74.5787  -14.0834   13.0381 H   0  0  0  0  0  0  0  0  0  0  0  0
  -73.9128  -13.5881   15.7743 H   0  0  0  0  0  0  0  0  0  0  0  0
  1 21  1  0  0  0  0
  2 23  1  0  0  0  0
  3 22  2  0  0  0  0
  4 24  1  0  0  0  0
  5 10  1  0  0  0  0
  5 25  1  0  0  0  0
  6 11  3  0  0  0  0
  7 12  2  0  0  0  0
  7 21  1  0  0  0  0
  8 13  1  0  0  0  0
  8 26  1  0  0  0  0
  9 22  1  0  0  0  0
  9 27  1  0  0  0  0
 11 28  1  0  0  0  0
 12 14  1  0  0  0  0
 13 24  1  0  0  0  0
 14 30  2  0  0  0  0
 15 16  1  0  0  0  0
 15 28  2  0  0  0  0
 16 29  2  0  0  0  0
 17 24  1  0  0  0  0
 17 26  1  0  0  0  0
 18 23  2  0  0  0  0
 18 29  1  0  0  0  0
 19 25  2  0  0  0  0
 19 32  1  0  0  0  0
 20 30  1  0  0  0  0
 20 31  2  0  0  0  0
 21 32  2  0  0  0  0
 22 31  1  0  0  0  0
 23 28  1  0  0  0  0
 25 31  1  0  0  0  0
 26 27  1  0  0  0  0
 27 29  1  0  0  0  0
 30 32  1  0  0  0  0
  4 33  1  0  0  0  0
  8 34  1  0  0  0  0
  9 35  1  0  0  0  0
 10 36  1  0  0  0  0
 10 37  1  0  0  0  0
 10 38  1  0  0  0  0
 12 39  1  0  0  0  0
 13 40  1  0  0  0  0
 13 41  1  0  0  0  0
 14 42  1  0  0  0  0
 15 43  1  0  0  0  0
 16 44  1  0  0  0  0
 17 45  1  0  0  0  0
 17 46  1  0  0  0  0
 18 47  1  0  0  0  0
 19 48  1  0  0  0  0
 20 49  1  0  0  0  0
 24 50  1  0  0  0  0
 26 51  1  0  0  0  0
 27 52  1  0  0  0  0
  8 53  1  0  0  0  0
M  CHG  1   8   1
M  END
$$$$
7Y1G_I5G_B_401
prProtoss 08172315213D 1   1.00000     0.00000     0
Protoss beta proteinsplus
 53 56  0  0  0  0            999 V2000
  -47.8590   -4.9610   42.5690 Cl  0  0  0  0  0  0  0  0  0  0  0  0
  -51.8620  -13.9140   43.9010 Cl  0  0  0  0  0  0  0  0  0  0  0  0
  -47.2550  -12.3230   40.9180 O   0  0  0  0  0  0  0  0  0  0  0  0
  -52.8690  -13.3570   36.6600 O   0  0  0  0  0  0  0  0  0  0  0  0
  -50.1110   -9.5620   41.7440 O   0  0  0  0  0  0  0  0  0  0  0  0
  -51.9240  -17.7370   43.8230 N   0  0  0  0  0  0  0  0  0  0  0  0
  -45.3550   -5.5960   41.8700 N   0  0  0  0  0  0  0  0  0  0  0  0
  -49.9290  -12.1970   37.1660 N   0  3  0  0  0  0  0  0  0  0  0  0
  -49.1470  -11.6380   39.9760 N   0  0  0  0  0  0  0  0  0  0  0  0
  -51.1600   -8.7320   42.2660 C   0  0  0  0  0  0  0  0  0  0  0  0
  -51.5110  -16.8970   43.1170 C   0  0  0  0  0  0  0  0  0  0  0  0
  -44.4440   -6.4620   41.4120 C   0  0  0  0  0  0  0  0  0  0  0  0
  -51.0610  -12.0360   36.2510 C   0  0  0  0  0  0  0  0  0  0  0  0
  -44.7490   -7.8020   41.0950 C   0  0  0  0  0  0  0  0  0  0  0  0
  -50.3490  -16.2920   41.0340 C   0  0  0  0  0  0  0  0  0  0  0  0
  -49.8590  -15.3190   40.1730 C   0  0  0  0  0  0  0  0  0  0  0  0
  -51.7990  -12.2750   38.5410 C   0  0  0  0  0  0  0  0  0  0  0  0
  -50.5960  -13.5050   41.6320 C   0  0  0  0  0  0  0  0  0  0  0  0
  -48.3970   -7.7730   41.8620 C   0  0  0  0  0  0  0  0  0  0  0  0
  -46.4360   -9.5840   40.9310 C   0  0  0  0  0  0  0  0  0  0  0  0
  -46.6240   -6.0590   42.0250 C   0  0  0  0  0  0  0  0  0  0  0  0
  -48.0500  -11.4160   40.6780 C   0  0  0  0  0  0  0  0  0  0  0  0
  -51.0960  -14.4930   42.4890 C   0  0  0  0  0  0  0  0  0  0  0  0
  -52.3130  -12.1550   37.0970 C   0  0  2  0  0  0  0  0  0  0  0  0
  -48.8030   -9.1100   41.5680 C   0  0  0  0  0  0  0  0  0  0  0  0
  -50.4420  -12.9500   38.3020 C   0  0  2  0  0  0  0  0  0  0  0  0
  -49.4350  -12.9700   39.4720 C   0  0  2  0  0  0  0  0  0  0  0  0
  -50.9790  -15.8760   42.2160 C   0  0  0  0  0  0  0  0  0  0  0  0
  -49.9660  -13.9520   40.4760 C   0  0  0  0  0  0  0  0  0  0  0  0
  -46.0590   -8.2660   41.2460 C   0  0  0  0  0  0  0  0  0  0  0  0
  -47.7930  -10.0040   41.0940 C   0  0  0  0  0  0  0  0  0  0  0  0
  -47.0400   -7.3720   41.7210 C   0  0  0  0  0  0  0  0  0  0  0  0
  -53.7150  -13.5351   37.1626 H   0  0  0  0  0  0  0  0  0  0  0  0
  -49.5920  -11.3038   37.4637 H   0  0  0  0  0  0  0  0  0  0  0  0
  -49.7810  -10.8871   39.7910 H   0  0  0  0  0  0  0  0  0  0  0  0
  -52.0106   -9.2562   42.3069 H   0  0  0  0  0  0  0  0  0  0  0  0
  -50.9144   -8.4228   43.1848 H   0  0  0  0  0  0  0  0  0  0  0  0
  -51.2855   -7.9390   41.6699 H   0  0  0  0  0  0  0  0  0  0  0  0
  -43.5037   -6.1447   41.2888 H   0  0  0  0  0  0  0  0  0  0  0  0
  -51.0459  -12.7515   35.5525 H   0  0  0  0  0  0  0  0  0  0  0  0
  -51.0250  -11.1391   35.8103 H   0  0  0  0  0  0  0  0  0  0  0  0
  -44.0326   -8.4164   40.7643 H   0  0  0  0  0  0  0  0  0  0  0  0
  -50.2552  -17.2637   40.8170 H   0  0  0  0  0  0  0  0  0  0  0  0
  -49.4204  -15.5978   39.3186 H   0  0  0  0  0  0  0  0  0  0  0  0
  -52.4009  -12.8447   39.1006 H   0  0  0  0  0  0  0  0  0  0  0  0
  -51.6943  -11.3782   38.9710 H   0  0  0  0  0  0  0  0  0  0  0  0
  -50.6871  -12.5311   41.8400 H   0  0  0  0  0  0  0  0  0  0  0  0
  -49.0772   -7.1086   42.1717 H   0  0  0  0  0  0  0  0  0  0  0  0
  -45.7522  -10.2299   40.5917 H   0  0  0  0  0  0  0  0  0  0  0  0
  -52.9327  -11.3798   36.9746 H   0  0  0  0  0  0  0  0  0  0  0  0
  -50.6049  -13.8922   38.0091 H   0  0  0  0  0  0  0  0  0  0  0  0
  -48.5778  -13.3437   39.1178 H   0  0  0  0  0  0  0  0  0  0  0  0
  -49.1892  -12.7006   36.7197 H   0  0  0  0  0  0  0  0  0  0  0  0
  1 21  1  0  0  0  0
  2 23  1  0  0  0  0
  3 22  2  0  0  0  0
  4 24  1  0  0  0  0
  5 10  1  0  0  0  0
  5 25  1  0  0  0  0
  6 11  3  0  0  0  0
  7 12  2  0  0  0  0
  7 21  1  0  0  0  0
  8 13  1  0  0  0  0
  8 26  1  0  0  0  0
  9 22  1  0  0  0  0
  9 27  1  0  0  0  0
 11 28  1  0  0  0  0
 12 14  1  0  0  0  0
 13 24  1  0  0  0  0
 14 30  2  0  0  0  0
 15 16  1  0  0  0  0
 15 28  2  0  0  0  0
 16 29  2  0  0  0  0
 17 24  1  0  0  0  0
 17 26  1  0  0  0  0
 18 23  2  0  0  0  0
 18 29  1  0  0  0  0
 19 25  2  0  0  0  0
 19 32  1  0  0  0  0
 20 30  1  0  0  0  0
 20 31  2  0  0  0  0
 21 32  2  0  0  0  0
 22 31  1  0  0  0  0
 23 28  1  0  0  0  0
 25 31  1  0  0  0  0
 26 27  1  0  0  0  0
 27 29  1  0  0  0  0
 30 32  1  0  0  0  0
  4 33  1  0  0  0  0
  8 34  1  0  0  0  0
  9 35  1  0  0  0  0
 10 36  1  0  0  0  0
 10 37  1  0  0  0  0
 10 38  1  0  0  0  0
 12 39  1  0  0  0  0
 13 40  1  0  0  0  0
 13 41  1  0  0  0  0
 14 42  1  0  0  0  0
 15 43  1  0  0  0  0
 16 44  1  0  0  0  0
 17 45  1  0  0  0  0
 17 46  1  0  0  0  0
 18 47  1  0  0  0  0
 19 48  1  0  0  0  0
 20 49  1  0  0  0  0
 24 50  1  0  0  0  0
 26 51  1  0  0  0  0
 27 52  1  0  0  0  0
  8 53  1  0  0  0  0
M  CHG  1   8   1
M  END
$$$$
5UZK_504_A_401
prProtoss 05262315233D 1   1.00000     0.00000     0
Protoss beta proteinsplus
 64 68  0  0  0  0            999 V2000
   28.0860   10.3390    1.1230 S   0  0  0  0  0  0  0  0  0  0  0  0
   25.1560   10.6490    1.0160 O   0  0  0  0  0  0  0  0  0  0  0  0
   20.5260   13.5500    1.6770 O   0  0  0  0  0  0  0  0  0  0  0  0
   20.8330    6.8690    3.7280 N   0  3  0  0  0  0  0  0  0  0  0  0
   33.1890   10.5120   -4.4400 N   0  0  0  0  0  0  0  0  0  0  0  0
   33.2710   10.3470   -1.9600 N   0  0  0  0  0  0  0  0  0  0  0  0
   26.2510   10.6340   -0.9550 N   0  0  0  0  0  0  0  0  0  0  0  0
   28.5950   10.5750   -1.3030 N   0  0  0  0  0  0  0  0  0  0  0  0
   29.7580   10.3170    0.5820 C   0  0  0  0  0  0  0  0  0  0  0  0
   20.2410   12.4510    2.5310 C   0  0  0  0  0  0  0  0  0  0  0  0
   21.2020    8.0040    4.5990 C   0  0  0  0  0  0  0  0  0  0  0  0
   20.5350    7.2300    2.3220 C   0  0  0  0  0  0  0  0  0  0  0  0
   32.3960   10.6310   -5.4990 C   0  0  0  0  0  0  0  0  0  0  0  0
   32.3190   10.3490   -0.9750 C   0  0  0  0  0  0  0  0  0  0  0  0
   18.9590   11.7500    2.0990 C   0  0  0  0  0  0  0  0  0  0  0  0
   31.0000   10.7270   -5.3590 C   0  0  0  0  0  0  0  0  0  0  0  0
   23.4620   14.6810   -0.0920 C   0  0  0  0  0  0  0  0  0  0  0  0
   20.2100    9.1750    4.5370 C   0  0  0  0  0  0  0  0  0  0  0  0
   19.5100    8.3570    2.2060 C   0  0  0  0  0  0  0  0  0  0  0  0
   22.3090   14.7020    0.6670 C   0  0  0  0  0  0  0  0  0  0  0  0
   18.7160   10.5780    3.0610 C   0  0  0  0  0  0  0  0  0  0  0  0
   23.9300   13.4850   -0.6210 C   0  0  0  0  0  0  0  0  0  0  0  0
   30.4140   10.7000   -4.0850 C   0  0  0  0  0  0  0  0  0  0  0  0
   23.8160   10.9720   -0.8860 C   0  0  0  0  0  0  0  0  0  0  0  0
   22.1440   12.2990    0.4330 C   0  0  0  0  0  0  0  0  0  0  0  0
   27.5660   10.4870   -0.5050 C   0  0  0  0  0  0  0  0  0  0  0  0
   25.1360   10.7220   -0.1960 C   0  0  0  0  0  0  0  0  0  0  0  0
   21.6680   13.5050    0.9530 C   0  0  0  0  0  0  0  0  0  0  0  0
   32.6860   10.4680   -3.1930 C   0  0  0  0  0  0  0  0  0  0  0  0
   29.8010   10.5020   -0.7510 C   0  0  0  0  0  0  0  0  0  0  0  0
   19.8800    9.5670    3.0800 C   0  0  0  0  0  0  0  0  0  0  0  0
   23.2790   12.2850   -0.3570 C   0  0  0  0  0  0  0  0  0  0  0  0
   31.0840   10.4960   -1.5100 C   0  0  0  0  0  0  0  0  0  0  0  0
   31.2760   10.5670   -2.9700 C   0  0  0  0  0  0  0  0  0  0  0  0
   20.0209    6.4322    4.1150 H   0  0  0  0  0  0  0  0  0  0  0  0
   34.2552   10.2682   -1.8013 H   0  0  0  0  0  0  0  0  0  0  0  0
   26.1210   10.6789   -1.9455 H   0  0  0  0  0  0  0  0  0  0  0  0
   30.5543   10.1872    1.1728 H   0  0  0  0  0  0  0  0  0  0  0  0
   20.1336   12.7830    3.4681 H   0  0  0  0  0  0  0  0  0  0  0  0
   20.9995   11.8005    2.4927 H   0  0  0  0  0  0  0  0  0  0  0  0
   22.1024    8.3373    4.3193 H   0  0  0  0  0  0  0  0  0  0  0  0
   21.2461    7.6768    5.5429 H   0  0  0  0  0  0  0  0  0  0  0  0
   20.1766    6.4224    1.8536 H   0  0  0  0  0  0  0  0  0  0  0  0
   21.3832    7.5225    1.8804 H   0  0  0  0  0  0  0  0  0  0  0  0
   32.7996   10.6527   -6.4137 H   0  0  0  0  0  0  0  0  0  0  0  0
   32.5095   10.2551    0.0022 H   0  0  0  0  0  0  0  0  0  0  0  0
   19.0569   11.4080    1.1644 H   0  0  0  0  0  0  0  0  0  0  0  0
   18.1912   12.3893    2.1413 H   0  0  0  0  0  0  0  0  0  0  0  0
   30.4229   10.8149   -6.1709 H   0  0  0  0  0  0  0  0  0  0  0  0
   23.9622   15.5302   -0.2616 H   0  0  0  0  0  0  0  0  0  0  0  0
   20.6108    9.9643    5.0022 H   0  0  0  0  0  0  0  0  0  0  0  0
   19.3648    8.9087    5.0004 H   0  0  0  0  0  0  0  0  0  0  0  0
   18.6170    8.0117    2.4946 H   0  0  0  0  0  0  0  0  0  0  0  0
   19.4610    8.6515    1.2516 H   0  0  0  0  0  0  0  0  0  0  0  0
   21.9409   15.5678    1.0060 H   0  0  0  0  0  0  0  0  0  0  0  0
   17.8835   10.1010    2.7791 H   0  0  0  0  0  0  0  0  0  0  0  0
   18.5949   10.9427    3.9842 H   0  0  0  0  0  0  0  0  0  0  0  0
   24.7458   13.4870   -1.1993 H   0  0  0  0  0  0  0  0  0  0  0  0
   29.4234   10.7721   -3.9686 H   0  0  0  0  0  0  0  0  0  0  0  0
   23.1758   10.2318   -0.6804 H   0  0  0  0  0  0  0  0  0  0  0  0
   23.9516   11.0304   -1.8750 H   0  0  0  0  0  0  0  0  0  0  0  0
   21.6635   11.4449    0.6322 H   0  0  0  0  0  0  0  0  0  0  0  0
   20.6853   10.0072    2.6828 H   0  0  0  0  0  0  0  0  0  0  0  0
   21.5928    6.2188    3.7270 H   0  0  0  0  0  0  0  0  0  0  0  0
  1  9  1  0  0  0  0
  1 26  1  0  0  0  0
  2 27  2  0  0  0  0
  3 10  1  0  0  0  0
  3 28  1  0  0  0  0
  4 11  1  0  0  0  0
  4 12  1  0  0  0  0
  5 13  1  0  0  0  0
  5 29  2  0  0  0  0
  6 14  1  0  0  0  0
  6 29  1  0  0  0  0
  7 26  1  0  0  0  0
  7 27  1  0  0  0  0
  8 26  2  0  0  0  0
  8 30  1  0  0  0  0
  9 30  2  0  0  0  0
 10 15  1  0  0  0  0
 11 18  1  0  0  0  0
 12 19  1  0  0  0  0
 13 16  2  0  0  0  0
 14 33  2  0  0  0  0
 15 21  1  0  0  0  0
 16 23  1  0  0  0  0
 17 20  2  0  0  0  0
 17 22  1  0  0  0  0
 18 31  1  0  0  0  0
 19 31  1  0  0  0  0
 20 28  1  0  0  0  0
 21 31  1  0  0  0  0
 22 32  2  0  0  0  0
 23 34  2  0  0  0  0
 24 27  1  0  0  0  0
 24 32  1  0  0  0  0
 25 28  2  0  0  0  0
 25 32  1  0  0  0  0
 29 34  1  0  0  0  0
 30 33  1  0  0  0  0
 33 34  1  0  0  0  0
  4 35  1  0  0  0  0
  6 36  1  0  0  0  0
  7 37  1  0  0  0  0
  9 38  1  0  0  0  0
 10 39  1  0  0  0  0
 10 40  1  0  0  0  0
 11 41  1  0  0  0  0
 11 42  1  0  0  0  0
 12 43  1  0  0  0  0
 12 44  1  0  0  0  0
 13 45  1  0  0  0  0
 14 46  1  0  0  0  0
 15 47  1  0  0  0  0
 15 48  1  0  0  0  0
 16 49  1  0  0  0  0
 17 50  1  0  0  0  0
 18 51  1  0  0  0  0
 18 52  1  0  0  0  0
 19 53  1  0  0  0  0
 19 54  1  0  0  0  0
 20 55  1  0  0  0  0
 21 56  1  0  0  0  0
 21 57  1  0  0  0  0
 22 58  1  0  0  0  0
 23 59  1  0  0  0  0
 24 60  1  0  0  0  0
 24 61  1  0  0  0  0
 25 62  1  0  0  0  0
 31 63  1  0  0  0  0
  4 64  1  0  0  0  0
M  CHG  1   4   1
M  END
$$$$
4IAC_ACP_A_403
prProtoss 05262315383D 1   1.00000     0.00000     0
Protoss beta proteinsplus
 45 47  0  0  0  0            999 V2000
   -5.0760   10.5030  -13.6580 P   0  0  0  0  0  0  0  0  0  0  0  0
   -0.7890   11.0490  -16.0130 P   0  0  0  0  0  0  0  0  0  0  0  0
   -2.3300   11.4980  -13.3430 P   0  0  0  0  0  0  0  0  0  0  0  0
   -6.0350   11.6130  -13.3670 O   0  0  0  0  0  0  0  0  0  0  0  0
   -4.8340   10.1700  -15.0700 O   0  5  0  0  0  0  0  0  0  0  0  0
    0.6090   10.5070  -16.1540 O   0  0  0  0  0  0  0  0  0  0  0  0
   -1.5630   10.5960  -17.2030 O   0  5  0  0  0  0  0  0  0  0  0  0
   -0.7100   12.5220  -15.8960 O   0  5  0  0  0  0  0  0  0  0  0  0
   -2.8260   12.6880  -14.0480 O   0  0  0  0  0  0  0  0  0  0  0  0
   -1.4600   11.6750  -12.1390 O   0  5  0  0  0  0  0  0  0  0  0  0
   -7.0580    4.4710  -14.4830 O   0  0  0  0  0  0  0  0  0  0  0  0
   -5.6000    6.4900  -15.7990 O   0  0  0  0  0  0  0  0  0  0  0  0
   -3.6740   10.7350  -12.8650 O   0  0  0  0  0  0  0  0  0  0  0  0
   -5.5950    9.1600  -12.9440 O   0  0  0  0  0  0  0  0  0  0  0  0
   -6.6670    6.6370  -12.3220 O   0  0  0  0  0  0  0  0  0  0  0  0
  -13.2150    8.9990  -12.0680 N   0  0  0  0  0  0  0  0  0  0  0  0
  -12.9730    6.6390  -12.1420 N   0  0  0  0  0  0  0  0  0  0  0  0
  -10.8760    5.5690  -12.4700 N   0  0  0  0  0  0  0  0  0  0  0  0
  -10.0820    9.0530  -12.5350 N   0  0  0  0  0  0  0  0  0  0  0  0
   -8.9530    7.1210  -12.7320 N   0  0  0  0  0  0  0  0  0  0  0  0
   -1.5570   10.3150  -14.5190 C   0  0  0  0  0  0  0  0  0  0  0  0
   -4.7820    7.9810  -13.0290 C   0  0  0  0  0  0  0  0  0  0  0  0
  -12.2170    5.5160  -12.2730 C   0  0  0  0  0  0  0  0  0  0  0  0
   -8.8700    8.4810  -12.7240 C   0  0  0  0  0  0  0  0  0  0  0  0
   -7.5210    5.8260  -14.3470 C   0  0  2  0  0  0  0  0  0  0  0  0
   -6.4200    6.8080  -14.6630 C   0  0  1  0  0  0  0  0  0  0  0  0
   -7.8610    6.1160  -12.9070 C   0  0  1  0  0  0  0  0  0  0  0  0
  -12.4360    7.8990  -12.2020 C   0  0  0  0  0  0  0  0  0  0  0  0
   -5.6430    6.7680  -13.3290 C   0  0  2  0  0  0  0  0  0  0  0  0
  -10.2150    6.7740  -12.5500 C   0  0  0  0  0  0  0  0  0  0  0  0
  -10.9730    8.0420  -12.4170 C   0  0  0  0  0  0  0  0  0  0  0  0
   -6.7503    4.3165  -15.4219 H   0  0  0  0  0  0  0  0  0  0  0  0
   -6.1709    6.4396  -16.6185 H   0  0  0  0  0  0  0  0  0  0  0  0
  -12.8057    9.9102  -12.1145 H   0  0  0  0  0  0  0  0  0  0  0  0
  -14.1994    8.8999  -11.9226 H   0  0  0  0  0  0  0  0  0  0  0  0
   -0.8466    9.8135  -14.0252 H   0  0  0  0  0  0  0  0  0  0  0  0
   -2.2658    9.6777  -14.8215 H   0  0  0  0  0  0  0  0  0  0  0  0
   -4.3092    7.8429  -12.1587 H   0  0  0  0  0  0  0  0  0  0  0  0
   -4.1088    8.0965  -13.7594 H   0  0  0  0  0  0  0  0  0  0  0  0
  -12.6640    4.6229  -12.2225 H   0  0  0  0  0  0  0  0  0  0  0  0
   -8.0193    8.9929  -12.8430 H   0  0  0  0  0  0  0  0  0  0  0  0
   -8.3142    5.9867  -14.9344 H   0  0  0  0  0  0  0  0  0  0  0  0
   -6.8157    7.7180  -14.7867 H   0  0  0  0  0  0  0  0  0  0  0  0
   -8.1141    5.2652  -12.4464 H   0  0  0  0  0  0  0  0  0  0  0  0
   -5.0673    5.9504  -13.3138 H   0  0  0  0  0  0  0  0  0  0  0  0
  1  4  2  0  0  0  0
  1  5  1  0  0  0  0
  1 13  1  0  0  0  0
  1 14  1  0  0  0  0
  2  6  2  0  0  0  0
  2  7  1  0  0  0  0
  2  8  1  0  0  0  0
  2 21  1  0  0  0  0
  3  9  2  0  0  0  0
  3 10  1  0  0  0  0
  3 13  1  0  0  0  0
  3 21  1  0  0  0  0
 11 25  1  0  0  0  0
 12 26  1  0  0  0  0
 14 22  1  0  0  0  0
 15 27  1  0  0  0  0
 15 29  1  0  0  0  0
 16 28  1  0  0  0  0
 17 23  1  0  0  0  0
 17 28  2  0  0  0  0
 18 23  2  0  0  0  0
 18 30  1  0  0  0  0
 19 24  2  0  0  0  0
 19 31  1  0  0  0  0
 20 24  1  0  0  0  0
 20 27  1  0  0  0  0
 20 30  1  0  0  0  0
 22 29  1  0  0  0  0
 25 26  1  0  0  0  0
 25 27  1  0  0  0  0
 26 29  1  0  0  0  0
 28 31  1  0  0  0  0
 30 31  2  0  0  0  0
 29 45  1  0  0  0  0
 27 44  1  0  0  0  0
 26 43  1  0  0  0  0
 25 42  1  0  0  0  0
 11 32  1  0  0  0  0
 12 33  1  0  0  0  0
 16 34  1  0  0  0  0
 16 35  1  0  0  0  0
 21 36  1  0  0  0  0
 21 37  1  0  0  0  0
 22 38  1  0  0  0  0
 22 39  1  0  0  0  0
 23 40  1  0  0  0  0
 24 41  1  0  0  0  0
M  CHG  4   5  -1   7  -1   8  -1  10  -1
M  END
$$$$
1CDK_ANP_A_400
prProtoss 03052318073D 1   1.00000     0.00000     0
Protoss beta proteinsplus
 44 46  0  0  0  0            999 V2000
   72.6830   29.2860   35.3860 P   0  0  0  0  0  0  0  0  0  0  0  0
   73.7080   28.5090   30.8190 P   0  0  0  0  0  0  0  0  0  0  0  0
   71.6990   28.2690   32.9070 P   0  0  0  0  0  0  0  0  0  0  0  0
   72.6800   28.1990   36.3800 O   0  0  0  0  0  0  0  0  0  0  0  0
   73.9770   29.6690   34.7210 O   0  5  0  0  0  0  0  0  0  0  0  0
   73.4640   26.9890   30.8180 O   0  0  0  0  0  0  0  0  0  0  0  0
   75.0790   28.9340   31.2000 O   0  5  0  0  0  0  0  0  0  0  0  0
   73.2330   29.1380   29.5960 O   0  5  0  0  0  0  0  0  0  0  0  0
   70.4520   28.4060   32.1830 O   0  0  0  0  0  0  0  0  0  0  0  0
   72.2120   26.9290   33.2560 O   0  5  0  0  0  0  0  0  0  0  0  0
   74.3010   34.9730   37.2660 O   0  0  0  0  0  0  0  0  0  0  0  0
   74.7270   33.1490   35.3510 O   0  0  0  0  0  0  0  0  0  0  0  0
   71.5280   29.0790   34.2850 O   0  0  0  0  0  0  0  0  0  0  0  0
   72.0920   30.5650   36.1560 O   0  0  0  0  0  0  0  0  0  0  0  0
   71.8270   33.0980   37.4870 O   0  0  0  0  0  0  0  0  0  0  0  0
   73.5880   30.6340   43.6550 N   0  0  0  0  0  0  0  0  0  0  0  0
   72.8480   29.1110   32.0680 N   0  0  0  0  0  0  0  0  0  0  0  0
   73.5080   32.9610   43.4630 N   0  0  0  0  0  0  0  0  0  0  0  0
   73.1320   34.0970   41.3900 N   0  0  0  0  0  0  0  0  0  0  0  0
   73.2570   30.5960   40.6190 N   0  0  0  0  0  0  0  0  0  0  0  0
   72.9390   32.5290   39.5320 N   0  0  0  0  0  0  0  0  0  0  0  0
   71.8310   31.7820   35.4420 C   0  0  0  0  0  0  0  0  0  0  0  0
   73.3330   34.0360   42.6990 C   0  0  0  0  0  0  0  0  0  0  0  0
   72.9970   31.1550   39.4770 C   0  0  0  0  0  0  0  0  0  0  0  0
   74.1540   33.6050   37.6720 C   0  0  2  0  0  0  0  0  0  0  0  0
   73.9220   32.7540   36.4570 C   0  0  1  0  0  0  0  0  0  0  0  0
   72.8380   33.4860   38.4360 C   0  0  1  0  0  0  0  0  0  0  0  0
   73.4950   31.7290   42.8930 C   0  0  0  0  0  0  0  0  0  0  0  0
   72.4350   32.9510   36.1900 C   0  0  2  0  0  0  0  0  0  0  0  0
   73.1490   32.8500   40.8500 C   0  0  0  0  0  0  0  0  0  0  0  0
   73.3300   31.6690   41.5060 C   0  0  0  0  0  0  0  0  0  0  0  0
   74.6956   35.0076   36.3478 H   0  0  0  0  0  0  0  0  0  0  0  0
   75.6930   33.0745   35.5984 H   0  0  0  0  0  0  0  0  0  0  0  0
   73.5781   29.7280   43.2318 H   0  0  0  0  0  0  0  0  0  0  0  0
   73.6674   30.7212   44.6480 H   0  0  0  0  0  0  0  0  0  0  0  0
   72.3801   29.9181   31.7078 H   0  0  0  0  0  0  0  0  0  0  0  0
   70.8432   31.9142   35.3602 H   0  0  0  0  0  0  0  0  0  0  0  0
   72.2365   31.7258   34.5296 H   0  0  0  0  0  0  0  0  0  0  0  0
   73.3562   34.9149   43.1755 H   0  0  0  0  0  0  0  0  0  0  0  0
   72.8522   30.6355   38.6349 H   0  0  0  0  0  0  0  0  0  0  0  0
   74.9332   33.2865   38.2119 H   0  0  0  0  0  0  0  0  0  0  0  0
   74.1004   31.7952   36.6782 H   0  0  0  0  0  0  0  0  0  0  0  0
   72.6010   34.3821   38.8113 H   0  0  0  0  0  0  0  0  0  0  0  0
   72.2999   33.7895   35.6621 H   0  0  0  0  0  0  0  0  0  0  0  0
  1  4  2  0  0  0  0
  1  5  1  0  0  0  0
  1 13  1  0  0  0  0
  1 14  1  0  0  0  0
  2  6  2  0  0  0  0
  2  7  1  0  0  0  0
  2  8  1  0  0  0  0
  2 17  1  0  0  0  0
  3  9  2  0  0  0  0
  3 10  1  0  0  0  0
  3 13  1  0  0  0  0
  3 17  1  0  0  0  0
 11 25  1  0  0  0  0
 12 26  1  0  0  0  0
 14 22  1  0  0  0  0
 15 27  1  0  0  0  0
 15 29  1  0  0  0  0
 16 28  1  0  0  0  0
 18 23  1  0  0  0  0
 18 28  2  0  0  0  0
 19 23  2  0  0  0  0
 19 30  1  0  0  0  0
 20 24  2  0  0  0  0
 20 31  1  0  0  0  0
 21 24  1  0  0  0  0
 21 27  1  0  0  0  0
 21 30  1  0  0  0  0
 22 29  1  0  0  0  0
 25 26  1  0  0  0  0
 25 27  1  0  0  0  0
 26 29  1  0  0  0  0
 28 31  1  0  0  0  0
 30 31  2  0  0  0  0
 29 44  1  0  0  0  0
 27 43  1  0  0  0  0
 26 42  1  0  0  0  0
 25 41  1  0  0  0  0
 11 32  1  0  0  0  0
 12 33  1  0  0  0  0
 16 34  1  0  0  0  0
 16 35  1  0  0  0  0
 17 36  1  0  0  0  0
 22 37  1  0  0  0  0
 22 38  1  0  0  0  0
 23 39  1  0  0  0  0
 24 40  1  0  0  0  0
M  CHG  4   5  -1   7  -1   8  -1  10  -1
M  END
$$$$
1CDK_MYR_A_403
prProtoss 03052318073D 1   1.00000     0.00000     0
Protoss beta proteinsplus
 20 19  0  0  0  0            999 V2000
   93.9540   20.0320   52.4800 C   0  0  0  0  0  0  0  0  0  0  0  0
   91.5940   19.2910   46.5220 C   0  0  0  0  0  0  0  0  0  0  0  0
   92.8130   19.7940   51.4930 C   0  0  0  0  0  0  0  0  0  0  0  0
   92.4400   19.9470   47.6130 C   0  0  0  0  0  0  0  0  0  0  0  0
   93.0590   20.2750   50.0740 C   0  0  0  0  0  0  0  0  0  0  0  0
   91.9480   19.8400   49.0850 C   0  0  0  0  0  0  0  0  0  0  0  0
   93.6947   19.6818   53.3801 H   0  0  0  0  0  0  0  0  0  0  0  0
   94.7746   19.5575   52.1615 H   0  0  0  0  0  0  0  0  0  0  0  0
   94.1398   21.0125   52.5446 H   0  0  0  0  0  0  0  0  0  0  0  0
   92.0259   19.4374   45.6321 H   0  0  0  0  0  0  0  0  0  0  0  0
   91.5225   18.3097   46.7005 H   0  0  0  0  0  0  0  0  0  0  0  0
   90.6800   19.6968   46.5197 H   0  0  0  0  0  0  0  0  0  0  0  0
   92.0025   20.2651   51.8410 H   0  0  0  0  0  0  0  0  0  0  0  0
   92.6373   18.8102   51.4578 H   0  0  0  0  0  0  0  0  0  0  0  0
   92.5068   20.9200   47.3922 H   0  0  0  0  0  0  0  0  0  0  0  0
   93.3493   19.5329   47.5730 H   0  0  0  0  0  0  0  0  0  0  0  0
   93.9310   19.9015   49.7578 H   0  0  0  0  0  0  0  0  0  0  0  0
   93.1068   21.2738   50.0801 H   0  0  0  0  0  0  0  0  0  0  0  0
   91.6923   18.8924   49.2764 H   0  0  0  0  0  0  0  0  0  0  0  0
   91.1511   20.4315   49.2074 H   0  0  0  0  0  0  0  0  0  0  0  0
  1  3  1  0  0  0  0
  2  4  1  0  0  0  0
  3  5  1  0  0  0  0
  4  6  1  0  0  0  0
  5  6  1  0  0  0  0
  1  7  1  0  0  0  0
  1  8  1  0  0  0  0
  1  9  1  0  0  0  0
  2 10  1  0  0  0  0
  2 11  1  0  0  0  0
  2 12  1  0  0  0  0
  3 13  1  0  0  0  0
  3 14  1  0  0  0  0
  4 15  1  0  0  0  0
  4 16  1  0  0  0  0
  5 17  1  0  0  0  0
  5 18  1  0  0  0  0
  6 19  1  0  0  0  0
  6 20  1  0  0  0  0
M  END
$$$$
1CDK_ANP_B_400
prProtoss 03052318073D 1   1.00000     0.00000     0
Protoss beta proteinsplus
 44 46  0  0  0  0            999 V2000
   18.6620    2.0630   35.1080 P   0  0  0  0  0  0  0  0  0  0  0  0
   19.8560    1.3220   30.6000 P   0  0  0  0  0  0  0  0  0  0  0  0
   17.7480    1.0330   32.5870 P   0  0  0  0  0  0  0  0  0  0  0  0
   18.6070    0.9810   36.1140 O   0  0  0  0  0  0  0  0  0  0  0  0
   19.9790    2.4730   34.5140 O   0  5  0  0  0  0  0  0  0  0  0  0
   19.6240   -0.1850   30.6040 O   0  0  0  0  0  0  0  0  0  0  0  0
   21.2370    1.8030   30.9420 O   0  5  0  0  0  0  0  0  0  0  0  0
   19.3350    1.9370   29.3760 O   0  5  0  0  0  0  0  0  0  0  0  0
   16.5200    1.2530   31.8210 O   0  0  0  0  0  0  0  0  0  0  0  0
   18.1830   -0.3350   32.9110 O   0  5  0  0  0  0  0  0  0  0  0  0
   20.0660    7.9310   36.8050 O   0  0  0  0  0  0  0  0  0  0  0  0
   20.5470    6.1090   34.8970 O   0  0  0  0  0  0  0  0  0  0  0  0
   17.5420    1.8020   33.9630 O   0  0  0  0  0  0  0  0  0  0  0  0
   18.0070    3.3490   35.8100 O   0  0  0  0  0  0  0  0  0  0  0  0
   17.6640    5.8780   37.0830 O   0  0  0  0  0  0  0  0  0  0  0  0
   19.2580    3.6400   43.2950 N   0  0  0  0  0  0  0  0  0  0  0  0
   18.9940    1.8720   31.8720 N   0  0  0  0  0  0  0  0  0  0  0  0
   19.2250    5.9710   43.0540 N   0  0  0  0  0  0  0  0  0  0  0  0
   18.9980    7.0810   40.9440 N   0  0  0  0  0  0  0  0  0  0  0  0
   19.0600    3.5500   40.2420 N   0  0  0  0  0  0  0  0  0  0  0  0
   18.8440    5.4640   39.1010 N   0  0  0  0  0  0  0  0  0  0  0  0
   17.7580    4.5360   35.0420 C   0  0  0  0  0  0  0  0  0  0  0  0
   19.1480    7.0380   42.2590 C   0  0  0  0  0  0  0  0  0  0  0  0
   18.8910    4.0900   39.0680 C   0  0  0  0  0  0  0  0  0  0  0  0
   19.9590    6.5610   37.2300 C   0  0  2  0  0  0  0  0  0  0  0  0
   19.7740    5.6750   36.0260 C   0  0  1  0  0  0  0  0  0  0  0  0
   18.6540    6.3870   38.0060 C   0  0  1  0  0  0  0  0  0  0  0  0
   19.1980    4.7240   42.5050 C   0  0  0  0  0  0  0  0  0  0  0  0
   18.2800    5.7520   35.7770 C   0  0  2  0  0  0  0  0  0  0  0  0
   19.0010    5.8130   40.4240 C   0  0  0  0  0  0  0  0  0  0  0  0
   19.1080    4.6360   41.1100 C   0  0  0  0  0  0  0  0  0  0  0  0
   20.8516    8.0301   36.1942 H   0  0  0  0  0  0  0  0  0  0  0  0
   21.5180    6.1034   35.1359 H   0  0  0  0  0  0  0  0  0  0  0  0
   19.2381    2.7253   42.8913 H   0  0  0  0  0  0  0  0  0  0  0  0
   19.3226    3.7473   44.2871 H   0  0  0  0  0  0  0  0  0  0  0  0
   18.5996    2.7419   31.5758 H   0  0  0  0  0  0  0  0  0  0  0  0
   16.7736    4.6351   34.8965 H   0  0  0  0  0  0  0  0  0  0  0  0
   18.2196    4.4607   34.1581 H   0  0  0  0  0  0  0  0  0  0  0  0
   19.2121    7.9247   42.7168 H   0  0  0  0  0  0  0  0  0  0  0  0
   18.8041    3.5576   38.2260 H   0  0  0  0  0  0  0  0  0  0  0  0
   20.7503    6.2818   37.7739 H   0  0  0  0  0  0  0  0  0  0  0  0
   20.0251    4.7360   36.2611 H   0  0  0  0  0  0  0  0  0  0  0  0
   18.3557    7.2725   38.3623 H   0  0  0  0  0  0  0  0  0  0  0  0
   18.0791    6.5710   35.2395 H   0  0  0  0  0  0  0  0  0  0  0  0
  1  4  2  0  0  0  0
  1  5  1  0  0  0  0
  1 13  1  0  0  0  0
  1 14  1  0  0  0  0
  2  6  2  0  0  0  0
  2  7  1  0  0  0  0
  2  8  1  0  0  0  0
  2 17  1  0  0  0  0
  3  9  2  0  0  0  0
  3 10  1  0  0  0  0
  3 13  1  0  0  0  0
  3 17  1  0  0  0  0
 11 25  1  0  0  0  0
 12 26  1  0  0  0  0
 14 22  1  0  0  0  0
 15 27  1  0  0  0  0
 15 29  1  0  0  0  0
 16 28  1  0  0  0  0
 18 23  1  0  0  0  0
 18 28  2  0  0  0  0
 19 23  2  0  0  0  0
 19 30  1  0  0  0  0
 20 24  2  0  0  0  0
 20 31  1  0  0  0  0
 21 24  1  0  0  0  0
 21 27  1  0  0  0  0
 21 30  1  0  0  0  0
 22 29  1  0  0  0  0
 25 26  1  0  0  0  0
 25 27  1  0  0  0  0
 26 29  1  0  0  0  0
 28 31  1  0  0  0  0
 30 31  2  0  0  0  0
 29 44  1  0  0  0  0
 27 43  1  0  0  0  0
 26 42  1  0  0  0  0
 25 41  1  0  0  0  0
 11 32  1  0  0  0  0
 12 33  1  0  0  0  0
 16 34  1  0  0  0  0
 16 35  1  0  0  0  0
 17 36  1  0  0  0  0
 22 37  1  0  0  0  0
 22 38  1  0  0  0  0
 23 39  1  0  0  0  0
 24 40  1  0  0  0  0
M  CHG  4   5  -1   7  -1   8  -1  10  -1
M  END
$$$$
1CDK_MYR_B_403
prProtoss 03052318073D 1   1.00000     0.00000     0
Protoss beta proteinsplus
 20 19  0  0  0  0            999 V2000
   39.3170   -6.7570   52.2750 C   0  0  0  0  0  0  0  0  0  0  0  0
   37.2750   -7.7380   46.3200 C   0  0  0  0  0  0  0  0  0  0  0  0
   39.4830   -6.2810   50.8000 C   0  0  0  0  0  0  0  0  0  0  0  0
   37.2630   -7.1990   47.7180 C   0  0  0  0  0  0  0  0  0  0  0  0
   38.2920   -6.6990   49.9410 C   0  0  0  0  0  0  0  0  0  0  0  0
   38.5920   -7.0360   48.4590 C   0  0  0  0  0  0  0  0  0  0  0  0
   40.1111   -6.4683   52.8098 H   0  0  0  0  0  0  0  0  0  0  0  0
   38.4887   -6.3539   52.6641 H   0  0  0  0  0  0  0  0  0  0  0  0
   39.2447   -7.7541   52.2973 H   0  0  0  0  0  0  0  0  0  0  0  0
   36.3383   -7.7855   45.9730 H   0  0  0  0  0  0  0  0  0  0  0  0
   37.8171   -7.1349   45.7349 H   0  0  0  0  0  0  0  0  0  0  0  0
   37.6776   -8.6534   46.3191 H   0  0  0  0  0  0  0  0  0  0  0  0
   40.3154   -6.6842   50.4199 H   0  0  0  0  0  0  0  0  0  0  0  0
   39.5595   -5.2840   50.7867 H   0  0  0  0  0  0  0  0  0  0  0  0
   36.6955   -7.8145   48.2650 H   0  0  0  0  0  0  0  0  0  0  0  0
   36.8351   -6.2960   47.6807 H   0  0  0  0  0  0  0  0  0  0  0  0
   37.6302   -5.9494   49.9540 H   0  0  0  0  0  0  0  0  0  0  0  0
   37.8849   -7.5103   50.3605 H   0  0  0  0  0  0  0  0  0  0  0  0
   39.1201   -6.2946   48.0449 H   0  0  0  0  0  0  0  0  0  0  0  0
   39.1142   -7.8872   48.4059 H   0  0  0  0  0  0  0  0  0  0  0  0
  1  3  1  0  0  0  0
  2  4  1  0  0  0  0
  3  5  1  0  0  0  0
  4  6  1  0  0  0  0
  5  6  1  0  0  0  0
  1  7  1  0  0  0  0
  1  8  1  0  0  0  0
  1  9  1  0  0  0  0
  2 10  1  0  0  0  0
  2 11  1  0  0  0  0
  2 12  1  0  0  0  0
  3 13  1  0  0  0  0
  3 14  1  0  0  0  0
  4 15  1  0  0  0  0
  4 16  1  0  0  0  0
  5 17  1  0  0  0  0
  5 18  1  0  0  0  0
  6 19  1  0  0  0  0
  6 20  1  0  0  0  0
M  END
$$$$
4DFX_ANP_E_402
prProtoss 03062300513D 1   1.00000     0.00000     0
Protoss beta proteinsplus
 44 46  0  0  0  0            999 V2000
   -2.3470    2.1000  -17.8030 P   0  0  0  0  0  0  0  0  0  0  0  0
    1.1250    2.5000  -21.1120 P   0  0  0  0  0  0  0  0  0  0  0  0
    0.4380    2.9370  -18.2220 P   0  0  0  0  0  0  0  0  0  0  0  0
   -3.1080    3.2530  -17.2610 O   0  0  0  0  0  0  0  0  0  0  0  0
   -2.5100    1.7260  -19.2350 O   0  5  0  0  0  0  0  0  0  0  0  0
    2.4340    1.8090  -21.4230 O   0  0  0  0  0  0  0  0  0  0  0  0
   -0.0140    2.0610  -22.0370 O   0  5  0  0  0  0  0  0  0  0  0  0
    1.2690    4.0140  -21.0650 O   0  5  0  0  0  0  0  0  0  0  0  0
    0.0340    4.3320  -18.5730 O   0  0  0  0  0  0  0  0  0  0  0  0
    1.6000    2.7640  -17.2850 O   0  5  0  0  0  0  0  0  0  0  0  0
   -4.4900   -3.8260  -17.9600 O   0  0  0  0  0  0  0  0  0  0  0  0
   -3.3710   -1.8340  -19.5900 O   0  0  0  0  0  0  0  0  0  0  0  0
   -0.7830    2.2570  -17.4230 O   0  0  0  0  0  0  0  0  0  0  0  0
   -2.7370    0.8570  -16.8870 O   0  0  0  0  0  0  0  0  0  0  0  0
   -3.6270   -1.6990  -15.9900 O   0  0  0  0  0  0  0  0  0  0  0  0
   -9.7090    0.7840  -14.0790 N   0  0  0  0  0  0  0  0  0  0  0  0
    0.6140    2.0500  -19.5910 N   0  0  0  0  0  0  0  0  0  0  0  0
   -9.5090   -1.5590  -14.1260 N   0  0  0  0  0  0  0  0  0  0  0  0
   -7.6360   -2.7280  -14.9880 N   0  0  0  0  0  0  0  0  0  0  0  0
   -6.8890    0.7320  -15.4370 N   0  0  0  0  0  0  0  0  0  0  0  0
   -5.8980   -1.2230  -15.8690 N   0  0  0  0  0  0  0  0  0  0  0  0
   -1.9730   -0.3340  -17.0740 C   0  0  0  0  0  0  0  0  0  0  0  0
   -8.8550   -2.6970  -14.4220 C   0  0  0  0  0  0  0  0  0  0  0  0
   -5.7910    0.1260  -15.9420 C   0  0  0  0  0  0  0  0  0  0  0  0
   -4.9530   -2.4830  -17.7950 C   0  0  2  0  0  0  0  0  0  0  0  0
   -3.9360   -1.4770  -18.3190 C   0  0  1  0  0  0  0  0  0  0  0  0
   -4.9150   -2.2250  -16.3030 C   0  0  1  0  0  0  0  0  0  0  0  0
   -9.0130   -0.3330  -14.3800 C   0  0  0  0  0  0  0  0  0  0  0  0
   -2.8890   -1.5390  -17.2100 C   0  0  2  0  0  0  0  0  0  0  0  0
   -7.0530   -1.5400  -15.2900 C   0  0  0  0  0  0  0  0  0  0  0  0
   -7.7030   -0.2660  -15.0190 C   0  0  0  0  0  0  0  0  0  0  0  0
   -4.3345   -4.0080  -18.9309 H   0  0  0  0  0  0  0  0  0  0  0  0
   -4.0997   -1.9022  -20.2714 H   0  0  0  0  0  0  0  0  0  0  0  0
   -9.3203    1.6839  -14.2769 H   0  0  0  0  0  0  0  0  0  0  0  0
  -10.6132    0.7115  -13.6582 H   0  0  0  0  0  0  0  0  0  0  0  0
    1.2477    1.3224  -19.3282 H   0  0  0  0  0  0  0  0  0  0  0  0
   -1.3709   -0.4657  -16.2865 H   0  0  0  0  0  0  0  0  0  0  0  0
   -1.4219   -0.2444  -17.9036 H   0  0  0  0  0  0  0  0  0  0  0  0
   -9.2999   -3.5670  -14.2094 H   0  0  0  0  0  0  0  0  0  0  0  0
   -5.0022    0.6104  -16.3203 H   0  0  0  0  0  0  0  0  0  0  0  0
   -5.8637   -2.3428  -18.1835 H   0  0  0  0  0  0  0  0  0  0  0  0
   -4.3415   -0.5640  -18.3632 H   0  0  0  0  0  0  0  0  0  0  0  0
   -5.0615   -3.0809  -15.8070 H   0  0  0  0  0  0  0  0  0  0  0  0
   -2.3252   -2.3530  -17.3499 H   0  0  0  0  0  0  0  0  0  0  0  0
  1  4  2  0  0  0  0
  1  5  1  0  0  0  0
  1 13  1  0  0  0  0
  1 14  1  0  0  0  0
  2  6  2  0  0  0  0
  2  7  1  0  0  0  0
  2  8  1  0  0  0  0
  2 17  1  0  0  0  0
  3  9  2  0  0  0  0
  3 10  1  0  0  0  0
  3 13  1  0  0  0  0
  3 17  1  0  0  0  0
 11 25  1  0  0  0  0
 12 26  1  0  0  0  0
 14 22  1  0  0  0  0
 15 27  1  0  0  0  0
 15 29  1  0  0  0  0
 16 28  1  0  0  0  0
 18 23  1  0  0  0  0
 18 28  2  0  0  0  0
 19 23  2  0  0  0  0
 19 30  1  0  0  0  0
 20 24  2  0  0  0  0
 20 31  1  0  0  0  0
 21 24  1  0  0  0  0
 21 27  1  0  0  0  0
 21 30  1  0  0  0  0
 22 29  1  0  0  0  0
 25 26  1  0  0  0  0
 25 27  1  0  0  0  0
 26 29  1  0  0  0  0
 28 31  1  0  0  0  0
 30 31  2  0  0  0  0
 29 44  1  0  0  0  0
 27 43  1  0  0  0  0
 26 42  1  0  0  0  0
 25 41  1  0  0  0  0
 11 32  1  0  0  0  0
 12 33  1  0  0  0  0
 16 34  1  0  0  0  0
 16 35  1  0  0  0  0
 17 36  1  0  0  0  0
 22 37  1  0  0  0  0
 22 38  1  0  0  0  0
 23 39  1  0  0  0  0
 24 40  1  0  0  0  0
M  CHG  4   5  -1   7  -1   8  -1  10  -1
M  END
$$$$
4DFX_GOL_E_405
prProtoss 03062300513D 1   1.00000     0.00000     0
Protoss beta proteinsplus
 14 13  0  0  0  0            999 V2000
   -8.5610   12.9680    2.7490 O   0  0  0  0  0  0  0  0  0  0  0  0
  -10.7890    9.8520    4.1470 O   0  0  0  0  0  0  0  0  0  0  0  0
   -9.1210   11.7120    4.9840 O   0  0  0  0  0  0  0  0  0  0  0  0
   -7.8560   11.7630    2.9550 C   0  0  0  0  0  0  0  0  0  0  0  0
   -9.7780   10.2080    3.2320 C   0  0  0  0  0  0  0  0  0  0  0  0
   -8.6200   10.8940    3.9470 C   0  0  0  0  0  0  0  0  0  0  0  0
   -8.3865   13.3021    1.8228 H   0  0  0  0  0  0  0  0  0  0  0  0
  -11.1318   10.6741    4.6015 H   0  0  0  0  0  0  0  0  0  0  0  0
   -9.7337   12.4016    4.5980 H   0  0  0  0  0  0  0  0  0  0  0  0
   -6.9473   11.9661    3.3198 H   0  0  0  0  0  0  0  0  0  0  0  0
   -7.7652   11.2766    2.0860 H   0  0  0  0  0  0  0  0  0  0  0  0
  -10.1582   10.8322    2.5495 H   0  0  0  0  0  0  0  0  0  0  0  0
   -9.4409    9.3831    2.7782 H   0  0  0  0  0  0  0  0  0  0  0  0
   -8.0064   10.2039    4.3307 H   0  0  0  0  0  0  0  0  0  0  0  0
  1  4  1  0  0  0  0
  2  5  1  0  0  0  0
  3  6  1  0  0  0  0
  4  6  1  0  0  0  0
  5  6  1  0  0  0  0
  1  7  1  0  0  0  0
  2  8  1  0  0  0  0
  3  9  1  0  0  0  0
  4 10  1  0  0  0  0
  4 11  1  0  0  0  0
  5 12  1  0  0  0  0
  5 13  1  0  0  0  0
  6 14  1  0  0  0  0
M  END
$$$$
4DFX_GOL_E_406
prProtoss 03062300513D 1   1.00000     0.00000     0
Protoss beta proteinsplus
 14 13  0  0  0  0            999 V2000
   -2.1480   27.7430  -11.8110 O   0  0  0  0  0  0  0  0  0  0  0  0
   -5.2670   24.1460  -11.1380 O   0  0  0  0  0  0  0  0  0  0  0  0
   -3.6390   25.4600  -13.0790 O   0  0  0  0  0  0  0  0  0  0  0  0
   -2.2770   26.4200  -11.3610 C   0  0  0  0  0  0  0  0  0  0  0  0
   -4.0550   24.7870  -10.7670 C   0  0  0  0  0  0  0  0  0  0  0  0
   -3.6670   25.9100  -11.7330 C   0  0  0  0  0  0  0  0  0  0  0  0
   -1.2404   28.0890  -11.5731 H   0  0  0  0  0  0  0  0  0  0  0  0
   -5.6258   24.5678  -11.9707 H   0  0  0  0  0  0  0  0  0  0  0  0
   -3.8821   24.4905  -13.1115 H   0  0  0  0  0  0  0  0  0  0  0  0
   -2.1619   26.3895  -10.3681 H   0  0  0  0  0  0  0  0  0  0  0  0
   -1.5812   25.8476  -11.7949 H   0  0  0  0  0  0  0  0  0  0  0  0
   -3.3225   24.1063  -10.7555 H   0  0  0  0  0  0  0  0  0  0  0  0
   -4.1642   25.1746   -9.8517 H   0  0  0  0  0  0  0  0  0  0  0  0
   -4.3254   26.6581  -11.6496 H   0  0  0  0  0  0  0  0  0  0  0  0
  1  4  1  0  0  0  0
  2  5  1  0  0  0  0
  3  6  1  0  0  0  0
  4  6  1  0  0  0  0
  5  6  1  0  0  0  0
  1  7  1  0  0  0  0
  2  8  1  0  0  0  0
  3  9  1  0  0  0  0
  4 10  1  0  0  0  0
  4 11  1  0  0  0  0
  5 12  1  0  0  0  0
  5 13  1  0  0  0  0
  6 14  1  0  0  0  0
M  END
$$$$
4DFX_GOL_E_407
prProtoss 03062300513D 1   1.00000     0.00000     0
Protoss beta proteinsplus
 14 13  0  0  0  0            999 V2000
    2.4650   -4.1540  -41.7530 O   0  0  0  0  0  0  0  0  0  0  0  0
    5.2190   -6.2520  -44.1360 O   0  0  0  0  0  0  0  0  0  0  0  0
    3.6330   -4.0320  -44.3010 O   0  0  0  0  0  0  0  0  0  0  0  0
    3.2240   -5.2250  -42.2820 C   0  0  0  0  0  0  0  0  0  0  0  0
    3.8370   -6.4060  -44.3950 C   0  0  0  0  0  0  0  0  0  0  0  0
    3.0810   -5.2280  -43.8020 C   0  0  0  0  0  0  0  0  0  0  0  0
    2.4307   -3.4088  -42.4190 H   0  0  0  0  0  0  0  0  0  0  0  0
    5.7455   -6.6813  -44.8698 H   0  0  0  0  0  0  0  0  0  0  0  0
    3.5483   -4.0160  -45.2973 H   0  0  0  0  0  0  0  0  0  0  0  0
    2.8872   -6.0905  -41.9113 H   0  0  0  0  0  0  0  0  0  0  0  0
    4.1861   -5.1087  -42.0355 H   0  0  0  0  0  0  0  0  0  0  0  0
    3.5117   -7.2553  -43.9792 H   0  0  0  0  0  0  0  0  0  0  0  0
    3.6837   -6.4384  -45.3827 H   0  0  0  0  0  0  0  0  0  0  0  0
    2.1143   -5.2853  -44.0515 H   0  0  0  0  0  0  0  0  0  0  0  0
  1  4  1  0  0  0  0
  2  5  1  0  0  0  0
  3  6  1  0  0  0  0
  4  6  1  0  0  0  0
  5  6  1  0  0  0  0
  1  7  1  0  0  0  0
  2  8  1  0  0  0  0
  3  9  1  0  0  0  0
  4 10  1  0  0  0  0
  4 11  1  0  0  0  0
  5 12  1  0  0  0  0
  5 13  1  0  0  0  0
  6 14  1  0  0  0  0
M  END
$$$$
4DFX_MYR_E_401
prProtoss 03062300513D 1   1.00000     0.00000     0
Protoss beta proteinsplus
 43 42  0  0  0  0            999 V2000
  -33.0690   11.1300  -30.8670 O   0  0  0  0  0  0  0  0  0  0  0  0
  -20.8670   12.4870  -27.5650 C   0  0  0  0  0  0  0  0  0  0  0  0
  -33.1680   11.1180  -29.6730 C   0  0  0  0  0  0  0  0  0  0  0  0
  -22.2890   12.5210  -28.0180 C   0  0  0  0  0  0  0  0  0  0  0  0
  -33.5530   12.4010  -28.9910 C   0  0  0  0  0  0  0  0  0  0  0  0
  -23.0140   11.6130  -27.0800 C   0  0  0  0  0  0  0  0  0  0  0  0
  -32.4790   13.4580  -29.0960 C   0  0  0  0  0  0  0  0  0  0  0  0
  -24.1640   10.9350  -27.7250 C   0  0  0  0  0  0  0  0  0  0  0  0
  -31.2760   12.9060  -28.3400 C   0  0  0  0  0  0  0  0  0  0  0  0
  -25.3940   11.7930  -27.6620 C   0  0  0  0  0  0  0  0  0  0  0  0
  -30.3670   13.9420  -27.7280 C   0  0  0  0  0  0  0  0  0  0  0  0
  -26.1900   11.6460  -26.4160 C   0  0  0  0  0  0  0  0  0  0  0  0
  -29.6050   13.3840  -26.5390 C   0  0  0  0  0  0  0  0  0  0  0  0
  -27.1760   12.8040  -26.3270 C   0  0  0  0  0  0  0  0  0  0  0  0
  -28.5020   12.4650  -26.9790 C   0  0  0  0  0  0  0  0  0  0  0  0
  -20.3155   13.0785  -28.1532 H   0  0  0  0  0  0  0  0  0  0  0  0
  -20.8103   12.8100  -26.6203 H   0  0  0  0  0  0  0  0  0  0  0  0
  -20.5226   11.5497  -27.6180 H   0  0  0  0  0  0  0  0  0  0  0  0
  -22.3665   12.1898  -28.9584 H   0  0  0  0  0  0  0  0  0  0  0  0
  -22.6542   13.4502  -27.9607 H   0  0  0  0  0  0  0  0  0  0  0  0
  -33.7227   12.2115  -28.0239 H   0  0  0  0  0  0  0  0  0  0  0  0
  -34.3891   12.7505  -29.4139 H   0  0  0  0  0  0  0  0  0  0  0  0
  -23.3508   12.1516  -26.3077 H   0  0  0  0  0  0  0  0  0  0  0  0
  -22.3761   10.9179  -26.7486 H   0  0  0  0  0  0  0  0  0  0  0  0
  -32.7897   14.3124  -28.6795 H   0  0  0  0  0  0  0  0  0  0  0  0
  -32.2432   13.6206  -30.0541 H   0  0  0  0  0  0  0  0  0  0  0  0
  -24.3422   10.0717  -27.2529 H   0  0  0  0  0  0  0  0  0  0  0  0
  -23.9412   10.7515  -28.6824 H   0  0  0  0  0  0  0  0  0  0  0  0
  -30.7347   12.3589  -28.9784 H   0  0  0  0  0  0  0  0  0  0  0  0
  -31.6160   12.3203  -27.6042 H   0  0  0  0  0  0  0  0  0  0  0  0
  -25.9803   11.5544  -28.4362 H   0  0  0  0  0  0  0  0  0  0  0  0
  -25.1113   12.7490  -27.7401 H   0  0  0  0  0  0  0  0  0  0  0  0
  -30.9184   14.7190  -27.4245 H   0  0  0  0  0  0  0  0  0  0  0  0
  -29.7119   14.2478  -28.4189 H   0  0  0  0  0  0  0  0  0  0  0  0
  -25.5804   11.6614  -25.6234 H   0  0  0  0  0  0  0  0  0  0  0  0
  -26.6892   10.7797  -26.4358 H   0  0  0  0  0  0  0  0  0  0  0  0
  -30.2387   12.8760  -25.9555 H   0  0  0  0  0  0  0  0  0  0  0  0
  -29.2096   14.1423  -26.0207 H   0  0  0  0  0  0  0  0  0  0  0  0
  -26.7830   13.6000  -26.7873 H   0  0  0  0  0  0  0  0  0  0  0  0
  -27.3348   13.0207  -25.3638 H   0  0  0  0  0  0  0  0  0  0  0  0
  -28.4001   12.5369  -27.9712 H   0  0  0  0  0  0  0  0  0  0  0  0
  -28.7491   11.5269  -26.7364 H   0  0  0  0  0  0  0  0  0  0  0  0
  -32.9880    9.8890  -28.8630 R#  0  0  0  0  0  0  0  0  0  0  0  0
 15 42  1  0  0  0  0
 15 41  1  0  0  0  0
 14 39  1  0  0  0  0
 13 38  1  0  0  0  0
 13 37  1  0  0  0  0
 12 36  1  0  0  0  0
 12 35  1  0  0  0  0
 11 34  1  0  0  0  0
 11 33  1  0  0  0  0
 10 32  1  0  0  0  0
 10 31  1  0  0  0  0
  9 30  1  0  0  0  0
  9 29  1  0  0  0  0
  8 28  1  0  0  0  0
  8 27  1  0  0  0  0
  3 43  1  0  0  0  0
  1  3  2  0  0  0  0
  2  4  1  0  0  0  0
  3  5  1  0  0  0  0
  4  6  1  0  0  0  0
  5  7  1  0  0  0  0
  6  8  1  0  0  0  0
  7  9  1  0  0  0  0
  8 10  1  0  0  0  0
  9 11  1  0  0  0  0
 10 12  1  0  0  0  0
 11 13  1  0  0  0  0
 12 14  1  0  0  0  0
 13 15  1  0  0  0  0
 14 15  1  0  0  0  0
  2 16  1  0  0  0  0
  2 17  1  0  0  0  0
  2 18  1  0  0  0  0
 14 40  1  0  0  0  0
  4 19  1  0  0  0  0
  4 20  1  0  0  0  0
  5 21  1  0  0  0  0
  5 22  1  0  0  0  0
  6 23  1  0  0  0  0
  6 24  1  0  0  0  0
  7 25  1  0  0  0  0
  7 26  1  0  0  0  0
M  RGP  1  43   1
M  END
$$$$
4DG0_MYR_E_401
prProtoss 05262315363D 1   1.00000     0.00000     0
Protoss beta proteinsplus
 43 42  0  0  0  0            999 V2000
  -35.5210  -20.0610   24.2460 O   0  0  0  0  0  0  0  0  0  0  0  0
  -21.3870  -20.6950   28.5840 C   0  0  0  0  0  0  0  0  0  0  0  0
  -34.5010  -20.5540   24.7770 C   0  0  0  0  0  0  0  0  0  0  0  0
  -22.5950  -19.9560   28.0220 C   0  0  0  0  0  0  0  0  0  0  0  0
  -34.6030  -21.2970   26.0900 C   0  0  0  0  0  0  0  0  0  0  0  0
  -23.8310  -20.1610   28.8900 C   0  0  0  0  0  0  0  0  0  0  0  0
  -34.5490  -20.2980   27.2430 C   0  0  0  0  0  0  0  0  0  0  0  0
  -25.0350  -19.4540   28.2780 C   0  0  0  0  0  0  0  0  0  0  0  0
  -33.1650  -20.2560   27.8830 C   0  0  0  0  0  0  0  0  0  0  0  0
  -26.3360  -19.8890   28.9410 C   0  0  0  0  0  0  0  0  0  0  0  0
  -32.3330  -19.0970   27.3400 C   0  0  0  0  0  0  0  0  0  0  0  0
  -27.4440  -20.0420   27.9040 C   0  0  0  0  0  0  0  0  0  0  0  0
  -31.0890  -18.8620   28.1890 C   0  0  0  0  0  0  0  0  0  0  0  0
  -28.8220  -19.8860   28.5370 C   0  0  0  0  0  0  0  0  0  0  0  0
  -29.8430  -19.4170   27.5080 C   0  0  0  0  0  0  0  0  0  0  0  0
  -20.5961  -20.5395   27.9921 H   0  0  0  0  0  0  0  0  0  0  0  0
  -21.1870  -20.3562   29.5034 H   0  0  0  0  0  0  0  0  0  0  0  0
  -21.5850  -21.6743   28.6254 H   0  0  0  0  0  0  0  0  0  0  0  0
  -33.6119  -20.4560   24.3299 H   0  0  0  0  0  0  0  0  0  0  0  0
  -22.7847  -20.2970   27.1013 H   0  0  0  0  0  0  0  0  0  0  0  0
  -22.3868  -18.9789   27.9792 H   0  0  0  0  0  0  0  0  0  0  0  0
  -33.8413  -21.9400   26.1696 H   0  0  0  0  0  0  0  0  0  0  0  0
  -35.4675  -21.7986   26.1233 H   0  0  0  0  0  0  0  0  0  0  0  0
  -23.6586  -19.7882   29.8017 H   0  0  0  0  0  0  0  0  0  0  0  0
  -24.0248  -21.1395   28.9611 H   0  0  0  0  0  0  0  0  0  0  0  0
  -35.2192  -20.5648   27.9356 H   0  0  0  0  0  0  0  0  0  0  0  0
  -34.7737  -19.3878   26.8950 H   0  0  0  0  0  0  0  0  0  0  0  0
  -25.0786  -19.6721   27.3030 H   0  0  0  0  0  0  0  0  0  0  0  0
  -24.9256  -18.4668   28.3942 H   0  0  0  0  0  0  0  0  0  0  0  0
  -32.6911  -21.1150   27.6893 H   0  0  0  0  0  0  0  0  0  0  0  0
  -33.2673  -20.1474   28.8718 H   0  0  0  0  0  0  0  0  0  0  0  0
  -26.6082  -19.2005   29.6132 H   0  0  0  0  0  0  0  0  0  0  0  0
  -26.1932  -20.7655   29.4007 H   0  0  0  0  0  0  0  0  0  0  0  0
  -32.8905  -18.2668   27.3423 H   0  0  0  0  0  0  0  0  0  0  0  0
  -32.0530  -19.3079   26.4034 H   0  0  0  0  0  0  0  0  0  0  0  0
  -27.3776  -20.9489   27.4880 H   0  0  0  0  0  0  0  0  0  0  0  0
  -27.3286  -19.3425   27.1987 H   0  0  0  0  0  0  0  0  0  0  0  0
  -31.2069  -19.3152   29.0726 H   0  0  0  0  0  0  0  0  0  0  0  0
  -30.9723  -17.8791   28.3314 H   0  0  0  0  0  0  0  0  0  0  0  0
  -28.7689  -19.2138   29.2755 H   0  0  0  0  0  0  0  0  0  0  0  0
  -29.1131  -20.7674   28.9089 H   0  0  0  0  0  0  0  0  0  0  0  0
  -29.4328  -18.7012   26.9429 H   0  0  0  0  0  0  0  0  0  0  0  0
  -30.1033  -20.1901   26.9296 H   0  0  0  0  0  0  0  0  0  0  0  0
  1  3  2  0  0  0  0
  2  4  1  0  0  0  0
  3  5  1  0  0  0  0
  4  6  1  0  0  0  0
  5  7  1  0  0  0  0
  6  8  1  0  0  0  0
  7  9  1  0  0  0  0
  8 10  1  0  0  0  0
  9 11  1  0  0  0  0
 10 12  1  0  0  0  0
 11 13  1  0  0  0  0
 12 14  1  0  0  0  0
 13 15  1  0  0  0  0
 14 15  1  0  0  0  0
  2 16  1  0  0  0  0
  2 17  1  0  0  0  0
  2 18  1  0  0  0  0
  3 19  1  0  0  0  0
  4 20  1  0  0  0  0
  4 21  1  0  0  0  0
  5 22  1  0  0  0  0
  5 23  1  0  0  0  0
  6 24  1  0  0  0  0
  6 25  1  0  0  0  0
  7 26  1  0  0  0  0
  7 27  1  0  0  0  0
  8 28  1  0  0  0  0
  8 29  1  0  0  0  0
  9 30  1  0  0  0  0
  9 31  1  0  0  0  0
 10 32  1  0  0  0  0
 10 33  1  0  0  0  0
 11 34  1  0  0  0  0
 11 35  1  0  0  0  0
 12 36  1  0  0  0  0
 12 37  1  0  0  0  0
 13 38  1  0  0  0  0
 13 39  1  0  0  0  0
 14 40  1  0  0  0  0
 14 41  1  0  0  0  0
 15 42  1  0  0  0  0
 15 43  1  0  0  0  0
M  END
$$$$
4DG0_ANP_E_402
prProtoss 05262315363D 1   1.00000     0.00000     0
Protoss beta proteinsplus
 44 46  0  0  0  0            999 V2000
   -5.4220  -10.2680   14.0520 P   0  0  0  0  0  0  0  0  0  0  0  0
   -1.2980  -10.8440   16.4250 P   0  0  0  0  0  0  0  0  0  0  0  0
   -2.6900  -11.0910   13.9010 P   0  0  0  0  0  0  0  0  0  0  0  0
   -6.3260  -11.4350   13.7260 O   0  0  0  0  0  0  0  0  0  0  0  0
   -5.1510   -9.8800   15.4850 O   0  5  0  0  0  0  0  0  0  0  0  0
    0.0080  -10.0860   16.3480 O   0  0  0  0  0  0  0  0  0  0  0  0
   -2.0690  -10.5100   17.6810 O   0  5  0  0  0  0  0  0  0  0  0  0
   -1.1270  -12.3260   16.1940 O   0  5  0  0  0  0  0  0  0  0  0  0
   -3.0430  -12.5080   14.2790 O   0  0  0  0  0  0  0  0  0  0  0  0
   -1.6460  -10.8930   12.8310 O   0  5  0  0  0  0  0  0  0  0  0  0
   -7.4320   -4.2980   14.8320 O   0  0  0  0  0  0  0  0  0  0  0  0
   -5.8110   -6.1630   15.9370 O   0  0  0  0  0  0  0  0  0  0  0  0
   -4.0240  -10.4510   13.2660 O   0  0  0  0  0  0  0  0  0  0  0  0
   -5.9940   -8.9610   13.3110 O   0  0  0  0  0  0  0  0  0  0  0  0
   -6.9700   -6.3400   12.5420 O   0  0  0  0  0  0  0  0  0  0  0  0
  -13.4350   -8.8560   12.2240 N   0  0  0  0  0  0  0  0  0  0  0  0
   -2.2300  -10.2650   15.2210 N   0  0  0  0  0  0  0  0  0  0  0  0
  -13.2850   -6.4980   12.1970 N   0  0  0  0  0  0  0  0  0  0  0  0
  -11.2430   -5.3350   12.5620 N   0  0  0  0  0  0  0  0  0  0  0  0
  -10.3520   -8.7460   12.8160 N   0  0  0  0  0  0  0  0  0  0  0  0
   -9.2680   -6.7970   12.9760 N   0  0  0  0  0  0  0  0  0  0  0  0
   -5.1560   -7.8110   13.2070 C   0  0  0  0  0  0  0  0  0  0  0  0
  -12.5680   -5.3600   12.3080 C   0  0  0  0  0  0  0  0  0  0  0  0
   -9.1600   -8.1410   13.0270 C   0  0  0  0  0  0  0  0  0  0  0  0
   -7.8300   -5.6570   14.6360 C   0  0  2  0  0  0  0  0  0  0  0  0
   -6.6560   -6.5890   14.8640 C   0  0  1  0  0  0  0  0  0  0  0  0
   -8.1540   -5.8290   13.1630 C   0  0  1  0  0  0  0  0  0  0  0  0
  -12.7130   -7.7180   12.3370 C   0  0  0  0  0  0  0  0  0  0  0  0
   -5.9430   -6.5460   13.5190 C   0  0  2  0  0  0  0  0  0  0  0  0
  -10.5420   -6.4880   12.7220 C   0  0  0  0  0  0  0  0  0  0  0  0
  -11.2570   -7.7730   12.6130 C   0  0  0  0  0  0  0  0  0  0  0  0
   -6.6946   -4.2606   15.5065 H   0  0  0  0  0  0  0  0  0  0  0  0
   -6.3410   -6.1261   16.7842 H   0  0  0  0  0  0  0  0  0  0  0  0
  -12.9884   -9.7442   12.3318 H   0  0  0  0  0  0  0  0  0  0  0  0
  -14.4154   -8.8092   12.0327 H   0  0  0  0  0  0  0  0  0  0  0  0
   -1.7446   -9.4624   14.8742 H   0  0  0  0  0  0  0  0  0  0  0  0
   -4.7931   -7.7516   12.2771 H   0  0  0  0  0  0  0  0  0  0  0  0
   -4.3993   -7.8958   13.8553 H   0  0  0  0  0  0  0  0  0  0  0  0
  -13.0445   -4.4880   12.1959 H   0  0  0  0  0  0  0  0  0  0  0  0
   -8.3047   -8.6297   13.1994 H   0  0  0  0  0  0  0  0  0  0  0  0
   -8.6091   -5.8989   15.2144 H   0  0  0  0  0  0  0  0  0  0  0  0
   -6.9883   -7.5153   15.0418 H   0  0  0  0  0  0  0  0  0  0  0  0
   -8.3971   -4.9462   12.7611 H   0  0  0  0  0  0  0  0  0  0  0  0
   -5.3201   -5.7638   13.5060 H   0  0  0  0  0  0  0  0  0  0  0  0
  1  4  2  0  0  0  0
  1  5  1  0  0  0  0
  1 13  1  0  0  0  0
  1 14  1  0  0  0  0
  2  6  2  0  0  0  0
  2  7  1  0  0  0  0
  2  8  1  0  0  0  0
  2 17  1  0  0  0  0
  3  9  2  0  0  0  0
  3 10  1  0  0  0  0
  3 13  1  0  0  0  0
  3 17  1  0  0  0  0
 11 25  1  0  0  0  0
 12 26  1  0  0  0  0
 14 22  1  0  0  0  0
 15 27  1  0  0  0  0
 15 29  1  0  0  0  0
 16 28  1  0  0  0  0
 18 23  1  0  0  0  0
 18 28  2  0  0  0  0
 19 23  2  0  0  0  0
 19 30  1  0  0  0  0
 20 24  2  0  0  0  0
 20 31  1  0  0  0  0
 21 24  1  0  0  0  0
 21 27  1  0  0  0  0
 21 30  1  0  0  0  0
 22 29  1  0  0  0  0
 25 26  1  0  0  0  0
 25 27  1  0  0  0  0
 26 29  1  0  0  0  0
 28 31  1  0  0  0  0
 30 31  2  0  0  0  0
 29 44  1  0  0  0  0
 27 43  1  0  0  0  0
 26 42  1  0  0  0  0
 25 41  1  0  0  0  0
 11 32  1  0  0  0  0
 12 33  1  0  0  0  0
 16 34  1  0  0  0  0
 16 35  1  0  0  0  0
 17 36  1  0  0  0  0
 22 37  1  0  0  0  0
 22 38  1  0  0  0  0
 23 39  1  0  0  0  0
 24 40  1  0  0  0  0
M  CHG  4   5  -1   7  -1   8  -1  10  -1
M  END
$$$$
4DG3_ANP_E_401
prProtoss 08222313123D 1   1.00000     0.00000     0
Protoss beta proteinsplus
 44 46  0  0  0  0            999 V2000
  -24.7990    9.5760    0.0550 P   0  0  0  0  0  0  0  0  0  0  0  0
  -20.2670    7.8660   -0.4140 P   0  0  0  0  0  0  0  0  0  0  0  0
  -22.1310   10.2360   -0.8480 P   0  0  0  0  0  0  0  0  0  0  0  0
  -25.7150    9.7730   -1.1260 O   0  0  0  0  0  0  0  0  0  0  0  0
  -24.3760    8.2160    0.5020 O   0  5  0  0  0  0  0  0  0  0  0  0
  -18.9680    8.1510    0.2680 O   0  0  0  0  0  0  0  0  0  0  0  0
  -20.8570    6.4610    0.0470 O   0  5  0  0  0  0  0  0  0  0  0  0
  -20.1780    7.9920   -1.9890 O   0  5  0  0  0  0  0  0  0  0  0  0
  -22.3130    9.8330   -2.2470 O   0  0  0  0  0  0  0  0  0  0  0  0
  -21.2790   11.5790   -0.7440 O   0  5  0  0  0  0  0  0  0  0  0  0
  -26.4990    8.6520    6.0460 O   0  0  0  0  0  0  0  0  0  0  0  0
  -24.8930    7.5830    4.0870 O   0  0  0  0  0  0  0  0  0  0  0  0
  -23.5530   10.5690   -0.1500 O   0  0  0  0  0  0  0  0  0  0  0  0
  -25.4730   10.2850    1.3370 O   0  0  0  0  0  0  0  0  0  0  0  0
  -26.5300   10.7910    3.8980 O   0  0  0  0  0  0  0  0  0  0  0  0
  -32.9620   10.1100    1.4850 N   0  0  0  0  0  0  0  0  0  0  0  0
  -21.4040    9.0400    0.1800 N   0  0  0  0  0  0  0  0  0  0  0  0
  -32.7660   10.1740    3.8500 N   0  0  0  0  0  0  0  0  0  0  0  0
  -30.6660   10.1380    4.9720 N   0  0  0  0  0  0  0  0  0  0  0  0
  -29.8140    9.9700    1.5160 N   0  0  0  0  0  0  0  0  0  0  0  0
  -28.6910    9.9870    3.4600 N   0  0  0  0  0  0  0  0  0  0  0  0
  -24.6250   10.4090    2.4820 C   0  0  0  0  0  0  0  0  0  0  0  0
  -32.0180   10.1920    4.9820 C   0  0  0  0  0  0  0  0  0  0  0  0
  -28.5840    9.9430    2.1120 C   0  0  0  0  0  0  0  0  0  0  0  0
  -27.0120    8.6200    4.7070 C   0  0  2  0  0  0  0  0  0  0  0  0
  -25.8810    8.5440    3.7030 C   0  0  1  0  0  0  0  0  0  0  0  0
  -27.5840   10.0040    4.4540 C   0  0  1  0  0  0  0  0  0  0  0  0
  -32.2050   10.1160    2.6100 C   0  0  0  0  0  0  0  0  0  0  0  0
  -25.3660    9.9750    3.7290 C   0  0  2  0  0  0  0  0  0  0  0  0
  -29.9830   10.0680    3.7910 C   0  0  0  0  0  0  0  0  0  0  0  0
  -30.7270   10.0530    2.5150 C   0  0  0  0  0  0  0  0  0  0  0  0
  -25.9678    7.8227    6.2194 H   0  0  0  0  0  0  0  0  0  0  0  0
  -25.3153    6.6789    4.1530 H   0  0  0  0  0  0  0  0  0  0  0  0
  -32.5233   10.0668    0.5874 H   0  0  0  0  0  0  0  0  0  0  0  0
  -33.9589   10.1488    1.5530 H   0  0  0  0  0  0  0  0  0  0  0  0
  -20.9308    9.5447    0.9020 H   0  0  0  0  0  0  0  0  0  0  0  0
  -24.3410   11.3627    2.5813 H   0  0  0  0  0  0  0  0  0  0  0  0
  -23.8176    9.8318    2.3595 H   0  0  0  0  0  0  0  0  0  0  0  0
  -32.4871   10.2477    5.8634 H   0  0  0  0  0  0  0  0  0  0  0  0
  -27.7171    9.8967    1.6157 H   0  0  0  0  0  0  0  0  0  0  0  0
  -27.6896    7.8965    4.5747 H   0  0  0  0  0  0  0  0  0  0  0  0
  -26.2404    8.3242    2.7961 H   0  0  0  0  0  0  0  0  0  0  0  0
  -27.8989   10.4083    5.3127 H   0  0  0  0  0  0  0  0  0  0  0  0
  -24.7675   10.0921    4.5216 H   0  0  0  0  0  0  0  0  0  0  0  0
  1  4  2  0  0  0  0
  1  5  1  0  0  0  0
  1 13  1  0  0  0  0
  1 14  1  0  0  0  0
  2  6  2  0  0  0  0
  2  7  1  0  0  0  0
  2  8  1  0  0  0  0
  2 17  1  0  0  0  0
  3  9  2  0  0  0  0
  3 10  1  0  0  0  0
  3 13  1  0  0  0  0
  3 17  1  0  0  0  0
 11 25  1  0  0  0  0
 12 26  1  0  0  0  0
 14 22  1  0  0  0  0
 15 27  1  0  0  0  0
 15 29  1  0  0  0  0
 16 28  1  0  0  0  0
 18 23  1  0  0  0  0
 18 28  2  0  0  0  0
 19 23  2  0  0  0  0
 19 30  1  0  0  0  0
 20 24  2  0  0  0  0
 20 31  1  0  0  0  0
 21 24  1  0  0  0  0
 21 27  1  0  0  0  0
 21 30  1  0  0  0  0
 22 29  1  0  0  0  0
 25 26  1  0  0  0  0
 25 27  1  0  0  0  0
 26 29  1  0  0  0  0
 28 31  1  0  0  0  0
 30 31  2  0  0  0  0
 29 44  1  0  0  0  0
 27 43  1  0  0  0  0
 26 42  1  0  0  0  0
 25 41  1  0  0  0  0
 11 32  1  0  0  0  0
 12 33  1  0  0  0  0
 16 34  1  0  0  0  0
 16 35  1  0  0  0  0
 17 36  1  0  0  0  0
 22 37  1  0  0  0  0
 22 38  1  0  0  0  0
 23 39  1  0  0  0  0
 24 40  1  0  0  0  0
M  CHG  4   5  -1   7  -1   8  -1  10  -1
M  END
$$$$
4DH7_ANP_A_403
prProtoss 08292320043D 1   1.00000     0.00000     0
Protoss beta proteinsplus
 44 46  0  0  0  0            999 V2000
   -5.1730   10.5670  -13.6750 P   0  0  0  0  0  0  0  0  0  0  0  0
   -1.0500   11.1360  -16.2110 P   0  0  0  0  0  0  0  0  0  0  0  0
   -2.5080   11.4500  -13.6430 P   0  0  0  0  0  0  0  0  0  0  0  0
   -6.0570   11.7580  -13.4840 O   0  0  0  0  0  0  0  0  0  0  0  0
   -4.9790   10.3230  -15.1110 O   0  5  0  0  0  0  0  0  0  0  0  0
    0.2950   10.4670  -16.1270 O   0  0  0  0  0  0  0  0  0  0  0  0
   -1.6490   10.8230  -17.5570 O   0  5  0  0  0  0  0  0  0  0  0  0
   -0.8510   12.5830  -16.0820 O   0  5  0  0  0  0  0  0  0  0  0  0
   -2.8400   12.8420  -13.9930 O   0  0  0  0  0  0  0  0  0  0  0  0
   -1.3600   11.4590  -12.6800 O   0  5  0  0  0  0  0  0  0  0  0  0
   -7.0210    4.5060  -14.4930 O   0  0  0  0  0  0  0  0  0  0  0  0
   -5.5560    6.5340  -15.7890 O   0  0  0  0  0  0  0  0  0  0  0  0
   -3.7570   10.7780  -12.8450 O   0  0  0  0  0  0  0  0  0  0  0  0
   -5.8770    9.2780  -13.0410 O   0  0  0  0  0  0  0  0  0  0  0  0
   -6.7780    6.7230  -12.3730 O   0  0  0  0  0  0  0  0  0  0  0  0
  -13.2790    9.0070  -12.1950 N   0  0  0  0  0  0  0  0  0  0  0  0
   -2.0980   10.4590  -14.9990 N   0  0  0  0  0  0  0  0  0  0  0  0
  -13.0460    6.6440  -12.1240 N   0  0  0  0  0  0  0  0  0  0  0  0
  -10.9500    5.5680  -12.4420 N   0  0  0  0  0  0  0  0  0  0  0  0
  -10.2000    9.0530  -12.7400 N   0  0  0  0  0  0  0  0  0  0  0  0
   -9.0480    7.1310  -12.8480 N   0  0  0  0  0  0  0  0  0  0  0  0
   -4.9780    8.1720  -13.0360 C   0  0  0  0  0  0  0  0  0  0  0  0
  -12.2860    5.5190  -12.2050 C   0  0  0  0  0  0  0  0  0  0  0  0
   -8.9900    8.4940  -12.9250 C   0  0  0  0  0  0  0  0  0  0  0  0
   -7.5350    5.8520  -14.4100 C   0  0  2  0  0  0  0  0  0  0  0  0
   -6.4470    6.8630  -14.7100 C   0  0  1  0  0  0  0  0  0  0  0  0
   -7.9330    6.1540  -12.9910 C   0  0  1  0  0  0  0  0  0  0  0  0
  -12.5130    7.9010  -12.2780 C   0  0  0  0  0  0  0  0  0  0  0  0
   -5.7310    6.8940  -13.3450 C   0  0  2  0  0  0  0  0  0  0  0  0
  -10.3010    6.7750  -12.6140 C   0  0  0  0  0  0  0  0  0  0  0  0
  -11.0670    8.0390  -12.5390 C   0  0  0  0  0  0  0  0  0  0  0  0
   -6.6712    4.3390  -15.4148 H   0  0  0  0  0  0  0  0  0  0  0  0
   -6.0798    6.4329  -16.6348 H   0  0  0  0  0  0  0  0  0  0  0  0
  -12.8667    9.9106  -12.3109 H   0  0  0  0  0  0  0  0  0  0  0  0
  -14.2596    8.9239  -12.0176 H   0  0  0  0  0  0  0  0  0  0  0  0
   -1.6518    9.6375  -14.6440 H   0  0  0  0  0  0  0  0  0  0  0  0
   -4.5511    8.0957  -12.1349 H   0  0  0  0  0  0  0  0  0  0  0  0
   -4.2712    8.3161  -13.7286 H   0  0  0  0  0  0  0  0  0  0  0  0
  -12.7247    4.6283  -12.0863 H   0  0  0  0  0  0  0  0  0  0  0  0
   -8.1522    9.0119  -13.0975 H   0  0  0  0  0  0  0  0  0  0  0  0
   -8.3112    5.9732  -15.0287 H   0  0  0  0  0  0  0  0  0  0  0  0
   -6.8636    7.7550  -14.8853 H   0  0  0  0  0  0  0  0  0  0  0  0
   -8.1745    5.3029  -12.5249 H   0  0  0  0  0  0  0  0  0  0  0  0
   -5.1006    6.1199  -13.2877 H   0  0  0  0  0  0  0  0  0  0  0  0
  1  4  2  0  0  0  0
  1  5  1  0  0  0  0
  1 13  1  0  0  0  0
  1 14  1  0  0  0  0
  2  6  2  0  0  0  0
  2  7  1  0  0  0  0
  2  8  1  0  0  0  0
  2 17  1  0  0  0  0
  3  9  2  0  0  0  0
  3 10  1  0  0  0  0
  3 13  1  0  0  0  0
  3 17  1  0  0  0  0
 11 25  1  0  0  0  0
 12 26  1  0  0  0  0
 14 22  1  0  0  0  0
 15 27  1  0  0  0  0
 15 29  1  0  0  0  0
 16 28  1  0  0  0  0
 18 23  1  0  0  0  0
 18 28  2  0  0  0  0
 19 23  2  0  0  0  0
 19 30  1  0  0  0  0
 20 24  2  0  0  0  0
 20 31  1  0  0  0  0
 21 24  1  0  0  0  0
 21 27  1  0  0  0  0
 21 30  1  0  0  0  0
 22 29  1  0  0  0  0
 25 26  1  0  0  0  0
 25 27  1  0  0  0  0
 26 29  1  0  0  0  0
 28 31  1  0  0  0  0
 30 31  2  0  0  0  0
 29 44  1  0  0  0  0
 27 43  1  0  0  0  0
 26 42  1  0  0  0  0
 25 41  1  0  0  0  0
 11 32  1  0  0  0  0
 12 33  1  0  0  0  0
 16 34  1  0  0  0  0
 16 35  1  0  0  0  0
 17 36  1  0  0  0  0
 22 37  1  0  0  0  0
 22 38  1  0  0  0  0
 23 39  1  0  0  0  0
 24 40  1  0  0  0  0
M  CHG  4   5  -1   7  -1   8  -1  10  -1
M  END
$$$$
4DH8_ANP_A_403
prProtoss 08292320043D 1   1.00000     0.00000     0
Protoss beta proteinsplus
 44 46  0  0  0  0            999 V2000
   -4.9340   10.5240  -13.5940 P   0  0  0  0  0  0  0  0  0  0  0  0
   -0.9100   10.9790  -16.2670 P   0  0  0  0  0  0  0  0  0  0  0  0
   -2.3080   11.3520  -13.7170 P   0  0  0  0  0  0  0  0  0  0  0  0
   -5.7850   11.7470  -13.4030 O   0  0  0  0  0  0  0  0  0  0  0  0
   -4.7660   10.3190  -15.0100 O   0  5  0  0  0  0  0  0  0  0  0  0
    0.4420   10.2990  -16.1720 O   0  0  0  0  0  0  0  0  0  0  0  0
   -1.4850   10.6720  -17.6240 O   0  5  0  0  0  0  0  0  0  0  0  0
   -0.7060   12.4250  -16.1400 O   0  5  0  0  0  0  0  0  0  0  0  0
   -2.7100   12.7040  -14.0990 O   0  0  0  0  0  0  0  0  0  0  0  0
   -1.0870   11.4420  -12.8580 O   0  5  0  0  0  0  0  0  0  0  0  0
   -7.0210    4.5240  -14.5160 O   0  0  0  0  0  0  0  0  0  0  0  0
   -5.5770    6.5130  -15.8580 O   0  0  0  0  0  0  0  0  0  0  0  0
   -3.4940   10.6990  -12.8070 O   0  0  0  0  0  0  0  0  0  0  0  0
   -5.6670    9.2240  -12.9840 O   0  0  0  0  0  0  0  0  0  0  0  0
   -6.6510    6.6980  -12.3870 O   0  0  0  0  0  0  0  0  0  0  0  0
  -13.1490    9.0600  -12.0400 N   0  0  0  0  0  0  0  0  0  0  0  0
   -1.9890   10.3320  -15.0680 N   0  0  0  0  0  0  0  0  0  0  0  0
  -12.9170    6.6930  -11.9860 N   0  0  0  0  0  0  0  0  0  0  0  0
  -10.8300    5.6130  -12.3440 N   0  0  0  0  0  0  0  0  0  0  0  0
  -10.0650    9.0920  -12.6420 N   0  0  0  0  0  0  0  0  0  0  0  0
   -8.9350    7.1630  -12.7830 N   0  0  0  0  0  0  0  0  0  0  0  0
   -4.8140    8.0760  -13.1020 C   0  0  0  0  0  0  0  0  0  0  0  0
  -12.1600    5.5650  -12.0830 C   0  0  0  0  0  0  0  0  0  0  0  0
   -8.8650    8.5230  -12.8550 C   0  0  0  0  0  0  0  0  0  0  0  0
   -7.4970    5.8670  -14.3960 C   0  0  2  0  0  0  0  0  0  0  0  0
   -6.4010    6.8490  -14.7270 C   0  0  1  0  0  0  0  0  0  0  0  0
   -7.8380    6.1640  -12.9600 C   0  0  1  0  0  0  0  0  0  0  0  0
  -12.3820    7.9520  -12.1400 C   0  0  0  0  0  0  0  0  0  0  0  0
   -5.6320    6.8400  -13.3950 C   0  0  2  0  0  0  0  0  0  0  0  0
  -10.1820    6.8160  -12.5220 C   0  0  0  0  0  0  0  0  0  0  0  0
  -10.9380    8.0850  -12.4290 C   0  0  0  0  0  0  0  0  0  0  0  0
   -6.3057    4.4850  -15.2138 H   0  0  0  0  0  0  0  0  0  0  0  0
   -6.1467    6.4449  -16.6770 H   0  0  0  0  0  0  0  0  0  0  0  0
  -12.7384    9.9645  -12.1556 H   0  0  0  0  0  0  0  0  0  0  0  0
  -14.1272    8.9755  -11.8504 H   0  0  0  0  0  0  0  0  0  0  0  0
   -1.5904    9.4821  -14.7233 H   0  0  0  0  0  0  0  0  0  0  0  0
   -4.3160    7.9460  -12.2446 H   0  0  0  0  0  0  0  0  0  0  0  0
   -4.1629    8.2244  -13.8464 H   0  0  0  0  0  0  0  0  0  0  0  0
  -12.5979    4.6747  -11.9580 H   0  0  0  0  0  0  0  0  0  0  0  0
   -8.0260    9.0337  -13.0428 H   0  0  0  0  0  0  0  0  0  0  0  0
   -8.2918    6.0136  -14.9849 H   0  0  0  0  0  0  0  0  0  0  0  0
   -6.8020    7.7540  -14.8693 H   0  0  0  0  0  0  0  0  0  0  0  0
   -8.0815    5.3144  -12.4922 H   0  0  0  0  0  0  0  0  0  0  0  0
   -5.0337    6.0391  -13.3691 H   0  0  0  0  0  0  0  0  0  0  0  0
  1  4  2  0  0  0  0
  1  5  1  0  0  0  0
  1 13  1  0  0  0  0
  1 14  1  0  0  0  0
  2  6  2  0  0  0  0
  2  7  1  0  0  0  0
  2  8  1  0  0  0  0
  2 17  1  0  0  0  0
  3  9  2  0  0  0  0
  3 10  1  0  0  0  0
  3 13  1  0  0  0  0
  3 17  1  0  0  0  0
 11 25  1  0  0  0  0
 12 26  1  0  0  0  0
 14 22  1  0  0  0  0
 15 27  1  0  0  0  0
 15 29  1  0  0  0  0
 16 28  1  0  0  0  0
 18 23  1  0  0  0  0
 18 28  2  0  0  0  0
 19 23  2  0  0  0  0
 19 30  1  0  0  0  0
 20 24  2  0  0  0  0
 20 31  1  0  0  0  0
 21 24  1  0  0  0  0
 21 27  1  0  0  0  0
 21 30  1  0  0  0  0
 22 29  1  0  0  0  0
 25 26  1  0  0  0  0
 25 27  1  0  0  0  0
 26 29  1  0  0  0  0
 28 31  1  0  0  0  0
 30 31  2  0  0  0  0
 29 44  1  0  0  0  0
 27 43  1  0  0  0  0
 26 42  1  0  0  0  0
 25 41  1  0  0  0  0
 11 32  1  0  0  0  0
 12 33  1  0  0  0  0
 16 34  1  0  0  0  0
 16 35  1  0  0  0  0
 17 36  1  0  0  0  0
 22 37  1  0  0  0  0
 22 38  1  0  0  0  0
 23 39  1  0  0  0  0
 24 40  1  0  0  0  0
M  CHG  4   5  -1   7  -1   8  -1  10  -1
M  END
$$$$
4HPT_ANP_E_401
prProtoss 05262315493D 1   1.00000     0.00000     0
Protoss beta proteinsplus
 41 43  0  0  0  0            999 V2000
   24.6880   -9.7450    0.1580 P   0  0  0  0  0  0  0  0  0  0  0  0
   21.9780  -10.3800   -0.5360 P   0  0  0  0  0  0  0  0  0  0  0  0
   25.8440   -9.7880   -0.8070 O   0  0  0  0  0  0  0  0  0  0  0  0
   24.1390   -8.4110    0.6150 O   0  5  0  0  0  0  0  0  0  0  0  0
   21.6930  -10.0880   -1.9900 O   0  0  0  0  0  0  0  0  0  0  0  0
   21.3180  -11.5850    0.0850 O   0  5  0  0  0  0  0  0  0  0  0  0
   26.1030   -9.0970    6.2880 O   0  0  0  0  0  0  0  0  0  0  0  0
   24.5960   -7.9040    4.2990 O   0  0  0  0  0  0  0  0  0  0  0  0
   23.5590  -10.7260   -0.4400 O   0  0  0  0  0  0  0  0  0  0  0  0
   25.0850  -10.4980    1.5110 O   0  0  0  0  0  0  0  0  0  0  0  0
   25.9180  -11.2750    4.1120 O   0  0  0  0  0  0  0  0  0  0  0  0
   21.6220   -9.0710    0.3370 N   0  0  0  0  0  0  0  0  0  0  0  0
   32.4170  -10.4830    1.7590 N   0  0  0  0  0  0  0  0  0  0  0  0
   32.2970  -10.6370    4.1360 N   0  0  0  0  0  0  0  0  0  0  0  0
   30.2090  -10.6900    5.2680 N   0  0  0  0  0  0  0  0  0  0  0  0
   29.3160  -10.4590    1.8540 N   0  0  0  0  0  0  0  0  0  0  0  0
   28.1990  -10.5810    3.7720 N   0  0  0  0  0  0  0  0  0  0  0  0
   24.1370  -10.6100    2.5730 C   0  0  0  0  0  0  0  0  0  0  0  0
   31.5640  -10.7070    5.2690 C   0  0  0  0  0  0  0  0  0  0  0  0
   28.0980  -10.4910    2.4310 C   0  0  0  0  0  0  0  0  0  0  0  0
   26.6210   -9.1750    4.9590 C   0  0  2  0  0  0  0  0  0  0  0  0
   25.5170   -8.9500    3.9380 C   0  0  1  0  0  0  0  0  0  0  0  0
   27.0470  -10.6200    4.7100 C   0  0  1  0  0  0  0  0  0  0  0  0
   31.7060  -10.5510    2.9100 C   0  0  0  0  0  0  0  0  0  0  0  0
   24.8580  -10.3300    3.8830 C   0  0  2  0  0  0  0  0  0  0  0  0
   29.4980  -10.6120    4.1100 C   0  0  0  0  0  0  0  0  0  0  0  0
   30.2310  -10.5410    2.8410 C   0  0  0  0  0  0  0  0  0  0  0  0
   25.3244   -8.4697    6.3060 H   0  0  0  0  0  0  0  0  0  0  0  0
   25.0923   -7.0411    4.3944 H   0  0  0  0  0  0  0  0  0  0  0  0
   20.6548   -8.8453    0.2201 H   0  0  0  0  0  0  0  0  0  0  0  0
   21.8073   -9.2538    1.3025 H   0  0  0  0  0  0  0  0  0  0  0  0
   31.9423  -10.4209    0.8810 H   0  0  0  0  0  0  0  0  0  0  0  0
   33.4165  -10.4949    1.7873 H   0  0  0  0  0  0  0  0  0  0  0  0
   23.7529  -11.5332    2.5883 H   0  0  0  0  0  0  0  0  0  0  0  0
   23.4016   -9.9451    2.4422 H   0  0  0  0  0  0  0  0  0  0  0  0
   32.0415  -10.7742    6.1450 H   0  0  0  0  0  0  0  0  0  0  0  0
   27.2334  -10.4530    1.9300 H   0  0  0  0  0  0  0  0  0  0  0  0
   27.3813   -8.5397    4.8235 H   0  0  0  0  0  0  0  0  0  0  0  0
   25.9246   -8.7412    3.0490 H   0  0  0  0  0  0  0  0  0  0  0  0
   27.3029  -11.0668    5.5672 H   0  0  0  0  0  0  0  0  0  0  0  0
   24.1993  -10.4002    4.6322 H   0  0  0  0  0  0  0  0  0  0  0  0
  1  3  2  0  0  0  0
  1  4  1  0  0  0  0
  1  9  1  0  0  0  0
  1 10  1  0  0  0  0
  2  5  2  0  0  0  0
  2  6  1  0  0  0  0
  2  9  1  0  0  0  0
  2 12  1  0  0  0  0
  7 21  1  0  0  0  0
  8 22  1  0  0  0  0
 10 18  1  0  0  0  0
 11 23  1  0  0  0  0
 11 25  1  0  0  0  0
 13 24  1  0  0  0  0
 14 19  1  0  0  0  0
 14 24  2  0  0  0  0
 15 19  2  0  0  0  0
 15 26  1  0  0  0  0
 16 20  2  0  0  0  0
 16 27  1  0  0  0  0
 17 20  1  0  0  0  0
 17 23  1  0  0  0  0
 17 26  1  0  0  0  0
 18 25  1  0  0  0  0
 21 22  1  0  0  0  0
 21 23  1  0  0  0  0
 22 25  1  0  0  0  0
 24 27  1  0  0  0  0
 26 27  2  0  0  0  0
 25 41  1  0  0  0  0
 23 40  1  0  0  0  0
  7 28  1  0  0  0  0
  8 29  1  0  0  0  0
 12 30  1  0  0  0  0
 12 31  1  0  0  0  0
 13 32  1  0  0  0  0
 13 33  1  0  0  0  0
 18 34  1  0  0  0  0
 18 35  1  0  0  0  0
 19 36  1  0  0  0  0
 20 37  1  0  0  0  0
 21 38  1  0  0  0  0
 22 39  1  0  0  0  0
M  CHG  2   4  -1   6  -1
M  END
$$$$
4HPU_MYR_E_401
prProtoss 05262315123D 1   1.00000     0.00000     0
Protoss beta proteinsplus
 32 31  0  0  0  0            999 V2000
  -32.0050   18.9170  -28.4090 C   0  0  0  0  0  0  0  0  0  0  0  0
  -20.9360   20.1560  -28.4400 C   0  0  0  0  0  0  0  0  0  0  0  0
  -30.6730   19.0690  -29.1360 C   0  0  0  0  0  0  0  0  0  0  0  0
  -22.3360   20.7200  -28.6430 C   0  0  0  0  0  0  0  0  0  0  0  0
  -29.5840   19.5970  -28.2060 C   0  0  0  0  0  0  0  0  0  0  0  0
  -23.3820   19.6100  -28.6540 C   0  0  0  0  0  0  0  0  0  0  0  0
  -28.2730   19.7840  -28.9660 C   0  0  0  0  0  0  0  0  0  0  0  0
  -24.7650   20.1600  -28.9960 C   0  0  0  0  0  0  0  0  0  0  0  0
  -27.0670   19.7710  -28.0330 C   0  0  0  0  0  0  0  0  0  0  0  0
  -25.8520   19.1310  -28.6960 C   0  0  0  0  0  0  0  0  0  0  0  0
  -32.6943   18.5702  -29.0451 H   0  0  0  0  0  0  0  0  0  0  0  0
  -31.8990   18.2748  -27.6498 H   0  0  0  0  0  0  0  0  0  0  0  0
  -32.2951   19.8063  -28.0554 H   0  0  0  0  0  0  0  0  0  0  0  0
  -20.2724   20.9041  -28.4371 H   0  0  0  0  0  0  0  0  0  0  0  0
  -20.8954   19.6710  -27.5664 H   0  0  0  0  0  0  0  0  0  0  0  0
  -20.7208   19.5225  -29.1832 H   0  0  0  0  0  0  0  0  0  0  0  0
  -30.7890   19.7083  -29.8961 H   0  0  0  0  0  0  0  0  0  0  0  0
  -30.3929   18.1769  -29.4905 H   0  0  0  0  0  0  0  0  0  0  0  0
  -22.3680   21.2069  -29.5158 H   0  0  0  0  0  0  0  0  0  0  0  0
  -22.5426   21.3555  -27.8990 H   0  0  0  0  0  0  0  0  0  0  0  0
  -29.4423   18.9442  -27.4618 H   0  0  0  0  0  0  0  0  0  0  0  0
  -29.8729   20.4764  -27.8275 H   0  0  0  0  0  0  0  0  0  0  0  0
  -23.4147   19.1833  -27.7502 H   0  0  0  0  0  0  0  0  0  0  0  0
  -23.1248   18.9259  -29.3365 H   0  0  0  0  0  0  0  0  0  0  0  0
  -28.3003   20.6605  -29.4466 H   0  0  0  0  0  0  0  0  0  0  0  0
  -28.1758   19.0426  -29.6300 H   0  0  0  0  0  0  0  0  0  0  0  0
  -24.7935   20.3919  -29.9683 H   0  0  0  0  0  0  0  0  0  0  0  0
  -24.9337   20.9821  -28.4522 H   0  0  0  0  0  0  0  0  0  0  0  0
  -27.2987   19.2521  -27.2102 H   0  0  0  0  0  0  0  0  0  0  0  0
  -26.8413   20.7121  -27.7811 H   0  0  0  0  0  0  0  0  0  0  0  0
  -25.4784   18.4340  -28.0839 H   0  0  0  0  0  0  0  0  0  0  0  0
  -26.1385   18.7030  -29.5532 H   0  0  0  0  0  0  0  0  0  0  0  0
  1  3  1  0  0  0  0
  2  4  1  0  0  0  0
  3  5  1  0  0  0  0
  4  6  1  0  0  0  0
  5  7  1  0  0  0  0
  6  8  1  0  0  0  0
  7  9  1  0  0  0  0
  8 10  1  0  0  0  0
  9 10  1  0  0  0  0
  1 11  1  0  0  0  0
  1 12  1  0  0  0  0
  1 13  1  0  0  0  0
  2 14  1  0  0  0  0
  2 15  1  0  0  0  0
  2 16  1  0  0  0  0
  3 17  1  0  0  0  0
  3 18  1  0  0  0  0
  4 19  1  0  0  0  0
  4 20  1  0  0  0  0
  5 21  1  0  0  0  0
  5 22  1  0  0  0  0
  6 23  1  0  0  0  0
  6 24  1  0  0  0  0
  7 25  1  0  0  0  0
  7 26  1  0  0  0  0
  8 27  1  0  0  0  0
  8 28  1  0  0  0  0
  9 29  1  0  0  0  0
  9 30  1  0  0  0  0
 10 31  1  0  0  0  0
 10 32  1  0  0  0  0
M  END
$$$$
4HPU_ANP_E_402
prProtoss 05262315123D 1   1.00000     0.00000     0
Protoss beta proteinsplus
 41 43  0  0  0  0            999 V2000
   -5.7790   10.5510  -14.0310 P   0  0  0  0  0  0  0  0  0  0  0  0
   -3.0200   11.3440  -13.5340 P   0  0  0  0  0  0  0  0  0  0  0  0
   -6.8550   11.5710  -13.7950 O   0  0  0  0  0  0  0  0  0  0  0  0
   -5.3390   10.1770  -15.4200 O   0  5  0  0  0  0  0  0  0  0  0  0
   -3.0230   12.8080  -13.9170 O   0  0  0  0  0  0  0  0  0  0  0  0
   -2.1800   10.9490  -12.3430 O   0  5  0  0  0  0  0  0  0  0  0  0
   -7.1440    4.5050  -14.4650 O   0  0  0  0  0  0  0  0  0  0  0  0
   -5.8640    6.5810  -15.9530 O   0  0  0  0  0  0  0  0  0  0  0  0
   -4.5250   10.9740  -13.1110 O   0  0  0  0  0  0  0  0  0  0  0  0
   -6.1890    9.2220  -13.2510 O   0  0  0  0  0  0  0  0  0  0  0  0
   -7.0050    6.6920  -12.5220 O   0  0  0  0  0  0  0  0  0  0  0  0
   -2.5880   10.4300  -14.7860 N   0  0  0  0  0  0  0  0  0  0  0  0
  -13.5420    8.8550  -12.2970 N   0  0  0  0  0  0  0  0  0  0  0  0
  -13.1500    6.5460  -12.0580 N   0  0  0  0  0  0  0  0  0  0  0  0
  -11.0460    5.5140  -12.3850 N   0  0  0  0  0  0  0  0  0  0  0  0
  -10.4550    8.9550  -13.0140 N   0  0  0  0  0  0  0  0  0  0  0  0
   -9.2550    7.0750  -13.0260 N   0  0  0  0  0  0  0  0  0  0  0  0
   -5.2400    8.1620  -13.2120 C   0  0  0  0  0  0  0  0  0  0  0  0
  -12.3490    5.4610  -12.0850 C   0  0  0  0  0  0  0  0  0  0  0  0
   -9.2280    8.4170  -13.2080 C   0  0  0  0  0  0  0  0  0  0  0  0
   -7.7530    5.7980  -14.5560 C   0  0  2  0  0  0  0  0  0  0  0  0
   -6.7260    6.8700  -14.8400 C   0  0  1  0  0  0  0  0  0  0  0  0
   -8.1430    6.1070  -13.1230 C   0  0  1  0  0  0  0  0  0  0  0  0
  -12.7010    7.7920  -12.3280 C   0  0  0  0  0  0  0  0  0  0  0  0
   -5.9870    6.8790  -13.5120 C   0  0  2  0  0  0  0  0  0  0  0  0
  -10.4760    6.7070  -12.6790 C   0  0  0  0  0  0  0  0  0  0  0  0
  -11.2790    7.9360  -12.6790 C   0  0  0  0  0  0  0  0  0  0  0  0
   -6.6895    4.2891  -15.3292 H   0  0  0  0  0  0  0  0  0  0  0  0
   -6.4137    6.4749  -16.7816 H   0  0  0  0  0  0  0  0  0  0  0  0
   -1.6694   10.6877  -15.0856 H   0  0  0  0  0  0  0  0  0  0  0  0
   -2.5920    9.4679  -14.5134 H   0  0  0  0  0  0  0  0  0  0  0  0
  -13.1969    9.7716  -12.4988 H   0  0  0  0  0  0  0  0  0  0  0  0
  -14.5074    8.7224  -12.0724 H   0  0  0  0  0  0  0  0  0  0  0  0
   -4.8213    8.1104  -12.3053 H   0  0  0  0  0  0  0  0  0  0  0  0
   -4.5294    8.3132  -13.8992 H   0  0  0  0  0  0  0  0  0  0  0  0
  -12.7499    4.5705  -11.8696 H   0  0  0  0  0  0  0  0  0  0  0  0
   -8.4115    8.9400  -13.4527 H   0  0  0  0  0  0  0  0  0  0  0  0
   -8.5286    5.8219  -15.1867 H   0  0  0  0  0  0  0  0  0  0  0  0
   -7.1817    7.7488  -14.9818 H   0  0  0  0  0  0  0  0  0  0  0  0
   -8.3841    5.2620  -12.6456 H   0  0  0  0  0  0  0  0  0  0  0  0
   -5.3495    6.1091  -13.4819 H   0  0  0  0  0  0  0  0  0  0  0  0
  1  3  2  0  0  0  0
  1  4  1  0  0  0  0
  1  9  1  0  0  0  0
  1 10  1  0  0  0  0
  2  5  2  0  0  0  0
  2  6  1  0  0  0  0
  2  9  1  0  0  0  0
  2 12  1  0  0  0  0
  7 21  1  0  0  0  0
  8 22  1  0  0  0  0
 10 18  1  0  0  0  0
 11 23  1  0  0  0  0
 11 25  1  0  0  0  0
 13 24  1  0  0  0  0
 14 19  1  0  0  0  0
 14 24  2  0  0  0  0
 15 19  2  0  0  0  0
 15 26  1  0  0  0  0
 16 20  2  0  0  0  0
 16 27  1  0  0  0  0
 17 20  1  0  0  0  0
 17 23  1  0  0  0  0
 17 26  1  0  0  0  0
 18 25  1  0  0  0  0
 21 22  1  0  0  0  0
 21 23  1  0  0  0  0
 22 25  1  0  0  0  0
 24 27  1  0  0  0  0
 26 27  2  0  0  0  0
 25 41  1  0  0  0  0
 23 40  1  0  0  0  0
  7 28  1  0  0  0  0
  8 29  1  0  0  0  0
 12 30  1  0  0  0  0
 12 31  1  0  0  0  0
 13 32  1  0  0  0  0
 13 33  1  0  0  0  0
 18 34  1  0  0  0  0
 18 35  1  0  0  0  0
 19 36  1  0  0  0  0
 20 37  1  0  0  0  0
 21 38  1  0  0  0  0
 22 39  1  0  0  0  0
M  CHG  2   4  -1   6  -1
M  END
$$$$
4XW4_ANP_A_403
prProtoss 05262315153D 1   1.00000     0.00000     0
Protoss beta proteinsplus
 44 46  0  0  0  0            999 V2000
   -5.1630   10.7530  -13.4730 P   0  0  0  0  0  0  0  0  0  0  0  0
   -0.9140   10.5250  -14.8170 P   0  0  0  0  0  0  0  0  0  0  0  0
   -2.4840   11.6120  -12.6450 P   0  0  0  0  0  0  0  0  0  0  0  0
   -4.8560   10.5120  -14.8900 O   0  0  0  0  0  0  0  0  0  0  0  0
   -6.2400   11.7960  -13.3400 O   0  5  0  0  0  0  0  0  0  0  0  0
   -1.5180    9.3630  -15.5560 O   0  0  0  0  0  0  0  0  0  0  0  0
    0.5770   10.4960  -14.9510 O   0  5  0  0  0  0  0  0  0  0  0  0
   -1.4130   11.8060  -15.3560 O   0  5  0  0  0  0  0  0  0  0  0  0
   -2.5170   12.8480  -13.4440 O   0  0  0  0  0  0  0  0  0  0  0  0
   -2.0080   11.9380  -11.2400 O   0  5  0  0  0  0  0  0  0  0  0  0
   -6.9900    4.6850  -14.2050 O   0  0  0  0  0  0  0  0  0  0  0  0
   -5.7980    6.8200  -15.6300 O   0  0  0  0  0  0  0  0  0  0  0  0
   -3.9710   11.0610  -12.4220 O   0  0  0  0  0  0  0  0  0  0  0  0
   -5.8320    9.3840  -12.9180 O   0  0  0  0  0  0  0  0  0  0  0  0
   -6.6670    6.9140  -12.0810 O   0  0  0  0  0  0  0  0  0  0  0  0
  -13.2810    9.0040  -12.1780 N   0  0  0  0  0  0  0  0  0  0  0  0
   -1.4060   10.3570  -13.1590 N   0  0  0  0  0  0  0  0  0  0  0  0
  -13.0260    6.6420  -12.1040 N   0  0  0  0  0  0  0  0  0  0  0  0
  -10.8900    5.6250  -12.2710 N   0  0  0  0  0  0  0  0  0  0  0  0
  -10.1870    9.1290  -12.4130 N   0  0  0  0  0  0  0  0  0  0  0  0
   -8.9810    7.2330  -12.4530 N   0  0  0  0  0  0  0  0  0  0  0  0
   -4.8920    8.3190  -12.8710 C   0  0  0  0  0  0  0  0  0  0  0  0
  -12.2290    5.5460  -12.1500 C   0  0  0  0  0  0  0  0  0  0  0  0
   -8.9460    8.6020  -12.4990 C   0  0  0  0  0  0  0  0  0  0  0  0
   -7.5470    6.0070  -14.0500 C   0  0  2  0  0  0  0  0  0  0  0  0
   -6.5350    7.0690  -14.4190 C   0  0  1  0  0  0  0  0  0  0  0  0
   -7.8440    6.2850  -12.5970 C   0  0  1  0  0  0  0  0  0  0  0  0
  -12.4960    7.9120  -12.1340 C   0  0  0  0  0  0  0  0  0  0  0  0
   -5.6710    7.0260  -13.1310 C   0  0  2  0  0  0  0  0  0  0  0  0
  -10.2440    6.8410  -12.3690 C   0  0  0  0  0  0  0  0  0  0  0  0
  -11.0390    8.0870  -12.2950 C   0  0  0  0  0  0  0  0  0  0  0  0
   -6.7150    4.5486  -15.1567 H   0  0  0  0  0  0  0  0  0  0  0  0
   -6.4335    6.7534  -16.3992 H   0  0  0  0  0  0  0  0  0  0  0  0
  -12.8694    9.9151  -12.1991 H   0  0  0  0  0  0  0  0  0  0  0  0
  -14.2760    8.9044  -12.1896 H   0  0  0  0  0  0  0  0  0  0  0  0
   -0.5907   10.3799  -12.5804 H   0  0  0  0  0  0  0  0  0  0  0  0
   -4.4573    8.2835  -11.9711 H   0  0  0  0  0  0  0  0  0  0  0  0
   -4.1926    8.4464  -13.5743 H   0  0  0  0  0  0  0  0  0  0  0  0
  -12.6528    4.6421  -12.0917 H   0  0  0  0  0  0  0  0  0  0  0  0
   -8.1088    9.1421  -12.5852 H   0  0  0  0  0  0  0  0  0  0  0  0
   -8.3751    6.1052  -14.6019 H   0  0  0  0  0  0  0  0  0  0  0  0
   -6.9920    7.9561  -14.4839 H   0  0  0  0  0  0  0  0  0  0  0  0
   -8.0315    5.4336  -12.1071 H   0  0  0  0  0  0  0  0  0  0  0  0
   -5.0611    6.2335  -13.1337 H   0  0  0  0  0  0  0  0  0  0  0  0
  1  4  2  0  0  0  0
  1  5  1  0  0  0  0
  1 13  1  0  0  0  0
  1 14  1  0  0  0  0
  2  6  2  0  0  0  0
  2  7  1  0  0  0  0
  2  8  1  0  0  0  0
  2 17  1  0  0  0  0
  3  9  2  0  0  0  0
  3 10  1  0  0  0  0
  3 13  1  0  0  0  0
  3 17  1  0  0  0  0
 11 25  1  0  0  0  0
 12 26  1  0  0  0  0
 14 22  1  0  0  0  0
 15 27  1  0  0  0  0
 15 29  1  0  0  0  0
 16 28  1  0  0  0  0
 18 23  1  0  0  0  0
 18 28  2  0  0  0  0
 19 23  2  0  0  0  0
 19 30  1  0  0  0  0
 20 24  2  0  0  0  0
 20 31  1  0  0  0  0
 21 24  1  0  0  0  0
 21 27  1  0  0  0  0
 21 30  1  0  0  0  0
 22 29  1  0  0  0  0
 25 26  1  0  0  0  0
 25 27  1  0  0  0  0
 26 29  1  0  0  0  0
 28 31  1  0  0  0  0
 30 31  2  0  0  0  0
 29 44  1  0  0  0  0
 27 43  1  0  0  0  0
 26 42  1  0  0  0  0
 25 41  1  0  0  0  0
 11 32  1  0  0  0  0
 12 33  1  0  0  0  0
 16 34  1  0  0  0  0
 16 35  1  0  0  0  0
 17 36  1  0  0  0  0
 22 37  1  0  0  0  0
 22 38  1  0  0  0  0
 23 39  1  0  0  0  0
 24 40  1  0  0  0  0
M  CHG  4   5  -1   7  -1   8  -1  10  -1
M  END
$$$$
6MM5_EDO_C_2901
prProtoss 08182322513D 1   1.00000     0.00000     0
Protoss beta proteinsplus
 10  9  0  0  0  0            999 V2000
    4.6610  -11.9190   19.6740 O   0  0  0  0  0  0  0  0  0  0  0  0
    5.3780  -14.6150   19.4260 O   0  0  0  0  0  0  0  0  0  0  0  0
    4.6690  -12.7590   20.8130 C   0  0  0  0  0  0  0  0  0  0  0  0
    4.4430  -14.1840   20.4170 C   0  0  0  0  0  0  0  0  0  0  0  0
    5.5892  -11.8421   19.3100 H   0  0  0  0  0  0  0  0  0  0  0  0
    4.9543  -15.3135   18.8493 H   0  0  0  0  0  0  0  0  0  0  0  0
    3.9429  -12.4723   21.4380 H   0  0  0  0  0  0  0  0  0  0  0  0
    5.5539  -12.6818   21.2723 H   0  0  0  0  0  0  0  0  0  0  0  0
    4.5389  -14.7637   21.2261 H   0  0  0  0  0  0  0  0  0  0  0  0
    3.5174  -14.2748   20.0497 H   0  0  0  0  0  0  0  0  0  0  0  0
  1  3  1  0  0  0  0
  2  4  1  0  0  0  0
  3  4  1  0  0  0  0
  1  5  1  0  0  0  0
  2  6  1  0  0  0  0
  3  7  1  0  0  0  0
  3  8  1  0  0  0  0
  4  9  1  0  0  0  0
  4 10  1  0  0  0  0
M  END
$$$$
7E0Z_ANP_A_401
prProtoss 08182322513D 1   1.00000     0.00000     0
Protoss beta proteinsplus
 44 46  0  0  0  0            999 V2000
    7.6540   16.7290   18.9750 P   0  0  0  0  0  0  0  0  0  0  0  0
   10.8910   20.0770   19.4850 P   0  0  0  0  0  0  0  0  0  0  0  0
    9.6840   18.1630   17.6720 P   0  0  0  0  0  0  0  0  0  0  0  0
    7.9410   15.2720   19.0420 O   0  0  0  0  0  0  0  0  0  0  0  0
    8.0580   17.5210   20.2320 O   0  5  0  0  0  0  0  0  0  0  0  0
   10.6650   20.1210   20.9770 O   0  0  0  0  0  0  0  0  0  0  0  0
   12.1710   19.1850   19.2450 O   0  5  0  0  0  0  0  0  0  0  0  0
   11.1930   21.5410   18.9950 O   0  5  0  0  0  0  0  0  0  0  0  0
   10.8470   17.2910   18.0700 O   0  0  0  0  0  0  0  0  0  0  0  0
    9.8940   18.6600   16.2220 O   0  5  0  0  0  0  0  0  0  0  0  0
    2.2300   18.9600   21.3380 O   0  0  0  0  0  0  0  0  0  0  0  0
    5.0120   19.1400   21.6120 O   0  0  0  0  0  0  0  0  0  0  0  0
    8.3530   17.3420   17.6630 O   0  0  0  0  0  0  0  0  0  0  0  0
    6.1010   16.9080   18.7220 O   0  0  0  0  0  0  0  0  0  0  0  0
    3.2820   17.5120   18.8880 O   0  0  0  0  0  0  0  0  0  0  0  0
    1.7850   11.0660   20.5440 N   0  0  0  0  0  0  0  0  0  0  0  0
    9.4950   19.4780   18.7200 N   0  0  0  0  0  0  0  0  0  0  0  0
    0.0510   12.5830   20.7890 N   0  0  0  0  0  0  0  0  0  0  0  0
    0.3240   14.9690   20.5640 N   0  0  0  0  0  0  0  0  0  0  0  0
    3.5660   13.5410   20.0310 N   0  0  0  0  0  0  0  0  0  0  0  0
    2.6300   15.5900   20.0690 N   0  0  0  0  0  0  0  0  0  0  0  0
    5.5520   18.2460   18.5160 C   0  0  0  0  0  0  0  0  0  0  0  0
   -0.3760   13.8500   20.7820 C   0  0  0  0  0  0  0  0  0  0  0  0
    3.7610   14.8310   19.9060 C   0  0  0  0  0  0  0  0  0  0  0  0
    3.0080   17.7780   21.2330 C   0  0  2  0  0  0  0  0  0  0  0  0
    4.4560   18.0750   20.8450 C   0  0  1  0  0  0  0  0  0  0  0  0
    2.5090   17.0420   19.9850 C   0  0  1  0  0  0  0  0  0  0  0  0
    1.3670   12.3350   20.5500 C   0  0  0  0  0  0  0  0  0  0  0  0
    4.3130   18.4100   19.3610 C   0  0  2  0  0  0  0  0  0  0  0  0
    1.6230   14.6950   20.3330 C   0  0  0  0  0  0  0  0  0  0  0  0
    2.2050   13.4410   20.3100 C   0  0  0  0  0  0  0  0  0  0  0  0
    2.6234   19.5570   22.0372 H   0  0  0  0  0  0  0  0  0  0  0  0
    4.9942   18.8969   22.5818 H   0  0  0  0  0  0  0  0  0  0  0  0
    2.7475   10.8574   20.3708 H   0  0  0  0  0  0  0  0  0  0  0  0
    1.1353   10.3248   20.7127 H   0  0  0  0  0  0  0  0  0  0  0  0
    9.0976   20.2280   18.1913 H   0  0  0  0  0  0  0  0  0  0  0  0
    5.3172   18.3662   17.5514 H   0  0  0  0  0  0  0  0  0  0  0  0
    6.2309   18.9305   18.7816 H   0  0  0  0  0  0  0  0  0  0  0  0
   -1.3508   13.9786   20.9645 H   0  0  0  0  0  0  0  0  0  0  0  0
    4.6574   15.2279   19.7087 H   0  0  0  0  0  0  0  0  0  0  0  0
    2.9463   17.2116   22.0548 H   0  0  0  0  0  0  0  0  0  0  0  0
    5.0124   17.2514   20.9548 H   0  0  0  0  0  0  0  0  0  0  0  0
    1.5498   17.2790   19.8308 H   0  0  0  0  0  0  0  0  0  0  0  0
    3.9856   19.3508   19.2733 H   0  0  0  0  0  0  0  0  0  0  0  0
  1  4  2  0  0  0  0
  1  5  1  0  0  0  0
  1 13  1  0  0  0  0
  1 14  1  0  0  0  0
  2  6  2  0  0  0  0
  2  7  1  0  0  0  0
  2  8  1  0  0  0  0
  2 17  1  0  0  0  0
  3  9  2  0  0  0  0
  3 10  1  0  0  0  0
  3 13  1  0  0  0  0
  3 17  1  0  0  0  0
 11 25  1  0  0  0  0
 12 26  1  0  0  0  0
 14 22  1  0  0  0  0
 15 27  1  0  0  0  0
 15 29  1  0  0  0  0
 16 28  1  0  0  0  0
 18 23  1  0  0  0  0
 18 28  2  0  0  0  0
 19 23  2  0  0  0  0
 19 30  1  0  0  0  0
 20 24  2  0  0  0  0
 20 31  1  0  0  0  0
 21 24  1  0  0  0  0
 21 27  1  0  0  0  0
 21 30  1  0  0  0  0
 22 29  1  0  0  0  0
 25 26  1  0  0  0  0
 25 27  1  0  0  0  0
 26 29  1  0  0  0  0
 28 31  1  0  0  0  0
 30 31  2  0  0  0  0
 29 44  1  0  0  0  0
 27 43  1  0  0  0  0
 26 42  1  0  0  0  0
 25 41  1  0  0  0  0
 11 32  1  0  0  0  0
 12 33  1  0  0  0  0
 16 34  1  0  0  0  0
 16 35  1  0  0  0  0
 17 36  1  0  0  0  0
 22 37  1  0  0  0  0
 22 38  1  0  0  0  0
 23 39  1  0  0  0  0
 24 40  1  0  0  0  0
M  CHG  4   5  -1   7  -1   8  -1  10  -1
M  END
$$$$
7E11_ANP_A_401
prProtoss 08302315363D 1   1.00000     0.00000     0
Protoss beta proteinsplus
 44 46  0  0  0  0            999 V2000
   11.5540   28.8840  -22.3940 P   0  0  0  0  0  0  0  0  0  0  0  0
   12.7190   29.6560  -18.0420 P   0  0  0  0  0  0  0  0  0  0  0  0
   12.9550   30.4520  -20.6760 P   0  0  0  0  0  0  0  0  0  0  0  0
   12.3650   28.0460  -23.3060 O   0  0  0  0  0  0  0  0  0  0  0  0
   11.2320   28.2230  -21.0510 O   0  5  0  0  0  0  0  0  0  0  0  0
   12.0640   28.5270  -17.3120 O   0  0  0  0  0  0  0  0  0  0  0  0
   14.2180   29.2790  -18.3550 O   0  5  0  0  0  0  0  0  0  0  0  0
   12.6800   30.9600  -17.1470 O   0  5  0  0  0  0  0  0  0  0  0  0
   14.2120   29.6470  -20.6050 O   0  0  0  0  0  0  0  0  0  0  0  0
   13.2940   31.9570  -20.4670 O   0  5  0  0  0  0  0  0  0  0  0  0
    5.2560   27.8760  -23.0530 O   0  0  0  0  0  0  0  0  0  0  0  0
    7.1630   27.9500  -21.1490 O   0  0  0  0  0  0  0  0  0  0  0  0
   12.2870   30.2540  -22.0690 O   0  0  0  0  0  0  0  0  0  0  0  0
   10.2340   29.2960  -23.1570 O   0  0  0  0  0  0  0  0  0  0  0  0
    7.7470   29.4750  -24.3330 O   0  0  0  0  0  0  0  0  0  0  0  0
    8.6380   25.0650  -29.4710 N   0  0  0  0  0  0  0  0  0  0  0  0
   11.8880   29.9460  -19.4860 N   0  0  0  0  0  0  0  0  0  0  0  0
    6.4260   25.5140  -28.9790 N   0  0  0  0  0  0  0  0  0  0  0  0
    5.7160   26.8450  -27.0990 N   0  0  0  0  0  0  0  0  0  0  0  0
    9.2880   26.7550  -26.9700 N   0  0  0  0  0  0  0  0  0  0  0  0
    7.5980   27.6550  -25.7880 N   0  0  0  0  0  0  0  0  0  0  0  0
    9.2000   30.0570  -22.5020 C   0  0  0  0  0  0  0  0  0  0  0  0
    5.5210   26.1020  -28.1910 C   0  0  0  0  0  0  0  0  0  0  0  0
    8.9500   27.4850  -25.9340 C   0  0  0  0  0  0  0  0  0  0  0  0
    6.5730   27.5750  -23.4970 C   0  0  2  0  0  0  0  0  0  0  0  0
    7.6310   28.0340  -22.4900 C   0  0  1  0  0  0  0  0  0  0  0  0
    6.9120   28.4070  -24.7430 C   0  0  1  0  0  0  0  0  0  0  0  0
    7.7380   25.6550  -28.6810 C   0  0  0  0  0  0  0  0  0  0  0  0
    7.8630   29.4820  -22.8980 C   0  0  2  0  0  0  0  0  0  0  0  0
    7.0220   26.9660  -26.8280 C   0  0  0  0  0  0  0  0  0  0  0  0
    8.0710   26.4200  -27.5450 C   0  0  0  0  0  0  0  0  0  0  0  0
    5.2295   27.8605  -22.0535 H   0  0  0  0  0  0  0  0  0  0  0  0
    7.3802   27.0479  -20.7760 H   0  0  0  0  0  0  0  0  0  0  0  0
    9.6137   25.1547  -29.2713 H   0  0  0  0  0  0  0  0  0  0  0  0
    8.3364   24.5333  -30.2624 H   0  0  0  0  0  0  0  0  0  0  0  0
   11.2007   30.6565  -19.3347 H   0  0  0  0  0  0  0  0  0  0  0  0
    9.2536   31.0143  -22.7862 H   0  0  0  0  0  0  0  0  0  0  0  0
    9.3132   29.9969  -21.5102 H   0  0  0  0  0  0  0  0  0  0  0  0
    4.5662   25.9669  -28.4557 H   0  0  0  0  0  0  0  0  0  0  0  0
    9.6195   27.8823  -25.3063 H   0  0  0  0  0  0  0  0  0  0  0  0
    6.6670   26.5979  -23.6880 H   0  0  0  0  0  0  0  0  0  0  0  0
    8.4707   27.5022  -22.6000 H   0  0  0  0  0  0  0  0  0  0  0  0
    6.0659   28.7846  -25.1193 H   0  0  0  0  0  0  0  0  0  0  0  0
    7.1356   30.0506  -22.5138 H   0  0  0  0  0  0  0  0  0  0  0  0
  1  4  2  0  0  0  0
  1  5  1  0  0  0  0
  1 13  1  0  0  0  0
  1 14  1  0  0  0  0
  2  6  2  0  0  0  0
  2  7  1  0  0  0  0
  2  8  1  0  0  0  0
  2 17  1  0  0  0  0
  3  9  2  0  0  0  0
  3 10  1  0  0  0  0
  3 13  1  0  0  0  0
  3 17  1  0  0  0  0
 11 25  1  0  0  0  0
 12 26  1  0  0  0  0
 14 22  1  0  0  0  0
 15 27  1  0  0  0  0
 15 29  1  0  0  0  0
 16 28  1  0  0  0  0
 18 23  1  0  0  0  0
 18 28  2  0  0  0  0
 19 23  2  0  0  0  0
 19 30  1  0  0  0  0
 20 24  2  0  0  0  0
 20 31  1  0  0  0  0
 21 24  1  0  0  0  0
 21 27  1  0  0  0  0
 21 30  1  0  0  0  0
 22 29  1  0  0  0  0
 25 26  1  0  0  0  0
 25 27  1  0  0  0  0
 26 29  1  0  0  0  0
 28 31  1  0  0  0  0
 30 31  2  0  0  0  0
 29 44  1  0  0  0  0
 27 43  1  0  0  0  0
 26 42  1  0  0  0  0
 25 41  1  0  0  0  0
 11 32  1  0  0  0  0
 12 33  1  0  0  0  0
 16 34  1  0  0  0  0
 16 35  1  0  0  0  0
 17 36  1  0  0  0  0
 22 37  1  0  0  0  0
 22 38  1  0  0  0  0
 23 39  1  0  0  0  0
 24 40  1  0  0  0  0
M  CHG  4   5  -1   7  -1   8  -1  10  -1
M  END
$$$$
7E12_ANP_A_401
prProtoss 08302301053D 1   1.00000     0.00000     0
Protoss beta proteinsplus
 44 46  0  0  0  0            999 V2000
    2.8280  -13.7730   25.9700 P   0  0  0  0  0  0  0  0  0  0  0  0
   -0.0310  -16.4210   24.0060 P   0  0  0  0  0  0  0  0  0  0  0  0
    2.2610  -16.3750   25.5540 P   0  0  0  0  0  0  0  0  0  0  0  0
    4.1840  -13.1970   25.8200 O   0  0  0  0  0  0  0  0  0  0  0  0
    1.9820  -13.7760   24.6950 O   0  5  0  0  0  0  0  0  0  0  0  0
   -0.2850  -15.1070   23.3380 O   0  0  0  0  0  0  0  0  0  0  0  0
    0.9960  -17.2600   23.1520 O   0  5  0  0  0  0  0  0  0  0  0  0
   -1.3850  -17.2220   24.1570 O   0  5  0  0  0  0  0  0  0  0  0  0
    2.8030  -16.2660   24.1660 O   0  0  0  0  0  0  0  0  0  0  0  0
    2.6090  -17.7730   26.1360 O   0  5  0  0  0  0  0  0  0  0  0  0
    0.1100   -9.2660   29.6340 O   0  0  0  0  0  0  0  0  0  0  0  0
   -0.0770  -10.9740   27.5360 O   0  0  0  0  0  0  0  0  0  0  0  0
    2.8940  -15.2750   26.4510 O   0  0  0  0  0  0  0  0  0  0  0  0
    2.0400  -12.9810   27.0830 O   0  0  0  0  0  0  0  0  0  0  0  0
    2.4940  -11.1550   30.0160 O   0  0  0  0  0  0  0  0  0  0  0  0
    7.7250   -7.1200   28.4400 N   0  0  0  0  0  0  0  0  0  0  0  0
    0.6000  -16.1580   25.5530 N   0  0  0  0  0  0  0  0  0  0  0  0
    6.2190   -6.2310   29.9490 N   0  0  0  0  0  0  0  0  0  0  0  0
    4.1160   -7.2660   30.5090 N   0  0  0  0  0  0  0  0  0  0  0  0
    5.6790   -9.4090   28.1140 N   0  0  0  0  0  0  0  0  0  0  0  0
    3.7700   -9.3440   29.2970 N   0  0  0  0  0  0  0  0  0  0  0  0
    2.3240  -13.0090   28.4890 C   0  0  0  0  0  0  0  0  0  0  0  0
    5.0510   -6.3160   30.5930 C   0  0  0  0  0  0  0  0  0  0  0  0
    4.5460  -10.0100   28.3850 C   0  0  0  0  0  0  0  0  0  0  0  0
    1.2970   -9.4600   28.8770 C   0  0  2  0  0  0  0  0  0  0  0  0
    1.2280  -10.7470   28.0570 C   0  0  1  0  0  0  0  0  0  0  0  0
    2.4680   -9.7540   29.8150 C   0  0  1  0  0  0  0  0  0  0  0  0
    6.5560   -7.2100   29.0800 C   0  0  0  0  0  0  0  0  0  0  0  0
    1.6180  -11.8140   29.0770 C   0  0  2  0  0  0  0  0  0  0  0  0
    4.4750   -8.2210   29.6430 C   0  0  0  0  0  0  0  0  0  0  0  0
    5.6480   -8.2710   28.9050 C   0  0  0  0  0  0  0  0  0  0  0  0
   -0.6638   -9.6763   29.1515 H   0  0  0  0  0  0  0  0  0  0  0  0
   -0.3370  -10.2110   26.9442 H   0  0  0  0  0  0  0  0  0  0  0  0
    7.9965   -7.8318   27.7923 H   0  0  0  0  0  0  0  0  0  0  0  0
    8.3286   -6.3408   28.6086 H   0  0  0  0  0  0  0  0  0  0  0  0
    0.1834  -16.8041   26.1925 H   0  0  0  0  0  0  0  0  0  0  0  0
    3.3094  -12.9430   28.6462 H   0  0  0  0  0  0  0  0  0  0  0  0
    1.9772  -13.8535   28.8972 H   0  0  0  0  0  0  0  0  0  0  0  0
    4.8498   -5.5664   31.2235 H   0  0  0  0  0  0  0  0  0  0  0  0
    4.2730  -10.8753   27.9646 H   0  0  0  0  0  0  0  0  0  0  0  0
    1.4887   -8.6697   28.2951 H   0  0  0  0  0  0  0  0  0  0  0  0
    1.8965  -10.7191   27.3138 H   0  0  0  0  0  0  0  0  0  0  0  0
    2.3070   -9.3005   30.6916 H   0  0  0  0  0  0  0  0  0  0  0  0
    0.7970  -12.1229   29.5571 H   0  0  0  0  0  0  0  0  0  0  0  0
  1  4  2  0  0  0  0
  1  5  1  0  0  0  0
  1 13  1  0  0  0  0
  1 14  1  0  0  0  0
  2  6  2  0  0  0  0
  2  7  1  0  0  0  0
  2  8  1  0  0  0  0
  2 17  1  0  0  0  0
  3  9  2  0  0  0  0
  3 10  1  0  0  0  0
  3 13  1  0  0  0  0
  3 17  1  0  0  0  0
 11 25  1  0  0  0  0
 12 26  1  0  0  0  0
 14 22  1  0  0  0  0
 15 27  1  0  0  0  0
 15 29  1  0  0  0  0
 16 28  1  0  0  0  0
 18 23  1  0  0  0  0
 18 28  2  0  0  0  0
 19 23  2  0  0  0  0
 19 30  1  0  0  0  0
 20 24  2  0  0  0  0
 20 31  1  0  0  0  0
 21 24  1  0  0  0  0
 21 27  1  0  0  0  0
 21 30  1  0  0  0  0
 22 29  1  0  0  0  0
 25 26  1  0  0  0  0
 25 27  1  0  0  0  0
 26 29  1  0  0  0  0
 28 31  1  0  0  0  0
 30 31  2  0  0  0  0
 29 44  1  0  0  0  0
 27 43  1  0  0  0  0
 26 42  1  0  0  0  0
 25 41  1  0  0  0  0
 11 32  1  0  0  0  0
 12 33  1  0  0  0  0
 16 34  1  0  0  0  0
 16 35  1  0  0  0  0
 17 36  1  0  0  0  0
 22 37  1  0  0  0  0
 22 38  1  0  0  0  0
 23 39  1  0  0  0  0
 24 40  1  0  0  0  0
M  CHG  4   5  -1   7  -1   8  -1  10  -1
M  END
$$$$
3FJQ_ATP_E_403
prProtoss 05262315073D 1   1.00000     0.00000     0
Protoss beta proteinsplus
 43 45  0  0  0  0            999 V2000
   27.6910   11.2420   32.6640 P   0  0  0  0  0  0  0  0  0  0  0  0
   26.3110   11.5620   35.3060 P   0  0  0  0  0  0  0  0  0  0  0  0
   23.5430   10.6150   35.1040 P   0  0  0  0  0  0  0  0  0  0  0  0
   29.0280   10.5740   32.8780 O   0  0  0  0  0  0  0  0  0  0  0  0
   27.0350   10.7590   31.3910 O   0  5  0  0  0  0  0  0  0  0  0  0
   27.8350   12.7260   32.7380 O   0  5  0  0  0  0  0  0  0  0  0  0
   25.8360   12.9360   34.9730 O   0  0  0  0  0  0  0  0  0  0  0  0
   27.3700   11.3660   36.3490 O   0  5  0  0  0  0  0  0  0  0  0  0
   22.5960   11.7260   35.4720 O   0  0  0  0  0  0  0  0  0  0  0  0
   23.6640   10.2330   33.6640 O   0  5  0  0  0  0  0  0  0  0  0  0
   21.6640    4.6370   34.2300 O   0  0  0  0  0  0  0  0  0  0  0  0
   23.1740    6.6570   33.0440 O   0  0  0  0  0  0  0  0  0  0  0  0
   26.7020   10.7590   33.9050 O   0  0  0  0  0  0  0  0  0  0  0  0
   24.9870   10.7830   35.8230 O   0  0  0  0  0  0  0  0  0  0  0  0
   23.0230    9.2990   35.8720 O   0  0  0  0  0  0  0  0  0  0  0  0
   21.9130    6.7590   36.4180 O   0  0  0  0  0  0  0  0  0  0  0  0
   15.4300    9.0630   36.4800 N   0  0  0  0  0  0  0  0  0  0  0  0
   15.6730    6.7200   36.5680 N   0  0  0  0  0  0  0  0  0  0  0  0
   17.7560    5.6510   36.2940 N   0  0  0  0  0  0  0  0  0  0  0  0
   18.5160    9.0950   35.9510 N   0  0  0  0  0  0  0  0  0  0  0  0
   19.6570    7.1820   35.8820 N   0  0  0  0  0  0  0  0  0  0  0  0
   23.8250    8.1250   35.8300 C   0  0  0  0  0  0  0  0  0  0  0  0
   16.4350    5.6170   36.5150 C   0  0  0  0  0  0  0  0  0  0  0  0
   19.7320    8.5270   35.7870 C   0  0  0  0  0  0  0  0  0  0  0  0
   21.1720    5.9810   34.3220 C   0  0  2  0  0  0  0  0  0  0  0  0
   22.2800    6.9900   34.1120 C   0  0  1  0  0  0  0  0  0  0  0  0
   20.7680    6.2160   35.7650 C   0  0  1  0  0  0  0  0  0  0  0  0
   16.2020    7.9600   36.4150 C   0  0  0  0  0  0  0  0  0  0  0  0
   22.9680    6.9250   35.4700 C   0  0  2  0  0  0  0  0  0  0  0  0
   18.4030    6.8330   36.1160 C   0  0  0  0  0  0  0  0  0  0  0  0
   17.6400    8.0870   36.1650 C   0  0  0  0  0  0  0  0  0  0  0  0
   22.0609    4.4886   33.3242 H   0  0  0  0  0  0  0  0  0  0  0  0
   22.6620    6.5974   32.1871 H   0  0  0  0  0  0  0  0  0  0  0  0
   15.8400    9.9678   36.3645 H   0  0  0  0  0  0  0  0  0  0  0  0
   14.4473    8.9766   36.6437 H   0  0  0  0  0  0  0  0  0  0  0  0
   24.2428    7.9769   36.7264 H   0  0  0  0  0  0  0  0  0  0  0  0
   24.5423    8.2381   35.1425 H   0  0  0  0  0  0  0  0  0  0  0  0
   15.9965    4.7280   36.6466 H   0  0  0  0  0  0  0  0  0  0  0  0
   20.5759    9.0360   35.6176 H   0  0  0  0  0  0  0  0  0  0  0  0
   20.4082    6.1372   33.6957 H   0  0  0  0  0  0  0  0  0  0  0  0
   21.8931    7.9004   33.9656 H   0  0  0  0  0  0  0  0  0  0  0  0
   20.5117    5.3490   36.1923 H   0  0  0  0  0  0  0  0  0  0  0  0
   23.5440    6.1079   35.4929 H   0  0  0  0  0  0  0  0  0  0  0  0
  1  4  2  0  0  0  0
  1  5  1  0  0  0  0
  1  6  1  0  0  0  0
  1 13  1  0  0  0  0
  2  7  2  0  0  0  0
  2  8  1  0  0  0  0
  2 13  1  0  0  0  0
  2 14  1  0  0  0  0
  3  9  2  0  0  0  0
  3 10  1  0  0  0  0
  3 14  1  0  0  0  0
  3 15  1  0  0  0  0
 11 25  1  0  0  0  0
 12 26  1  0  0  0  0
 15 22  1  0  0  0  0
 16 27  1  0  0  0  0
 16 29  1  0  0  0  0
 17 28  1  0  0  0  0
 18 23  1  0  0  0  0
 18 28  2  0  0  0  0
 19 23  2  0  0  0  0
 19 30  1  0  0  0  0
 20 24  2  0  0  0  0
 20 31  1  0  0  0  0
 21 24  1  0  0  0  0
 21 27  1  0  0  0  0
 21 30  1  0  0  0  0
 22 29  1  0  0  0  0
 25 26  1  0  0  0  0
 25 27  1  0  0  0  0
 26 29  1  0  0  0  0
 28 31  1  0  0  0  0
 30 31  2  0  0  0  0
 29 43  1  0  0  0  0
 27 42  1  0  0  0  0
 26 41  1  0  0  0  0
 25 40  1  0  0  0  0
 11 32  1  0  0  0  0
 12 33  1  0  0  0  0
 17 34  1  0  0  0  0
 17 35  1  0  0  0  0
 22 36  1  0  0  0  0
 22 37  1  0  0  0  0
 23 38  1  0  0  0  0
 24 39  1  0  0  0  0
M  CHG  4   5  -1   6  -1   8  -1  10  -1
M  END
$$$$
3QAL_ATP_E_351
prProtoss 08292319293D 1   1.00000     0.00000     0
Protoss beta proteinsplus
 43 45  0  0  0  0            999 V2000
   27.6540   28.7030   16.0740 P   0  0  0  0  0  0  0  0  0  0  0  0
   26.3110   28.4130   13.6020 P   0  0  0  0  0  0  0  0  0  0  0  0
   23.7570   29.4970   13.7020 P   0  0  0  0  0  0  0  0  0  0  0  0
   29.0390   29.3060   16.0090 O   0  0  0  0  0  0  0  0  0  0  0  0
   26.9940   29.1350   17.3680 O   0  5  0  0  0  0  0  0  0  0  0  0
   27.7300   27.1910   16.0220 O   0  5  0  0  0  0  0  0  0  0  0  0
   25.7970   27.0600   13.9530 O   0  0  0  0  0  0  0  0  0  0  0  0
   27.4190   28.3360   12.6260 O   0  5  0  0  0  0  0  0  0  0  0  0
   22.8790   28.3070   13.5460 O   0  0  0  0  0  0  0  0  0  0  0  0
   23.8820   29.8460   15.1430 O   0  5  0  0  0  0  0  0  0  0  0  0
   21.6490   35.3920   14.6230 O   0  0  0  0  0  0  0  0  0  0  0  0
   23.2520   33.4250   15.7270 O   0  0  0  0  0  0  0  0  0  0  0  0
   26.7690   29.3270   14.8750 O   0  0  0  0  0  0  0  0  0  0  0  0
   25.2050   29.3770   12.9750 O   0  0  0  0  0  0  0  0  0  0  0  0
   23.1070   30.6900   12.8980 O   0  0  0  0  0  0  0  0  0  0  0  0
   21.8960   33.2640   12.3970 O   0  0  0  0  0  0  0  0  0  0  0  0
   15.4950   30.9750   12.3020 N   0  0  0  0  0  0  0  0  0  0  0  0
   15.7360   33.2730   12.2730 N   0  0  0  0  0  0  0  0  0  0  0  0
   17.8450   34.4040   12.5720 N   0  0  0  0  0  0  0  0  0  0  0  0
   18.5250   30.8970   12.8270 N   0  0  0  0  0  0  0  0  0  0  0  0
   19.6680   32.8320   12.9410 N   0  0  0  0  0  0  0  0  0  0  0  0
   23.8370   31.9270   12.8680 C   0  0  0  0  0  0  0  0  0  0  0  0
   16.5310   34.3450   12.3630 C   0  0  0  0  0  0  0  0  0  0  0  0
   19.6950   31.4560   12.9990 C   0  0  0  0  0  0  0  0  0  0  0  0
   21.2110   34.0460   14.5310 C   0  0  2  0  0  0  0  0  0  0  0  0
   22.3450   33.0370   14.6940 C   0  0  1  0  0  0  0  0  0  0  0  0
   20.7750   33.7810   13.0870 C   0  0  1  0  0  0  0  0  0  0  0  0
   16.2860   32.0470   12.4040 C   0  0  0  0  0  0  0  0  0  0  0  0
   22.9960   33.0940   13.3200 C   0  0  2  0  0  0  0  0  0  0  0  0
   18.3580   33.1690   12.7050 C   0  0  0  0  0  0  0  0  0  0  0  0
   17.6670   31.9730   12.6370 C   0  0  0  0  0  0  0  0  0  0  0  0
   22.0663   35.5463   15.5186 H   0  0  0  0  0  0  0  0  0  0  0  0
   22.7604   33.4893   16.5954 H   0  0  0  0  0  0  0  0  0  0  0  0
   15.8817   30.0576   12.3958 H   0  0  0  0  0  0  0  0  0  0  0  0
   14.5163   31.0901   12.1319 H   0  0  0  0  0  0  0  0  0  0  0  0
   24.1464   32.0960   11.9322 H   0  0  0  0  0  0  0  0  0  0  0  0
   24.6299   31.8480   13.4721 H   0  0  0  0  0  0  0  0  0  0  0  0
   16.0735   35.2280   12.2584 H   0  0  0  0  0  0  0  0  0  0  0  0
   20.5321   30.9326   13.1580 H   0  0  0  0  0  0  0  0  0  0  0  0
   20.4672   33.8622   15.1737 H   0  0  0  0  0  0  0  0  0  0  0  0
   21.9796   32.1234   14.8721 H   0  0  0  0  0  0  0  0  0  0  0  0
   20.5114   34.6492   12.6666 H   0  0  0  0  0  0  0  0  0  0  0  0
   23.5627   33.9170   13.2804 H   0  0  0  0  0  0  0  0  0  0  0  0
  1  4  2  0  0  0  0
  1  5  1  0  0  0  0
  1  6  1  0  0  0  0
  1 13  1  0  0  0  0
  2  7  2  0  0  0  0
  2  8  1  0  0  0  0
  2 13  1  0  0  0  0
  2 14  1  0  0  0  0
  3  9  2  0  0  0  0
  3 10  1  0  0  0  0
  3 14  1  0  0  0  0
  3 15  1  0  0  0  0
 11 25  1  0  0  0  0
 12 26  1  0  0  0  0
 15 22  1  0  0  0  0
 16 27  1  0  0  0  0
 16 29  1  0  0  0  0
 17 28  1  0  0  0  0
 18 23  1  0  0  0  0
 18 28  2  0  0  0  0
 19 23  2  0  0  0  0
 19 30  1  0  0  0  0
 20 24  2  0  0  0  0
 20 31  1  0  0  0  0
 21 24  1  0  0  0  0
 21 27  1  0  0  0  0
 21 30  1  0  0  0  0
 22 29  1  0  0  0  0
 25 26  1  0  0  0  0
 25 27  1  0  0  0  0
 26 29  1  0  0  0  0
 28 31  1  0  0  0  0
 30 31  2  0  0  0  0
 29 43  1  0  0  0  0
 27 42  1  0  0  0  0
 26 41  1  0  0  0  0
 25 40  1  0  0  0  0
 11 32  1  0  0  0  0
 12 33  1  0  0  0  0
 17 34  1  0  0  0  0
 17 35  1  0  0  0  0
 22 36  1  0  0  0  0
 22 37  1  0  0  0  0
 23 38  1  0  0  0  0
 24 39  1  0  0  0  0
M  CHG  4   5  -1   6  -1   8  -1  10  -1
M  END
$$$$
3QAM_ATP_E_351
prProtoss 08292319293D 1   1.00000     0.00000     0
Protoss beta proteinsplus
 43 45  0  0  0  0            999 V2000
  -13.4950   -1.9800   19.7490 P   0  0  0  0  0  0  0  0  0  0  0  0
  -12.8700   -1.7430   17.0090 P   0  0  0  0  0  0  0  0  0  0  0  0
  -10.3980   -2.7610   16.3280 P   0  0  0  0  0  0  0  0  0  0  0  0
  -14.8110   -2.6200   20.1820 O   0  0  0  0  0  0  0  0  0  0  0  0
  -12.4570   -2.2790   20.8190 O   0  5  0  0  0  0  0  0  0  0  0  0
  -13.6870   -0.4810   19.5940 O   0  5  0  0  0  0  0  0  0  0  0  0
  -12.2650   -0.4200   17.2330 O   0  0  0  0  0  0  0  0  0  0  0  0
  -14.2250   -1.6200   16.4050 O   0  5  0  0  0  0  0  0  0  0  0  0
   -9.6400   -1.5450   15.9470 O   0  0  0  0  0  0  0  0  0  0  0  0
  -10.0960   -3.0700   17.7440 O   0  5  0  0  0  0  0  0  0  0  0  0
   -7.9590   -8.5380   16.6960 O   0  0  0  0  0  0  0  0  0  0  0  0
   -9.2250   -6.5260   18.1190 O   0  0  0  0  0  0  0  0  0  0  0  0
  -12.9770   -2.6730   18.3710 O   0  0  0  0  0  0  0  0  0  0  0  0
  -12.0010   -2.6780   16.0590 O   0  0  0  0  0  0  0  0  0  0  0  0
   -9.9630   -3.9350   15.3640 O   0  0  0  0  0  0  0  0  0  0  0  0
   -8.9020   -6.5320   14.5380 O   0  0  0  0  0  0  0  0  0  0  0  0
   -2.8080   -4.2970   12.4870 N   0  0  0  0  0  0  0  0  0  0  0  0
   -3.0520   -6.5940   12.5860 N   0  0  0  0  0  0  0  0  0  0  0  0
   -4.9800   -7.6950   13.5360 N   0  0  0  0  0  0  0  0  0  0  0  0
   -5.5550   -4.1730   13.8480 N   0  0  0  0  0  0  0  0  0  0  0  0
   -6.6140   -6.0880   14.3710 N   0  0  0  0  0  0  0  0  0  0  0  0
  -10.6420   -5.1880   15.5210 C   0  0  0  0  0  0  0  0  0  0  0  0
   -3.7890   -7.6570   12.9440 C   0  0  0  0  0  0  0  0  0  0  0  0
   -6.6220   -4.7120   14.3800 C   0  0  0  0  0  0  0  0  0  0  0  0
   -7.5990   -7.1980   16.4110 C   0  0  2  0  0  0  0  0  0  0  0  0
   -8.6590   -6.1920   16.8540 C   0  0  1  0  0  0  0  0  0  0  0  0
   -7.6220   -7.0160   14.8880 C   0  0  1  0  0  0  0  0  0  0  0  0
   -3.5380   -5.3580   12.8370 C   0  0  0  0  0  0  0  0  0  0  0  0
   -9.6830   -6.3260   15.7370 C   0  0  2  0  0  0  0  0  0  0  0  0
   -5.4320   -6.4490   13.7690 C   0  0  0  0  0  0  0  0  0  0  0  0
   -4.7910   -5.2620   13.4580 C   0  0  0  0  0  0  0  0  0  0  0  0
   -8.5381   -8.5615   17.5110 H   0  0  0  0  0  0  0  0  0  0  0  0
   -8.5047   -6.5430   18.8124 H   0  0  0  0  0  0  0  0  0  0  0  0
   -3.1501   -3.3742   12.6642 H   0  0  0  0  0  0  0  0  0  0  0  0
   -1.9189   -4.4248   12.0476 H   0  0  0  0  0  0  0  0  0  0  0  0
  -11.1783   -5.3699   14.6968 H   0  0  0  0  0  0  0  0  0  0  0  0
  -11.2535   -5.1271   16.3099 H   0  0  0  0  0  0  0  0  0  0  0  0
   -3.3853   -8.5479   12.7361 H   0  0  0  0  0  0  0  0  0  0  0  0
   -7.3746   -4.1732   14.7586 H   0  0  0  0  0  0  0  0  0  0  0  0
   -6.7019   -6.9731   16.7912 H   0  0  0  0  0  0  0  0  0  0  0  0
   -8.2791   -5.2672   16.8727 H   0  0  0  0  0  0  0  0  0  0  0  0
   -7.4877   -7.9081   14.4565 H   0  0  0  0  0  0  0  0  0  0  0  0
  -10.2177   -7.1542   15.9046 H   0  0  0  0  0  0  0  0  0  0  0  0
  1  4  2  0  0  0  0
  1  5  1  0  0  0  0
  1  6  1  0  0  0  0
  1 13  1  0  0  0  0
  2  7  2  0  0  0  0
  2  8  1  0  0  0  0
  2 13  1  0  0  0  0
  2 14  1  0  0  0  0
  3  9  2  0  0  0  0
  3 10  1  0  0  0  0
  3 14  1  0  0  0  0
  3 15  1  0  0  0  0
 11 25  1  0  0  0  0
 12 26  1  0  0  0  0
 15 22  1  0  0  0  0
 16 27  1  0  0  0  0
 16 29  1  0  0  0  0
 17 28  1  0  0  0  0
 18 23  1  0  0  0  0
 18 28  2  0  0  0  0
 19 23  2  0  0  0  0
 19 30  1  0  0  0  0
 20 24  2  0  0  0  0
 20 31  1  0  0  0  0
 21 24  1  0  0  0  0
 21 27  1  0  0  0  0
 21 30  1  0  0  0  0
 22 29  1  0  0  0  0
 25 26  1  0  0  0  0
 25 27  1  0  0  0  0
 26 29  1  0  0  0  0
 28 31  1  0  0  0  0
 30 31  2  0  0  0  0
 29 43  1  0  0  0  0
 27 42  1  0  0  0  0
 26 41  1  0  0  0  0
 25 40  1  0  0  0  0
 11 32  1  0  0  0  0
 12 33  1  0  0  0  0
 17 34  1  0  0  0  0
 17 35  1  0  0  0  0
 22 36  1  0  0  0  0
 22 37  1  0  0  0  0
 23 38  1  0  0  0  0
 24 39  1  0  0  0  0
M  CHG  4   5  -1   6  -1   8  -1  10  -1
M  END
$$$$
3X2U_ATP_A_501
prProtoss 05262315463D 1   1.00000     0.00000     0
Protoss beta proteinsplus
 43 45  0  0  0  0            999 V2000
  -20.4960   -8.6550    0.5500 P   0  0  0  0  0  0  0  0  0  0  0  0
  -22.4230  -10.7440    0.2670 P   0  0  0  0  0  0  0  0  0  0  0  0
  -24.8500   -9.6130   -0.3620 P   0  0  0  0  0  0  0  0  0  0  0  0
  -19.2730   -8.9560   -0.3010 O   0  0  0  0  0  0  0  0  0  0  0  0
  -20.9690   -7.2310    0.6210 O   0  5  0  0  0  0  0  0  0  0  0  0
  -20.4000   -9.2670    1.9150 O   0  5  0  0  0  0  0  0  0  0  0  0
  -22.5060  -10.7870    1.7690 O   0  0  0  0  0  0  0  0  0  0  0  0
  -21.8330  -11.8310   -0.5940 O   0  5  0  0  0  0  0  0  0  0  0  0
  -25.7890   -9.7320    0.6030 O   0  0  0  0  0  0  0  0  0  0  0  0
  -24.1560   -8.4490   -0.3300 O   0  5  0  0  0  0  0  0  0  0  0  0
  -26.8850   -9.1030   -6.2390 O   0  0  0  0  0  0  0  0  0  0  0  0
  -25.6090   -7.7900   -4.7680 O   0  0  0  0  0  0  0  0  0  0  0  0
  -21.7690   -9.3410   -0.1820 O   0  0  0  0  0  0  0  0  0  0  0  0
  -23.8290  -10.7260   -0.3010 O   0  0  0  0  0  0  0  0  0  0  0  0
  -25.4990  -10.0130   -1.6650 O   0  0  0  0  0  0  0  0  0  0  0  0
  -26.6500  -10.8740   -3.9580 O   0  0  0  0  0  0  0  0  0  0  0  0
  -32.9060   -9.7340   -1.6700 N   0  0  0  0  0  0  0  0  0  0  0  0
  -32.8710   -9.8620   -3.9620 N   0  0  0  0  0  0  0  0  0  0  0  0
  -30.8820  -10.0970   -5.0970 N   0  0  0  0  0  0  0  0  0  0  0  0
  -29.9840  -10.0200   -1.8010 N   0  0  0  0  0  0  0  0  0  0  0  0
  -28.9150  -10.2230   -3.6760 N   0  0  0  0  0  0  0  0  0  0  0  0
  -24.7580  -10.1760   -2.7820 C   0  0  0  0  0  0  0  0  0  0  0  0
  -32.1980   -9.9810   -5.0920 C   0  0  0  0  0  0  0  0  0  0  0  0
  -28.7830  -10.1600   -2.3650 C   0  0  0  0  0  0  0  0  0  0  0  0
  -27.4460   -8.9850   -5.0290 C   0  0  2  0  0  0  0  0  0  0  0  0
  -26.3340   -8.6630   -4.0870 C   0  0  1  0  0  0  0  0  0  0  0  0
  -27.8030  -10.3710   -4.6180 C   0  0  1  0  0  0  0  0  0  0  0  0
  -32.2230   -9.8610   -2.8070 C   0  0  0  0  0  0  0  0  0  0  0  0
  -25.6250   -9.9940   -4.0090 C   0  0  2  0  0  0  0  0  0  0  0  0
  -30.1930  -10.1090   -3.9590 C   0  0  0  0  0  0  0  0  0  0  0  0
  -30.8690   -9.9940   -2.7850 C   0  0  0  0  0  0  0  0  0  0  0  0
  -26.0819   -8.5097   -6.2933 H   0  0  0  0  0  0  0  0  0  0  0  0
  -26.1691   -6.9914   -4.9883 H   0  0  0  0  0  0  0  0  0  0  0  0
  -32.4233   -9.7324   -0.7942 H   0  0  0  0  0  0  0  0  0  0  0  0
  -33.9013   -9.6403   -1.6924 H   0  0  0  0  0  0  0  0  0  0  0  0
  -24.3650  -11.0955   -2.7875 H   0  0  0  0  0  0  0  0  0  0  0  0
  -24.0221   -9.4990   -2.7930 H   0  0  0  0  0  0  0  0  0  0  0  0
  -32.6939   -9.9834   -5.9604 H   0  0  0  0  0  0  0  0  0  0  0  0
  -27.9157  -10.2096   -1.8698 H   0  0  0  0  0  0  0  0  0  0  0  0
  -28.2094   -8.3400   -4.9945 H   0  0  0  0  0  0  0  0  0  0  0  0
  -26.6453   -8.3214   -3.2002 H   0  0  0  0  0  0  0  0  0  0  0  0
  -28.0560  -10.9362   -5.4032 H   0  0  0  0  0  0  0  0  0  0  0  0
  -25.0844  -10.1441   -4.8368 H   0  0  0  0  0  0  0  0  0  0  0  0
  1  4  2  0  0  0  0
  1  5  1  0  0  0  0
  1  6  1  0  0  0  0
  1 13  1  0  0  0  0
  2  7  2  0  0  0  0
  2  8  1  0  0  0  0
  2 13  1  0  0  0  0
  2 14  1  0  0  0  0
  3  9  2  0  0  0  0
  3 10  1  0  0  0  0
  3 14  1  0  0  0  0
  3 15  1  0  0  0  0
 11 25  1  0  0  0  0
 12 26  1  0  0  0  0
 15 22  1  0  0  0  0
 16 27  1  0  0  0  0
 16 29  1  0  0  0  0
 17 28  1  0  0  0  0
 18 23  1  0  0  0  0
 18 28  2  0  0  0  0
 19 23  2  0  0  0  0
 19 30  1  0  0  0  0
 20 24  2  0  0  0  0
 20 31  1  0  0  0  0
 21 24  1  0  0  0  0
 21 27  1  0  0  0  0
 21 30  1  0  0  0  0
 22 29  1  0  0  0  0
 25 26  1  0  0  0  0
 25 27  1  0  0  0  0
 26 29  1  0  0  0  0
 28 31  1  0  0  0  0
 30 31  2  0  0  0  0
 29 43  1  0  0  0  0
 27 42  1  0  0  0  0
 26 41  1  0  0  0  0
 25 40  1  0  0  0  0
 11 32  1  0  0  0  0
 12 33  1  0  0  0  0
 17 34  1  0  0  0  0
 17 35  1  0  0  0  0
 22 36  1  0  0  0  0
 22 37  1  0  0  0  0
 23 38  1  0  0  0  0
 24 39  1  0  0  0  0
M  CHG  4   5  -1   6  -1   8  -1  10  -1
M  END
$$$$
3X2V_ATP_A_403
prProtoss 05262315113D 1   1.00000     0.00000     0
Protoss beta proteinsplus
 43 45  0  0  0  0            999 V2000
  -23.2840   -1.6330   18.3440 P   0  0  0  0  0  0  0  0  0  0  0  0
  -25.7160   -3.3270   17.9410 P   0  0  0  0  0  0  0  0  0  0  0  0
  -25.1670   -6.0250   18.8540 P   0  0  0  0  0  0  0  0  0  0  0  0
  -23.5390   -0.3090   19.0410 O   0  0  0  0  0  0  0  0  0  0  0  0
  -22.0410   -2.3590   18.8350 O   0  5  0  0  0  0  0  0  0  0  0  0
  -23.3730   -1.5720   16.8530 O   0  5  0  0  0  0  0  0  0  0  0  0
  -25.2380   -3.6560   16.5550 O   0  0  0  0  0  0  0  0  0  0  0  0
  -26.9900   -2.5160   18.0880 O   0  5  0  0  0  0  0  0  0  0  0  0
  -25.4170   -6.8910   17.6640 O   0  0  0  0  0  0  0  0  0  0  0  0
  -23.7580   -5.7010   19.2780 O   0  5  0  0  0  0  0  0  0  0  0  0
  -24.1110   -8.0060   24.7140 O   0  0  0  0  0  0  0  0  0  0  0  0
  -23.0290   -6.3140   22.7280 O   0  0  0  0  0  0  0  0  0  0  0  0
  -24.5180   -2.6210   18.8230 O   0  0  0  0  0  0  0  0  0  0  0  0
  -26.0590   -4.6930   18.7160 O   0  0  0  0  0  0  0  0  0  0  0  0
  -25.8710   -6.6640   20.1460 O   0  0  0  0  0  0  0  0  0  0  0  0
  -26.3180   -7.8880   22.6760 O   0  0  0  0  0  0  0  0  0  0  0  0
  -25.9220  -14.1410   20.1830 N   0  0  0  0  0  0  0  0  0  0  0  0
  -25.8870  -14.0460   22.5420 N   0  0  0  0  0  0  0  0  0  0  0  0
  -25.7250  -12.0070   23.6960 N   0  0  0  0  0  0  0  0  0  0  0  0
  -25.7080  -11.1330   20.3100 N   0  0  0  0  0  0  0  0  0  0  0  0
  -25.6030  -10.0610   22.2080 N   0  0  0  0  0  0  0  0  0  0  0  0
  -25.9600   -5.8890   21.3380 C   0  0  0  0  0  0  0  0  0  0  0  0
  -25.8290  -13.3460   23.6830 C   0  0  0  0  0  0  0  0  0  0  0  0
  -25.6210   -9.9170   20.8690 C   0  0  0  0  0  0  0  0  0  0  0  0
  -24.1300   -8.4340   23.3620 C   0  0  2  0  0  0  0  0  0  0  0  0
  -24.0760   -7.2710   22.4050 C   0  0  1  0  0  0  0  0  0  0  0  0
  -25.5460   -8.9610   23.1940 C   0  0  1  0  0  0  0  0  0  0  0  0
  -25.8600  -13.4210   21.3400 C   0  0  0  0  0  0  0  0  0  0  0  0
  -25.4930   -6.7210   22.5200 C   0  0  2  0  0  0  0  0  0  0  0  0
  -25.7030  -11.3430   22.5120 C   0  0  0  0  0  0  0  0  0  0  0  0
  -25.7630  -12.0410   21.3160 C   0  0  0  0  0  0  0  0  0  0  0  0
  -23.2702   -7.4940   24.8898 H   0  0  0  0  0  0  0  0  0  0  0  0
  -22.1398   -6.7707   22.7000 H   0  0  0  0  0  0  0  0  0  0  0  0
  -25.9015  -13.6716   19.3003 H   0  0  0  0  0  0  0  0  0  0  0  0
  -25.9880  -15.1382   20.2176 H   0  0  0  0  0  0  0  0  0  0  0  0
  -26.9087   -5.6078   21.4826 H   0  0  0  0  0  0  0  0  0  0  0  0
  -25.3814   -5.0780   21.2521 H   0  0  0  0  0  0  0  0  0  0  0  0
  -25.8643  -13.8367   24.5536 H   0  0  0  0  0  0  0  0  0  0  0  0
  -25.5769   -9.0489   20.3745 H   0  0  0  0  0  0  0  0  0  0  0  0
  -23.4353   -9.1263   23.1670 H   0  0  0  0  0  0  0  0  0  0  0  0
  -23.9315   -7.6153   21.4773 H   0  0  0  0  0  0  0  0  0  0  0  0
  -25.9131   -9.2619   24.0742 H   0  0  0  0  0  0  0  0  0  0  0  0
  -25.5576   -6.1670   23.3500 H   0  0  0  0  0  0  0  0  0  0  0  0
  1  4  2  0  0  0  0
  1  5  1  0  0  0  0
  1  6  1  0  0  0  0
  1 13  1  0  0  0  0
  2  7  2  0  0  0  0
  2  8  1  0  0  0  0
  2 13  1  0  0  0  0
  2 14  1  0  0  0  0
  3  9  2  0  0  0  0
  3 10  1  0  0  0  0
  3 14  1  0  0  0  0
  3 15  1  0  0  0  0
 11 25  1  0  0  0  0
 12 26  1  0  0  0  0
 15 22  1  0  0  0  0
 16 27  1  0  0  0  0
 16 29  1  0  0  0  0
 17 28  1  0  0  0  0
 18 23  1  0  0  0  0
 18 28  2  0  0  0  0
 19 23  2  0  0  0  0
 19 30  1  0  0  0  0
 20 24  2  0  0  0  0
 20 31  1  0  0  0  0
 21 24  1  0  0  0  0
 21 27  1  0  0  0  0
 21 30  1  0  0  0  0
 22 29  1  0  0  0  0
 25 26  1  0  0  0  0
 25 27  1  0  0  0  0
 26 29  1  0  0  0  0
 28 31  1  0  0  0  0
 30 31  2  0  0  0  0
 29 43  1  0  0  0  0
 27 42  1  0  0  0  0
 26 41  1  0  0  0  0
 25 40  1  0  0  0  0
 11 32  1  0  0  0  0
 12 33  1  0  0  0  0
 17 34  1  0  0  0  0
 17 35  1  0  0  0  0
 22 36  1  0  0  0  0
 22 37  1  0  0  0  0
 23 38  1  0  0  0  0
 24 39  1  0  0  0  0
M  CHG  4   5  -1   6  -1   8  -1  10  -1
M  END
$$$$
3X2V_CO3_A_404
prProtoss 05262315113D 1   1.00000     0.00000     0
Protoss beta proteinsplus
  4  3  0  0  0  0            999 V2000
  -28.5910    2.2770    2.5190 O   0  0  0  0  0  0  0  0  0  0  0  0
  -30.2570    3.5920    3.2050 O   0  5  0  0  0  0  0  0  0  0  0  0
  -30.0260    2.8600    0.9110 O   0  5  0  0  0  0  0  0  0  0  0  0
  -29.5660    2.9000    2.2230 C   0  0  0  0  0  0  0  0  0  0  0  0
  1  4  2  0  0  0  0
  2  4  1  0  0  0  0
  3  4  1  0  0  0  0
M  CHG  2   2  -1   3  -1
M  END
$$$$
3X2W_ATP_A_403
prProtoss 05262315193D 1   1.00000     0.00000     0
Protoss beta proteinsplus
 43 45  0  0  0  0            999 V2000
   -1.0370  -11.4450   16.2200 P   0  0  0  0  0  0  0  0  0  0  0  0
   -2.3440  -11.7270   13.5610 P   0  0  0  0  0  0  0  0  0  0  0  0
   -5.0030  -10.7040   13.7670 P   0  0  0  0  0  0  0  0  0  0  0  0
    0.3330  -10.7500   16.1850 O   0  0  0  0  0  0  0  0  0  0  0  0
   -1.8630  -10.9020   17.4000 O   0  5  0  0  0  0  0  0  0  0  0  0
   -0.9110  -12.9550   16.1340 O   0  5  0  0  0  0  0  0  0  0  0  0
   -2.7670  -13.0910   14.1060 O   0  0  0  0  0  0  0  0  0  0  0  0
   -1.4660  -11.6650   12.3580 O   0  5  0  0  0  0  0  0  0  0  0  0
   -6.0050  -11.8160   13.4210 O   0  0  0  0  0  0  0  0  0  0  0  0
   -4.7630  -10.3200   15.2080 O   0  5  0  0  0  0  0  0  0  0  0  0
   -6.8450   -4.7610   14.5350 O   0  0  0  0  0  0  0  0  0  0  0  0
   -5.4660   -6.8360   15.7550 O   0  0  0  0  0  0  0  0  0  0  0  0
   -1.7590  -10.8800   14.8380 O   0  0  0  0  0  0  0  0  0  0  0  0
   -3.6450  -10.9430   12.9780 O   0  0  0  0  0  0  0  0  0  0  0  0
   -5.5580   -9.3850   13.0100 O   0  0  0  0  0  0  0  0  0  0  0  0
   -6.4990   -6.8180   12.2800 O   0  0  0  0  0  0  0  0  0  0  0  0
  -12.9830   -9.0280   12.1270 N   0  0  0  0  0  0  0  0  0  0  0  0
  -12.7380   -6.6830   12.0940 N   0  0  0  0  0  0  0  0  0  0  0  0
  -10.6560   -5.6540   12.3680 N   0  0  0  0  0  0  0  0  0  0  0  0
   -9.9710   -9.1010   12.6120 N   0  0  0  0  0  0  0  0  0  0  0  0
   -8.8040   -7.2350   12.7160 N   0  0  0  0  0  0  0  0  0  0  0  0
   -4.7010   -8.2670   12.9910 C   0  0  0  0  0  0  0  0  0  0  0  0
  -11.9760   -5.5890   12.1730 C   0  0  0  0  0  0  0  0  0  0  0  0
   -8.7330   -8.5810   12.7740 C   0  0  0  0  0  0  0  0  0  0  0  0
   -7.3690   -6.0770   14.3410 C   0  0  2  0  0  0  0  0  0  0  0  0
   -6.3030   -7.1180   14.6090 C   0  0  1  0  0  0  0  0  0  0  0  0
   -7.6790   -6.2670   12.8710 C   0  0  1  0  0  0  0  0  0  0  0  0
  -12.1980   -7.9330   12.2190 C   0  0  0  0  0  0  0  0  0  0  0  0
   -5.5280   -7.0430   13.3180 C   0  0  2  0  0  0  0  0  0  0  0  0
  -10.0760   -6.8830   12.4970 C   0  0  0  0  0  0  0  0  0  0  0  0
  -10.8310   -8.0500   12.4300 C   0  0  0  0  0  0  0  0  0  0  0  0
   -6.1258   -4.7876   15.2292 H   0  0  0  0  0  0  0  0  0  0  0  0
   -6.0332   -6.7816   16.5768 H   0  0  0  0  0  0  0  0  0  0  0  0
  -12.5824   -9.9396   12.2192 H   0  0  0  0  0  0  0  0  0  0  0  0
  -13.9649   -8.9272   11.9666 H   0  0  0  0  0  0  0  0  0  0  0  0
   -4.2913   -8.1681   12.0842 H   0  0  0  0  0  0  0  0  0  0  0  0
   -3.9783   -8.3810   13.6727 H   0  0  0  0  0  0  0  0  0  0  0  0
  -12.4078   -4.6915   12.0832 H   0  0  0  0  0  0  0  0  0  0  0  0
   -7.8966   -9.1108   12.9146 H   0  0  0  0  0  0  0  0  0  0  0  0
   -8.1791   -6.2326   14.9063 H   0  0  0  0  0  0  0  0  0  0  0  0
   -6.7223   -8.0208   14.7049 H   0  0  0  0  0  0  0  0  0  0  0  0
   -7.9084   -5.3918   12.4452 H   0  0  0  0  0  0  0  0  0  0  0  0
   -4.9190   -6.2509   13.3595 H   0  0  0  0  0  0  0  0  0  0  0  0
  1  4  2  0  0  0  0
  1  5  1  0  0  0  0
  1  6  1  0  0  0  0
  1 13  1  0  0  0  0
  2  7  2  0  0  0  0
  2  8  1  0  0  0  0
  2 13  1  0  0  0  0
  2 14  1  0  0  0  0
  3  9  2  0  0  0  0
  3 10  1  0  0  0  0
  3 14  1  0  0  0  0
  3 15  1  0  0  0  0
 11 25  1  0  0  0  0
 12 26  1  0  0  0  0
 15 22  1  0  0  0  0
 16 27  1  0  0  0  0
 16 29  1  0  0  0  0
 17 28  1  0  0  0  0
 18 23  1  0  0  0  0
 18 28  2  0  0  0  0
 19 23  2  0  0  0  0
 19 30  1  0  0  0  0
 20 24  2  0  0  0  0
 20 31  1  0  0  0  0
 21 24  1  0  0  0  0
 21 27  1  0  0  0  0
 21 30  1  0  0  0  0
 22 29  1  0  0  0  0
 25 26  1  0  0  0  0
 25 27  1  0  0  0  0
 26 29  1  0  0  0  0
 28 31  1  0  0  0  0
 30 31  2  0  0  0  0
 29 43  1  0  0  0  0
 27 42  1  0  0  0  0
 26 41  1  0  0  0  0
 25 40  1  0  0  0  0
 11 32  1  0  0  0  0
 12 33  1  0  0  0  0
 17 34  1  0  0  0  0
 17 35  1  0  0  0  0
 22 36  1  0  0  0  0
 22 37  1  0  0  0  0
 23 38  1  0  0  0  0
 24 39  1  0  0  0  0
M  CHG  4   5  -1   6  -1   8  -1  10  -1
M  END
$$$$
3X2W_CO3_A_404
prProtoss 05262315193D 1   1.00000     0.00000     0
Protoss beta proteinsplus
  4  3  0  0  0  0            999 V2000
    2.9960  -27.1090   11.6380 O   0  0  0  0  0  0  0  0  0  0  0  0
    4.2520  -26.7000    9.8070 O   0  5  0  0  0  0  0  0  0  0  0  0
    3.5760  -28.8210   10.3110 O   0  5  0  0  0  0  0  0  0  0  0  0
    3.6220  -27.5440   10.5920 C   0  0  0  0  0  0  0  0  0  0  0  0
  1  4  2  0  0  0  0
  2  4  1  0  0  0  0
  3  4  1  0  0  0  0
M  CHG  2   2  -1   3  -1
M  END
$$$$
4DH1_ATP_A_402
prProtoss 08292320043D 1   1.00000     0.00000     0
Protoss beta proteinsplus
 43 45  0  0  0  0            999 V2000
   -0.7360   11.7260  -16.1410 P   0  0  0  0  0  0  0  0  0  0  0  0
   -2.3910   11.7500  -13.5810 P   0  0  0  0  0  0  0  0  0  0  0  0
   -5.0980   10.5530  -13.1230 P   0  0  0  0  0  0  0  0  0  0  0  0
    0.3490   10.6780  -16.2440 O   0  0  0  0  0  0  0  0  0  0  0  0
   -1.4240   11.9410  -17.4710 O   0  5  0  0  0  0  0  0  0  0  0  0
   -0.1370   12.9760  -15.5960 O   0  5  0  0  0  0  0  0  0  0  0  0
   -3.1950   12.9910  -13.8080 O   0  0  0  0  0  0  0  0  0  0  0  0
   -1.2430   11.7790  -12.6110 O   0  5  0  0  0  0  0  0  0  0  0  0
   -5.6530   11.3460  -11.9810 O   0  0  0  0  0  0  0  0  0  0  0  0
   -5.6110   10.8420  -14.4970 O   0  5  0  0  0  0  0  0  0  0  0  0
   -7.3210    4.3440  -14.4740 O   0  0  0  0  0  0  0  0  0  0  0  0
   -6.0940    6.3010  -16.1370 O   0  0  0  0  0  0  0  0  0  0  0  0
   -1.8880   11.1610  -15.0690 O   0  0  0  0  0  0  0  0  0  0  0  0
   -3.4540   10.6010  -13.0720 O   0  0  0  0  0  0  0  0  0  0  0  0
   -5.4210    8.9900  -12.8090 O   0  0  0  0  0  0  0  0  0  0  0  0
   -6.9650    6.8110  -12.6590 O   0  0  0  0  0  0  0  0  0  0  0  0
  -13.6520    8.8360  -12.4030 N   0  0  0  0  0  0  0  0  0  0  0  0
  -13.3190    6.4960  -12.2310 N   0  0  0  0  0  0  0  0  0  0  0  0
  -11.1870    5.4870  -12.5030 N   0  0  0  0  0  0  0  0  0  0  0  0
  -10.5460    8.9640  -12.9690 N   0  0  0  0  0  0  0  0  0  0  0  0
   -9.3210    7.0860  -12.9860 N   0  0  0  0  0  0  0  0  0  0  0  0
   -5.0460    7.9930  -13.7480 C   0  0  0  0  0  0  0  0  0  0  0  0
  -12.5210    5.4040  -12.2640 C   0  0  0  0  0  0  0  0  0  0  0  0
   -9.3130    8.4370  -13.1270 C   0  0  0  0  0  0  0  0  0  0  0  0
   -7.8780    5.6720  -14.4890 C   0  0  2  0  0  0  0  0  0  0  0  0
   -6.8700    6.6790  -14.9960 C   0  0  1  0  0  0  0  0  0  0  0  0
   -8.1660    6.1350  -13.0780 C   0  0  1  0  0  0  0  0  0  0  0  0
  -12.8340    7.7580  -12.4430 C   0  0  0  0  0  0  0  0  0  0  0  0
   -6.0100    6.8100  -13.7490 C   0  0  2  0  0  0  0  0  0  0  0  0
  -10.5740    6.6980  -12.7320 C   0  0  0  0  0  0  0  0  0  0  0  0
  -11.3840    7.9360  -12.7160 C   0  0  0  0  0  0  0  0  0  0  0  0
   -7.0495    4.0859  -15.4012 H   0  0  0  0  0  0  0  0  0  0  0  0
   -6.7032    6.1179  -16.9086 H   0  0  0  0  0  0  0  0  0  0  0  0
  -13.2810    9.7512  -12.5602 H   0  0  0  0  0  0  0  0  0  0  0  0
  -14.6272    8.7170  -12.2163 H   0  0  0  0  0  0  0  0  0  0  0  0
   -4.1307    7.6623  -13.5182 H   0  0  0  0  0  0  0  0  0  0  0  0
   -5.0340    8.3994  -14.6616 H   0  0  0  0  0  0  0  0  0  0  0  0
  -12.9279    4.5042  -12.1069 H   0  0  0  0  0  0  0  0  0  0  0  0
   -8.4938    8.9756  -13.3238 H   0  0  0  0  0  0  0  0  0  0  0  0
   -8.7096    5.6978  -15.0437 H   0  0  0  0  0  0  0  0  0  0  0  0
   -7.3292    7.5485  -15.1777 H   0  0  0  0  0  0  0  0  0  0  0  0
   -8.3317    5.3437  -12.4895 H   0  0  0  0  0  0  0  0  0  0  0  0
   -5.4638    5.9760  -13.6705 H   0  0  0  0  0  0  0  0  0  0  0  0
  1  4  2  0  0  0  0
  1  5  1  0  0  0  0
  1  6  1  0  0  0  0
  1 13  1  0  0  0  0
  2  7  2  0  0  0  0
  2  8  1  0  0  0  0
  2 13  1  0  0  0  0
  2 14  1  0  0  0  0
  3  9  2  0  0  0  0
  3 10  1  0  0  0  0
  3 14  1  0  0  0  0
  3 15  1  0  0  0  0
 11 25  1  0  0  0  0
 12 26  1  0  0  0  0
 15 22  1  0  0  0  0
 16 27  1  0  0  0  0
 16 29  1  0  0  0  0
 17 28  1  0  0  0  0
 18 23  1  0  0  0  0
 18 28  2  0  0  0  0
 19 23  2  0  0  0  0
 19 30  1  0  0  0  0
 20 24  2  0  0  0  0
 20 31  1  0  0  0  0
 21 24  1  0  0  0  0
 21 27  1  0  0  0  0
 21 30  1  0  0  0  0
 22 29  1  0  0  0  0
 25 26  1  0  0  0  0
 25 27  1  0  0  0  0
 26 29  1  0  0  0  0
 28 31  1  0  0  0  0
 30 31  2  0  0  0  0
 29 43  1  0  0  0  0
 27 42  1  0  0  0  0
 26 41  1  0  0  0  0
 25 40  1  0  0  0  0
 11 32  1  0  0  0  0
 12 33  1  0  0  0  0
 17 34  1  0  0  0  0
 17 35  1  0  0  0  0
 22 36  1  0  0  0  0
 22 37  1  0  0  0  0
 23 38  1  0  0  0  0
 24 39  1  0  0  0  0
M  CHG  4   5  -1   6  -1   8  -1  10  -1
M  END
$$$$
4DH3_ATP_A_403
prProtoss 08292320043D 1   1.00000     0.00000     0
Protoss beta proteinsplus
 43 45  0  0  0  0            999 V2000
   -0.9470   11.4310  -16.1540 P   0  0  0  0  0  0  0  0  0  0  0  0
   -2.5180   11.6450  -13.5300 P   0  0  0  0  0  0  0  0  0  0  0  0
   -5.3250   10.6750  -13.6790 P   0  0  0  0  0  0  0  0  0  0  0  0
    0.2220   10.5670  -15.7350 O   0  0  0  0  0  0  0  0  0  0  0  0
   -1.4400   11.0660  -17.5380 O   0  5  0  0  0  0  0  0  0  0  0  0
   -0.5290   12.8640  -16.0590 O   0  5  0  0  0  0  0  0  0  0  0  0
   -3.0260   13.0370  -13.5490 O   0  0  0  0  0  0  0  0  0  0  0  0
   -1.3590   11.3090  -12.6460 O   0  5  0  0  0  0  0  0  0  0  0  0
   -6.1300   11.8200  -13.1300 O   0  0  0  0  0  0  0  0  0  0  0  0
   -5.3230   10.4710  -15.1500 O   0  5  0  0  0  0  0  0  0  0  0  0
   -7.2570    4.5510  -14.6010 O   0  0  0  0  0  0  0  0  0  0  0  0
   -5.8250    6.5710  -15.9140 O   0  0  0  0  0  0  0  0  0  0  0  0
   -2.2240   11.1360  -15.1000 O   0  0  0  0  0  0  0  0  0  0  0  0
   -3.7920   10.7340  -13.0730 O   0  0  0  0  0  0  0  0  0  0  0  0
   -5.8650    9.3010  -13.0280 O   0  0  0  0  0  0  0  0  0  0  0  0
   -7.0420    6.7890  -12.4950 O   0  0  0  0  0  0  0  0  0  0  0  0
  -13.6530    8.9600  -12.3990 N   0  0  0  0  0  0  0  0  0  0  0  0
  -13.3150    6.6080  -12.3130 N   0  0  0  0  0  0  0  0  0  0  0  0
  -11.1930    5.5950  -12.5920 N   0  0  0  0  0  0  0  0  0  0  0  0
  -10.5330    9.0930  -12.9170 N   0  0  0  0  0  0  0  0  0  0  0  0
   -9.3300    7.1850  -12.9900 N   0  0  0  0  0  0  0  0  0  0  0  0
   -5.0930    8.1120  -13.1930 C   0  0  0  0  0  0  0  0  0  0  0  0
  -12.5240    5.5120  -12.3750 C   0  0  0  0  0  0  0  0  0  0  0  0
   -9.2990    8.5500  -13.0820 C   0  0  0  0  0  0  0  0  0  0  0  0
   -7.7850    5.8910  -14.5210 C   0  0  2  0  0  0  0  0  0  0  0  0
   -6.7050    6.9000  -14.8230 C   0  0  1  0  0  0  0  0  0  0  0  0
   -8.1980    6.2060  -13.1030 C   0  0  1  0  0  0  0  0  0  0  0  0
  -12.8310    7.8820  -12.4670 C   0  0  0  0  0  0  0  0  0  0  0  0
   -5.9820    6.9090  -13.4710 C   0  0  2  0  0  0  0  0  0  0  0  0
  -10.5750    6.8100  -12.7670 C   0  0  0  0  0  0  0  0  0  0  0  0
  -11.3800    8.0640  -12.7150 C   0  0  0  0  0  0  0  0  0  0  0  0
   -6.9052    4.3858  -15.5224 H   0  0  0  0  0  0  0  0  0  0  0  0
   -6.3581    6.4734  -16.7544 H   0  0  0  0  0  0  0  0  0  0  0  0
  -13.2805    9.8809  -12.5140 H   0  0  0  0  0  0  0  0  0  0  0  0
  -14.6311    8.8333  -12.2339 H   0  0  0  0  0  0  0  0  0  0  0  0
   -4.5704    7.9444  -12.3571 H   0  0  0  0  0  0  0  0  0  0  0  0
   -4.4638    8.2361  -13.9602 H   0  0  0  0  0  0  0  0  0  0  0  0
  -12.9386    4.6098  -12.2562 H   0  0  0  0  0  0  0  0  0  0  0  0
   -8.4694    9.0825  -13.2501 H   0  0  0  0  0  0  0  0  0  0  0  0
   -8.5573    6.0035  -15.1463 H   0  0  0  0  0  0  0  0  0  0  0  0
   -7.1199    7.7951  -14.9863 H   0  0  0  0  0  0  0  0  0  0  0  0
   -8.4371    5.3597  -12.6270 H   0  0  0  0  0  0  0  0  0  0  0  0
   -5.4161    6.0863  -13.4167 H   0  0  0  0  0  0  0  0  0  0  0  0
  1  4  2  0  0  0  0
  1  5  1  0  0  0  0
  1  6  1  0  0  0  0
  1 13  1  0  0  0  0
  2  7  2  0  0  0  0
  2  8  1  0  0  0  0
  2 13  1  0  0  0  0
  2 14  1  0  0  0  0
  3  9  2  0  0  0  0
  3 10  1  0  0  0  0
  3 14  1  0  0  0  0
  3 15  1  0  0  0  0
 11 25  1  0  0  0  0
 12 26  1  0  0  0  0
 15 22  1  0  0  0  0
 16 27  1  0  0  0  0
 16 29  1  0  0  0  0
 17 28  1  0  0  0  0
 18 23  1  0  0  0  0
 18 28  2  0  0  0  0
 19 23  2  0  0  0  0
 19 30  1  0  0  0  0
 20 24  2  0  0  0  0
 20 31  1  0  0  0  0
 21 24  1  0  0  0  0
 21 27  1  0  0  0  0
 21 30  1  0  0  0  0
 22 29  1  0  0  0  0
 25 26  1  0  0  0  0
 25 27  1  0  0  0  0
 26 29  1  0  0  0  0
 28 31  1  0  0  0  0
 30 31  2  0  0  0  0
 29 43  1  0  0  0  0
 27 42  1  0  0  0  0
 26 41  1  0  0  0  0
 25 40  1  0  0  0  0
 11 32  1  0  0  0  0
 12 33  1  0  0  0  0
 17 34  1  0  0  0  0
 17 35  1  0  0  0  0
 22 36  1  0  0  0  0
 22 37  1  0  0  0  0
 23 38  1  0  0  0  0
 24 39  1  0  0  0  0
M  CHG  4   5  -1   6  -1   8  -1  10  -1
M  END
$$$$
4WB5_ATP_A_401
prProtoss 05262315503D 1   1.00000     0.00000     0
Protoss beta proteinsplus
 43 45  0  0  0  0            999 V2000
  -20.6290   -7.9110    0.5920 P   0  0  0  0  0  0  0  0  0  0  0  0
  -22.5100  -10.2890    0.8570 P   0  0  0  0  0  0  0  0  0  0  0  0
  -25.2170   -9.6490   -0.0680 P   0  0  0  0  0  0  0  0  0  0  0  0
  -19.2880   -8.2940   -0.0340 O   0  0  0  0  0  0  0  0  0  0  0  0
  -21.1980   -6.5830   -0.0060 O   0  5  0  0  0  0  0  0  0  0  0  0
  -20.5230   -7.9940    2.1400 O   0  5  0  0  0  0  0  0  0  0  0  0
  -21.6040  -11.5010    0.7990 O   0  0  0  0  0  0  0  0  0  0  0  0
  -22.7490   -9.9580    2.3080 O   0  5  0  0  0  0  0  0  0  0  0  0
  -24.7380   -8.2410   -0.4430 O   0  0  0  0  0  0  0  0  0  0  0  0
  -26.2630   -9.7940    1.0300 O   0  5  0  0  0  0  0  0  0  0  0  0
  -26.9000   -8.7110   -6.1370 O   0  0  0  0  0  0  0  0  0  0  0  0
  -25.2390   -7.6230   -4.1150 O   0  0  0  0  0  0  0  0  0  0  0  0
  -21.8610   -8.9910    0.0660 O   0  0  0  0  0  0  0  0  0  0  0  0
  -23.9520  -10.5990    0.2440 O   0  0  0  0  0  0  0  0  0  0  0  0
  -25.8410  -10.2880   -1.4160 O   0  0  0  0  0  0  0  0  0  0  0  0
  -26.9670  -10.7750   -3.8800 O   0  0  0  0  0  0  0  0  0  0  0  0
  -33.3420   -9.7810   -1.5210 N   0  0  0  0  0  0  0  0  0  0  0  0
  -33.1700   -9.8530   -3.8710 N   0  0  0  0  0  0  0  0  0  0  0  0
  -31.0810   -9.9440   -5.0140 N   0  0  0  0  0  0  0  0  0  0  0  0
  -30.2270   -9.8040   -1.5610 N   0  0  0  0  0  0  0  0  0  0  0  0
  -29.1110   -9.9130   -3.5040 N   0  0  0  0  0  0  0  0  0  0  0  0
  -24.9850  -10.3350   -2.5630 C   0  0  0  0  0  0  0  0  0  0  0  0
  -32.4390   -9.9140   -5.0150 C   0  0  0  0  0  0  0  0  0  0  0  0
  -29.0040   -9.8630   -2.1550 C   0  0  0  0  0  0  0  0  0  0  0  0
  -27.4250   -8.6090   -4.7780 C   0  0  2  0  0  0  0  0  0  0  0  0
  -26.3040   -8.5340   -3.7880 C   0  0  1  0  0  0  0  0  0  0  0  0
  -28.0010   -9.9880   -4.4940 C   0  0  1  0  0  0  0  0  0  0  0  0
  -32.5960   -9.8160   -2.6440 C   0  0  0  0  0  0  0  0  0  0  0  0
  -25.7860   -9.9640   -3.7970 C   0  0  2  0  0  0  0  0  0  0  0  0
  -30.4030   -9.9000   -3.8370 C   0  0  0  0  0  0  0  0  0  0  0  0
  -31.1340   -9.8430   -2.5740 C   0  0  0  0  0  0  0  0  0  0  0  0
  -26.3407   -7.9072   -6.3395 H   0  0  0  0  0  0  0  0  0  0  0  0
  -25.6055   -6.6958   -4.1926 H   0  0  0  0  0  0  0  0  0  0  0  0
  -32.8971   -9.7540   -0.6258 H   0  0  0  0  0  0  0  0  0  0  0  0
  -34.3400   -9.7820   -1.5835 H   0  0  0  0  0  0  0  0  0  0  0  0
  -24.6168  -11.2588   -2.6682 H   0  0  0  0  0  0  0  0  0  0  0  0
  -24.2321   -9.6874   -2.4455 H   0  0  0  0  0  0  0  0  0  0  0  0
  -32.9195   -9.9377   -5.8916 H   0  0  0  0  0  0  0  0  0  0  0  0
  -28.1362   -9.8687   -1.6582 H   0  0  0  0  0  0  0  0  0  0  0  0
  -28.0943   -7.8740   -4.6697 H   0  0  0  0  0  0  0  0  0  0  0  0
  -26.6686   -8.3141   -2.8832 H   0  0  0  0  0  0  0  0  0  0  0  0
  -28.3141  -10.4187   -5.3404 H   0  0  0  0  0  0  0  0  0  0  0  0
  -25.2257  -10.1090   -4.6125 H   0  0  0  0  0  0  0  0  0  0  0  0
  1  4  2  0  0  0  0
  1  5  1  0  0  0  0
  1  6  1  0  0  0  0
  1 13  1  0  0  0  0
  2  7  2  0  0  0  0
  2  8  1  0  0  0  0
  2 13  1  0  0  0  0
  2 14  1  0  0  0  0
  3  9  2  0  0  0  0
  3 10  1  0  0  0  0
  3 14  1  0  0  0  0
  3 15  1  0  0  0  0
 11 25  1  0  0  0  0
 12 26  1  0  0  0  0
 15 22  1  0  0  0  0
 16 27  1  0  0  0  0
 16 29  1  0  0  0  0
 17 28  1  0  0  0  0
 18 23  1  0  0  0  0
 18 28  2  0  0  0  0
 19 23  2  0  0  0  0
 19 30  1  0  0  0  0
 20 24  2  0  0  0  0
 20 31  1  0  0  0  0
 21 24  1  0  0  0  0
 21 27  1  0  0  0  0
 21 30  1  0  0  0  0
 22 29  1  0  0  0  0
 25 26  1  0  0  0  0
 25 27  1  0  0  0  0
 26 29  1  0  0  0  0
 28 31  1  0  0  0  0
 30 31  2  0  0  0  0
 29 43  1  0  0  0  0
 27 42  1  0  0  0  0
 26 41  1  0  0  0  0
 25 40  1  0  0  0  0
 11 32  1  0  0  0  0
 12 33  1  0  0  0  0
 17 34  1  0  0  0  0
 17 35  1  0  0  0  0
 22 36  1  0  0  0  0
 22 37  1  0  0  0  0
 23 38  1  0  0  0  0
 24 39  1  0  0  0  0
M  CHG  4   5  -1   6  -1   8  -1  10  -1
M  END
$$$$
4WB6_ATP_A_401
prProtoss 05262316043D 1   1.00000     0.00000     0
Protoss beta proteinsplus
 43 45  0  0  0  0            999 V2000
  -10.4120  -14.0680  -31.8510 P   0  0  0  0  0  0  0  0  0  0  0  0
   -8.1130  -13.2610  -30.3240 P   0  0  0  0  0  0  0  0  0  0  0  0
   -5.7490  -14.6090  -31.2310 P   0  0  0  0  0  0  0  0  0  0  0  0
  -10.3620  -15.2460  -32.8170 O   0  0  0  0  0  0  0  0  0  0  0  0
  -11.1650  -12.8690  -32.3730 O   0  5  0  0  0  0  0  0  0  0  0  0
  -10.8020  -14.4830  -30.4450 O   0  5  0  0  0  0  0  0  0  0  0  0
   -8.4950  -11.8470  -30.0020 O   0  0  0  0  0  0  0  0  0  0  0  0
   -8.3570  -14.3570  -29.3180 O   0  5  0  0  0  0  0  0  0  0  0  0
   -6.6550  -15.3730  -32.1820 O   0  0  0  0  0  0  0  0  0  0  0  0
   -5.1220  -15.3790  -30.0840 O   0  5  0  0  0  0  0  0  0  0  0  0
   -2.8310  -14.2290  -36.8120 O   0  0  0  0  0  0  0  0  0  0  0  0
   -5.2300  -14.8620  -35.6830 O   0  0  0  0  0  0  0  0  0  0  0  0
   -8.8580  -13.6280  -31.7170 O   0  0  0  0  0  0  0  0  0  0  0  0
   -6.5450  -13.2890  -30.7270 O   0  0  0  0  0  0  0  0  0  0  0  0
   -4.5130  -14.0130  -32.0850 O   0  0  0  0  0  0  0  0  0  0  0  0
   -2.5000  -13.2910  -34.0200 O   0  0  0  0  0  0  0  0  0  0  0  0
    1.8140  -18.1670  -31.6410 N   0  0  0  0  0  0  0  0  0  0  0  0
    2.4480  -17.0660  -33.6170 N   0  0  0  0  0  0  0  0  0  0  0  0
    1.0520  -15.5640  -34.8110 N   0  0  0  0  0  0  0  0  0  0  0  0
   -0.8990  -16.6070  -32.0650 N   0  0  0  0  0  0  0  0  0  0  0  0
   -1.1680  -15.2310  -33.7920 N   0  0  0  0  0  0  0  0  0  0  0  0
   -4.7550  -13.0540  -33.1210 C   0  0  0  0  0  0  0  0  0  0  0  0
    2.2060  -16.2280  -34.6440 C   0  0  0  0  0  0  0  0  0  0  0  0
   -1.7420  -15.7590  -32.6970 C   0  0  0  0  0  0  0  0  0  0  0  0
   -2.7760  -15.0030  -35.6050 C   0  0  2  0  0  0  0  0  0  0  0  0
   -4.0680  -14.7890  -34.8600 C   0  0  1  0  0  0  0  0  0  0  0  0
   -1.7710  -14.2800  -34.7370 C   0  0  1  0  0  0  0  0  0  0  0  0
    1.5360  -17.3230  -32.6580 C   0  0  0  0  0  0  0  0  0  0  0  0
   -3.8880  -13.3700  -34.3400 C   0  0  2  0  0  0  0  0  0  0  0  0
    0.0540  -15.7280  -33.9120 C   0  0  0  0  0  0  0  0  0  0  0  0
    0.2390  -16.6340  -32.7690 C   0  0  0  0  0  0  0  0  0  0  0  0
   -3.6055  -14.5320  -37.3673 H   0  0  0  0  0  0  0  0  0  0  0  0
   -5.2807  -15.7654  -36.1088 H   0  0  0  0  0  0  0  0  0  0  0  0
    1.1259  -18.3465  -30.9379 H   0  0  0  0  0  0  0  0  0  0  0  0
    2.7079  -18.6124  -31.5911 H   0  0  0  0  0  0  0  0  0  0  0  0
   -4.5317  -12.1393  -32.7841 H   0  0  0  0  0  0  0  0  0  0  0  0
   -5.7194  -13.0864  -33.3834 H   0  0  0  0  0  0  0  0  0  0  0  0
    2.9289  -16.0930  -35.3216 H   0  0  0  0  0  0  0  0  0  0  0  0
   -2.6709  -15.5518  -32.3899 H   0  0  0  0  0  0  0  0  0  0  0  0
   -2.5553  -15.9665  -35.7563 H   0  0  0  0  0  0  0  0  0  0  0  0
   -4.1406  -15.4322  -34.0978 H   0  0  0  0  0  0  0  0  0  0  0  0
   -1.0647  -13.8529  -35.3016 H   0  0  0  0  0  0  0  0  0  0  0  0
   -4.0964  -12.7207  -35.0714 H   0  0  0  0  0  0  0  0  0  0  0  0
  1  4  2  0  0  0  0
  1  5  1  0  0  0  0
  1  6  1  0  0  0  0
  1 13  1  0  0  0  0
  2  7  2  0  0  0  0
  2  8  1  0  0  0  0
  2 13  1  0  0  0  0
  2 14  1  0  0  0  0
  3  9  2  0  0  0  0
  3 10  1  0  0  0  0
  3 14  1  0  0  0  0
  3 15  1  0  0  0  0
 11 25  1  0  0  0  0
 12 26  1  0  0  0  0
 15 22  1  0  0  0  0
 16 27  1  0  0  0  0
 16 29  1  0  0  0  0
 17 28  1  0  0  0  0
 18 23  1  0  0  0  0
 18 28  2  0  0  0  0
 19 23  2  0  0  0  0
 19 30  1  0  0  0  0
 20 24  2  0  0  0  0
 20 31  1  0  0  0  0
 21 24  1  0  0  0  0
 21 27  1  0  0  0  0
 21 30  1  0  0  0  0
 22 29  1  0  0  0  0
 25 26  1  0  0  0  0
 25 27  1  0  0  0  0
 26 29  1  0  0  0  0
 28 31  1  0  0  0  0
 30 31  2  0  0  0  0
 29 43  1  0  0  0  0
 27 42  1  0  0  0  0
 26 41  1  0  0  0  0
 25 40  1  0  0  0  0
 11 32  1  0  0  0  0
 12 33  1  0  0  0  0
 17 34  1  0  0  0  0
 17 35  1  0  0  0  0
 22 36  1  0  0  0  0
 22 37  1  0  0  0  0
 23 38  1  0  0  0  0
 24 39  1  0  0  0  0
M  CHG  4   5  -1   6  -1   8  -1  10  -1
M  END
$$$$
4WB6_ATP_B_401
prProtoss 05262316043D 1   1.00000     0.00000     0
Protoss beta proteinsplus
 43 45  0  0  0  0            999 V2000
  -26.3120  -19.9770    7.2440 P   0  0  0  0  0  0  0  0  0  0  0  0
  -27.4030  -22.3000    5.9540 P   0  0  0  0  0  0  0  0  0  0  0  0
  -26.8920  -24.6750    7.4970 P   0  0  0  0  0  0  0  0  0  0  0  0
  -25.5600  -20.0300    5.9250 O   0  0  0  0  0  0  0  0  0  0  0  0
  -25.4210  -20.1130    8.4590 O   0  5  0  0  0  0  0  0  0  0  0  0
  -27.3070  -18.8480    7.3480 O   0  5  0  0  0  0  0  0  0  0  0  0
  -26.1120  -22.4900    5.1850 O   0  0  0  0  0  0  0  0  0  0  0  0
  -28.6230  -21.7330    5.2830 O   0  5  0  0  0  0  0  0  0  0  0  0
  -26.0430  -25.6210    6.6720 O   0  0  0  0  0  0  0  0  0  0  0  0
  -26.2480  -23.8120    8.5610 O   0  5  0  0  0  0  0  0  0  0  0  0
  -28.7070  -26.4510   13.2170 O   0  0  0  0  0  0  0  0  0  0  0  0
  -27.6820  -24.3980   11.8980 O   0  0  0  0  0  0  0  0  0  0  0  0
  -27.1800  -21.3480    7.2620 O   0  0  0  0  0  0  0  0  0  0  0  0
  -27.8410  -23.7230    6.5890 O   0  0  0  0  0  0  0  0  0  0  0  0
  -27.9340  -25.6230    8.2620 O   0  0  0  0  0  0  0  0  0  0  0  0
  -29.3930  -27.0800   10.2580 O   0  0  0  0  0  0  0  0  0  0  0  0
  -25.4310  -32.7300    9.6230 N   0  0  0  0  0  0  0  0  0  0  0  0
  -26.8590  -32.7280   11.4980 N   0  0  0  0  0  0  0  0  0  0  0  0
  -28.1360  -30.8240   12.1260 N   0  0  0  0  0  0  0  0  0  0  0  0
  -26.4030  -29.7550    9.2510 N   0  0  0  0  0  0  0  0  0  0  0  0
  -27.8540  -28.8330   10.6660 N   0  0  0  0  0  0  0  0  0  0  0  0
  -28.9780  -25.0090    9.0120 C   0  0  0  0  0  0  0  0  0  0  0  0
  -27.7400  -32.1010   12.3000 C   0  0  0  0  0  0  0  0  0  0  0  0
  -27.1030  -28.6390    9.5620 C   0  0  0  0  0  0  0  0  0  0  0  0
  -27.9260  -26.8270   12.0790 C   0  0  2  0  0  0  0  0  0  0  0  0
  -27.7950  -25.6270   11.1760 C   0  0  1  0  0  0  0  0  0  0  0  0
  -28.7440  -27.8260   11.2840 C   0  0  1  0  0  0  0  0  0  0  0  0
  -26.3110  -32.0980   10.4260 C   0  0  0  0  0  0  0  0  0  0  0  0
  -29.0890  -25.6860   10.3810 C   0  0  2  0  0  0  0  0  0  0  0  0
  -27.6570  -30.0800   11.1040 C   0  0  0  0  0  0  0  0  0  0  0  0
  -26.7000  -30.6950   10.1720 C   0  0  0  0  0  0  0  0  0  0  0  0
  -28.5694  -25.4794   13.4095 H   0  0  0  0  0  0  0  0  0  0  0  0
  -26.8720  -24.4287   12.4836 H   0  0  0  0  0  0  0  0  0  0  0  0
  -25.0372  -32.2514    8.8382 H   0  0  0  0  0  0  0  0  0  0  0  0
  -25.1723  -33.6772    9.8123 H   0  0  0  0  0  0  0  0  0  0  0  0
  -29.8434  -25.1068    8.5206 H   0  0  0  0  0  0  0  0  0  0  0  0
  -28.7729  -24.0381    9.1359 H   0  0  0  0  0  0  0  0  0  0  0  0
  -28.1229  -32.6121   13.0695 H   0  0  0  0  0  0  0  0  0  0  0  0
  -27.0682  -27.7850    9.0429 H   0  0  0  0  0  0  0  0  0  0  0  0
  -27.0350  -27.1971   12.3418 H   0  0  0  0  0  0  0  0  0  0  0  0
  -27.0111  -25.7402   10.5655 H   0  0  0  0  0  0  0  0  0  0  0  0
  -29.4192  -28.2710   11.8723 H   0  0  0  0  0  0  0  0  0  0  0  0
  -29.8139  -25.2403   10.9063 H   0  0  0  0  0  0  0  0  0  0  0  0
  1  4  2  0  0  0  0
  1  5  1  0  0  0  0
  1  6  1  0  0  0  0
  1 13  1  0  0  0  0
  2  7  2  0  0  0  0
  2  8  1  0  0  0  0
  2 13  1  0  0  0  0
  2 14  1  0  0  0  0
  3  9  2  0  0  0  0
  3 10  1  0  0  0  0
  3 14  1  0  0  0  0
  3 15  1  0  0  0  0
 11 25  1  0  0  0  0
 12 26  1  0  0  0  0
 15 22  1  0  0  0  0
 16 27  1  0  0  0  0
 16 29  1  0  0  0  0
 17 28  1  0  0  0  0
 18 23  1  0  0  0  0
 18 28  2  0  0  0  0
 19 23  2  0  0  0  0
 19 30  1  0  0  0  0
 20 24  2  0  0  0  0
 20 31  1  0  0  0  0
 21 24  1  0  0  0  0
 21 27  1  0  0  0  0
 21 30  1  0  0  0  0
 22 29  1  0  0  0  0
 25 26  1  0  0  0  0
 25 27  1  0  0  0  0
 26 29  1  0  0  0  0
 28 31  1  0  0  0  0
 30 31  2  0  0  0  0
 29 43  1  0  0  0  0
 27 42  1  0  0  0  0
 26 41  1  0  0  0  0
 25 40  1  0  0  0  0
 11 32  1  0  0  0  0
 12 33  1  0  0  0  0
 17 34  1  0  0  0  0
 17 35  1  0  0  0  0
 22 36  1  0  0  0  0
 22 37  1  0  0  0  0
 23 38  1  0  0  0  0
 24 39  1  0  0  0  0
M  CHG  4   5  -1   6  -1   8  -1  10  -1
M  END
$$$$
4WB8_ATP_A_401
prProtoss 05262315583D 1   1.00000     0.00000     0
Protoss beta proteinsplus
 43 45  0  0  0  0            999 V2000
   52.4350    7.9930   -0.7530 P   0  0  0  0  0  0  0  0  0  0  0  0
   50.7080   10.3470   -1.0790 P   0  0  0  0  0  0  0  0  0  0  0  0
   48.0660    9.7650   -0.0300 P   0  0  0  0  0  0  0  0  0  0  0  0
   52.4540    8.0230   -2.2730 O   0  0  0  0  0  0  0  0  0  0  0  0
   51.8130    6.7920   -0.1630 O   0  5  0  0  0  0  0  0  0  0  0  0
   53.7610    8.3750   -0.0970 O   0  5  0  0  0  0  0  0  0  0  0  0
   50.3000    9.9140   -2.4800 O   0  0  0  0  0  0  0  0  0  0  0  0
   51.5970   11.5450   -0.9990 O   0  5  0  0  0  0  0  0  0  0  0  0
   47.0780    9.9690   -1.1560 O   0  0  0  0  0  0  0  0  0  0  0  0
   48.4280    8.3900    0.3620 O   0  5  0  0  0  0  0  0  0  0  0  0
   46.2300    8.7240    5.8680 O   0  0  0  0  0  0  0  0  0  0  0  0
   47.9250    7.7050    3.8890 O   0  0  0  0  0  0  0  0  0  0  0  0
   51.3280    9.1170   -0.2530 O   0  0  0  0  0  0  0  0  0  0  0  0
   49.3380   10.6800   -0.2770 O   0  0  0  0  0  0  0  0  0  0  0  0
   47.3790   10.4820    1.2230 O   0  0  0  0  0  0  0  0  0  0  0  0
   46.1460   10.8770    3.7580 O   0  0  0  0  0  0  0  0  0  0  0  0
   39.7730    9.9860    1.4090 N   0  0  0  0  0  0  0  0  0  0  0  0
   39.9900   10.0790    3.7870 N   0  0  0  0  0  0  0  0  0  0  0  0
   42.1250   10.0940    4.8930 N   0  0  0  0  0  0  0  0  0  0  0  0
   42.8680    9.9000    1.4400 N   0  0  0  0  0  0  0  0  0  0  0  0
   44.0350    9.9850    3.3310 N   0  0  0  0  0  0  0  0  0  0  0  0
   48.1990   10.5510    2.4230 C   0  0  0  0  0  0  0  0  0  0  0  0
   40.7740   10.0850    4.8910 C   0  0  0  0  0  0  0  0  0  0  0  0
   44.1080    9.9310    1.9850 C   0  0  0  0  0  0  0  0  0  0  0  0
   45.6900    8.6310    4.5400 C   0  0  2  0  0  0  0  0  0  0  0  0
   46.8670    8.6340    3.5730 C   0  0  1  0  0  0  0  0  0  0  0  0
   45.1400   10.0240    4.2980 C   0  0  1  0  0  0  0  0  0  0  0  0
   40.5310   10.0130    2.5390 C   0  0  0  0  0  0  0  0  0  0  0  0
   47.3510   10.0890    3.6210 C   0  0  2  0  0  0  0  0  0  0  0  0
   42.7610   10.0240    3.6910 C   0  0  0  0  0  0  0  0  0  0  0  0
   41.9890    9.9860    2.4630 C   0  0  0  0  0  0  0  0  0  0  0  0
   46.8283    7.9414    6.0401 H   0  0  0  0  0  0  0  0  0  0  0  0
   47.5611    6.7736    3.8912 H   0  0  0  0  0  0  0  0  0  0  0  0
   40.2134    9.9372    0.5125 H   0  0  0  0  0  0  0  0  0  0  0  0
   38.7756   10.0149    1.4752 H   0  0  0  0  0  0  0  0  0  0  0  0
   48.5048   11.4919    2.5690 H   0  0  0  0  0  0  0  0  0  0  0  0
   48.9947    9.9537    2.3226 H   0  0  0  0  0  0  0  0  0  0  0  0
   40.3146   10.0826    5.7792 H   0  0  0  0  0  0  0  0  0  0  0  0
   44.9600    9.9159    1.4616 H   0  0  0  0  0  0  0  0  0  0  0  0
   45.0337    7.8890    4.4029 H   0  0  0  0  0  0  0  0  0  0  0  0
   46.5289    8.4368    2.6528 H   0  0  0  0  0  0  0  0  0  0  0  0
   44.8110   10.4052    5.1620 H   0  0  0  0  0  0  0  0  0  0  0  0
   47.8957   10.2078    4.4512 H   0  0  0  0  0  0  0  0  0  0  0  0
  1  4  2  0  0  0  0
  1  5  1  0  0  0  0
  1  6  1  0  0  0  0
  1 13  1  0  0  0  0
  2  7  2  0  0  0  0
  2  8  1  0  0  0  0
  2 13  1  0  0  0  0
  2 14  1  0  0  0  0
  3  9  2  0  0  0  0
  3 10  1  0  0  0  0
  3 14  1  0  0  0  0
  3 15  1  0  0  0  0
 11 25  1  0  0  0  0
 12 26  1  0  0  0  0
 15 22  1  0  0  0  0
 16 27  1  0  0  0  0
 16 29  1  0  0  0  0
 17 28  1  0  0  0  0
 18 23  1  0  0  0  0
 18 28  2  0  0  0  0
 19 23  2  0  0  0  0
 19 30  1  0  0  0  0
 20 24  2  0  0  0  0
 20 31  1  0  0  0  0
 21 24  1  0  0  0  0
 21 27  1  0  0  0  0
 21 30  1  0  0  0  0
 22 29  1  0  0  0  0
 25 26  1  0  0  0  0
 25 27  1  0  0  0  0
 26 29  1  0  0  0  0
 28 31  1  0  0  0  0
 30 31  2  0  0  0  0
 29 43  1  0  0  0  0
 27 42  1  0  0  0  0
 26 41  1  0  0  0  0
 25 40  1  0  0  0  0
 11 32  1  0  0  0  0
 12 33  1  0  0  0  0
 17 34  1  0  0  0  0
 17 35  1  0  0  0  0
 22 36  1  0  0  0  0
 22 37  1  0  0  0  0
 23 38  1  0  0  0  0
 24 39  1  0  0  0  0
M  CHG  4   5  -1   6  -1   8  -1  10  -1
M  END
$$$$
4WB8_MES_A_404
prProtoss 05262315583D 1   1.00000     0.00000     0
Protoss beta proteinsplus
 25 25  0  0  0  0            999 V2000
   25.4000   -8.5160   -8.2330 S   0  0  0  0  0  0  0  0  0  0  0  0
   24.9150   -7.8360   -9.4550 O   0  0  0  0  0  0  0  0  0  0  0  0
   24.5110   -9.6610   -7.9180 O   0  0  0  0  0  0  0  0  0  0  0  0
   25.3880   -7.5580   -7.1020 O   0  5  0  0  0  0  0  0  0  0  0  0
   31.8440   -8.4760   -7.7120 O   0  0  0  0  0  0  0  0  0  0  0  0
   29.2280   -8.3120   -8.6880 N   0  3  0  0  0  0  0  0  0  0  0  0
   26.9520   -9.0630   -8.4910 C   0  0  0  0  0  0  0  0  0  0  0  0
   31.6250   -7.8500   -8.9740 C   0  0  0  0  0  0  0  0  0  0  0  0
   30.9290   -9.5380   -7.4380 C   0  0  0  0  0  0  0  0  0  0  0  0
   27.8500   -7.9170   -8.9600 C   0  0  0  0  0  0  0  0  0  0  0  0
   30.2010   -7.3070   -9.0880 C   0  0  0  0  0  0  0  0  0  0  0  0
   29.4670   -9.0880   -7.4670 C   0  0  0  0  0  0  0  0  0  0  0  0
   26.9375   -9.7777   -9.1903 H   0  0  0  0  0  0  0  0  0  0  0  0
   27.3151   -9.4384   -7.6382 H   0  0  0  0  0  0  0  0  0  0  0  0
   31.7766   -8.5204   -9.7003 H   0  0  0  0  0  0  0  0  0  0  0  0
   32.2708   -7.0937   -9.0784 H   0  0  0  0  0  0  0  0  0  0  0  0
   31.1311   -9.9070   -6.5308 H   0  0  0  0  0  0  0  0  0  0  0  0
   31.0561  -10.2536   -8.1248 H   0  0  0  0  0  0  0  0  0  0  0  0
   27.7247   -7.7622   -9.9400 H   0  0  0  0  0  0  0  0  0  0  0  0
   27.6279   -7.0804   -8.4593 H   0  0  0  0  0  0  0  0  0  0  0  0
   30.1074   -6.5068   -8.4956 H   0  0  0  0  0  0  0  0  0  0  0  0
   30.0267   -7.0419  -10.0363 H   0  0  0  0  0  0  0  0  0  0  0  0
   28.8696   -9.8899   -7.4575 H   0  0  0  0  0  0  0  0  0  0  0  0
   29.2755   -8.5201   -6.6665 H   0  0  0  0  0  0  0  0  0  0  0  0
   29.3710   -9.0091   -9.3906 H   0  0  0  0  0  0  0  0  0  0  0  0
  1  2  2  0  0  0  0
  1  3  2  0  0  0  0
  1  4  1  0  0  0  0
  1  7  1  0  0  0  0
  5  8  1  0  0  0  0
  5  9  1  0  0  0  0
  6 10  1  0  0  0  0
  6 11  1  0  0  0  0
  6 12  1  0  0  0  0
  7 10  1  0  0  0  0
  8 11  1  0  0  0  0
  9 12  1  0  0  0  0
 12 24  1  0  0  0  0
  7 13  1  0  0  0  0
  7 14  1  0  0  0  0
  8 15  1  0  0  0  0
  8 16  1  0  0  0  0
  9 17  1  0  0  0  0
  9 18  1  0  0  0  0
 10 19  1  0  0  0  0
 10 20  1  0  0  0  0
 11 21  1  0  0  0  0
 11 22  1  0  0  0  0
 12 23  1  0  0  0  0
  6 25  1  0  0  0  0
M  CHG  2   4  -1   6   1
M  END
$$$$
4XW5_ATP_A_403
prProtoss 05262315043D 1   1.00000     0.00000     0
Protoss beta proteinsplus
 43 45  0  0  0  0            999 V2000
   -0.8090   11.0090  -14.6140 P   0  0  0  0  0  0  0  0  0  0  0  0
   -2.7750   11.6310  -12.4190 P   0  0  0  0  0  0  0  0  0  0  0  0
   -5.2810   10.3940  -13.5190 P   0  0  0  0  0  0  0  0  0  0  0  0
   -1.5680    9.9600  -15.3850 O   0  0  0  0  0  0  0  0  0  0  0  0
    0.6710   10.7380  -14.5330 O   0  5  0  0  0  0  0  0  0  0  0  0
   -1.0490   12.4010  -15.1110 O   0  5  0  0  0  0  0  0  0  0  0  0
   -3.1500   12.7930  -13.2700 O   0  0  0  0  0  0  0  0  0  0  0  0
   -2.5390   11.8240  -10.9460 O   0  5  0  0  0  0  0  0  0  0  0  0
   -5.0370   10.1650  -14.9690 O   0  0  0  0  0  0  0  0  0  0  0  0
   -6.2510   11.4820  -13.1690 O   0  5  0  0  0  0  0  0  0  0  0  0
   -7.1330    4.3120  -14.1110 O   0  0  0  0  0  0  0  0  0  0  0  0
   -6.0710    6.4290  -15.6520 O   0  0  0  0  0  0  0  0  0  0  0  0
   -1.4070   10.9040  -13.0470 O   0  0  0  0  0  0  0  0  0  0  0  0
   -3.9060   10.5050  -12.6450 O   0  0  0  0  0  0  0  0  0  0  0  0
   -5.8440    9.0020  -12.9020 O   0  0  0  0  0  0  0  0  0  0  0  0
   -6.7740    6.4760  -12.0850 O   0  0  0  0  0  0  0  0  0  0  0  0
  -13.2900    8.9500  -11.9390 N   0  0  0  0  0  0  0  0  0  0  0  0
  -13.0530    6.5680  -11.8930 N   0  0  0  0  0  0  0  0  0  0  0  0
  -10.9680    5.4690  -12.1200 N   0  0  0  0  0  0  0  0  0  0  0  0
  -10.1760    8.9420  -12.3510 N   0  0  0  0  0  0  0  0  0  0  0  0
   -9.0580    6.9970  -12.4080 N   0  0  0  0  0  0  0  0  0  0  0  0
   -4.9770    7.8600  -12.9240 C   0  0  0  0  0  0  0  0  0  0  0  0
  -12.3090    5.4450  -11.9490 C   0  0  0  0  0  0  0  0  0  0  0  0
   -8.9660    8.3510  -12.5170 C   0  0  0  0  0  0  0  0  0  0  0  0
   -7.7530    5.6170  -14.0180 C   0  0  2  0  0  0  0  0  0  0  0  0
   -6.7600    6.6870  -14.4150 C   0  0  1  0  0  0  0  0  0  0  0  0
   -8.0050    5.9440  -12.5560 C   0  0  1  0  0  0  0  0  0  0  0  0
  -12.5240    7.8290  -11.9740 C   0  0  0  0  0  0  0  0  0  0  0  0
   -5.8360    6.6120  -13.1850 C   0  0  2  0  0  0  0  0  0  0  0  0
  -10.3060    6.6700  -12.1360 C   0  0  0  0  0  0  0  0  0  0  0  0
  -11.0620    7.9480  -12.1570 C   0  0  0  0  0  0  0  0  0  0  0  0
   -6.8332    4.1517  -15.0514 H   0  0  0  0  0  0  0  0  0  0  0  0
   -6.6617    5.8958  -16.2576 H   0  0  0  0  0  0  0  0  0  0  0  0
  -12.8608    9.8510  -12.0013 H   0  0  0  0  0  0  0  0  0  0  0  0
  -14.2832    8.8743  -11.8509 H   0  0  0  0  0  0  0  0  0  0  0  0
   -4.5102    7.7720  -12.0440 H   0  0  0  0  0  0  0  0  0  0  0  0
   -4.2993    7.9631  -13.6520 H   0  0  0  0  0  0  0  0  0  0  0  0
  -12.7666    4.5602  -11.8607 H   0  0  0  0  0  0  0  0  0  0  0  0
   -8.1159    8.8462  -12.6963 H   0  0  0  0  0  0  0  0  0  0  0  0
   -8.5917    5.6692  -14.5601 H   0  0  0  0  0  0  0  0  0  0  0  0
   -7.2115    7.5785  -14.4522 H   0  0  0  0  0  0  0  0  0  0  0  0
   -8.2533    5.1203  -12.0463 H   0  0  0  0  0  0  0  0  0  0  0  0
   -5.2541    5.8007  -13.2420 H   0  0  0  0  0  0  0  0  0  0  0  0
  1  4  2  0  0  0  0
  1  5  1  0  0  0  0
  1  6  1  0  0  0  0
  1 13  1  0  0  0  0
  2  7  2  0  0  0  0
  2  8  1  0  0  0  0
  2 13  1  0  0  0  0
  2 14  1  0  0  0  0
  3  9  2  0  0  0  0
  3 10  1  0  0  0  0
  3 14  1  0  0  0  0
  3 15  1  0  0  0  0
 11 25  1  0  0  0  0
 12 26  1  0  0  0  0
 15 22  1  0  0  0  0
 16 27  1  0  0  0  0
 16 29  1  0  0  0  0
 17 28  1  0  0  0  0
 18 23  1  0  0  0  0
 18 28  2  0  0  0  0
 19 23  2  0  0  0  0
 19 30  1  0  0  0  0
 20 24  2  0  0  0  0
 20 31  1  0  0  0  0
 21 24  1  0  0  0  0
 21 27  1  0  0  0  0
 21 30  1  0  0  0  0
 22 29  1  0  0  0  0
 25 26  1  0  0  0  0
 25 27  1  0  0  0  0
 26 29  1  0  0  0  0
 28 31  1  0  0  0  0
 30 31  2  0  0  0  0
 29 43  1  0  0  0  0
 27 42  1  0  0  0  0
 26 41  1  0  0  0  0
 25 40  1  0  0  0  0
 11 32  1  0  0  0  0
 12 33  1  0  0  0  0
 17 34  1  0  0  0  0
 17 35  1  0  0  0  0
 22 36  1  0  0  0  0
 22 37  1  0  0  0  0
 23 38  1  0  0  0  0
 24 39  1  0  0  0  0
M  CHG  4   5  -1   6  -1   8  -1  10  -1
M  END
$$$$
6EMA_ATP_A_401
prProtoss 08292323543D 1   1.00000     0.00000     0
Protoss beta proteinsplus
 32 34  0  0  0  0            999 V2000
    5.9710   13.9580    9.1800 O   0  0  0  0  0  0  0  0  0  0  0  0
    6.4760    8.9130    9.8680 O   0  0  0  0  0  0  0  0  0  0  0  0
    5.7090   11.0260   11.5090 O   0  0  0  0  0  0  0  0  0  0  0  0
    6.3890   11.3000    7.9700 O   0  0  0  0  0  0  0  0  0  0  0  0
   13.1210   12.5450    7.2430 N   0  0  0  0  0  0  0  0  0  0  0  0
   12.5920   10.2390    7.2900 N   0  0  0  0  0  0  0  0  0  0  0  0
   10.3990    9.4410    7.7250 N   0  0  0  0  0  0  0  0  0  0  0  0
   10.0920   12.9650    7.8860 N   0  0  0  0  0  0  0  0  0  0  0  0
    8.7200   11.2180    8.1260 N   0  0  0  0  0  0  0  0  0  0  0  0
    4.9650   12.9660    9.0370 C   0  0  0  0  0  0  0  0  0  0  0  0
   11.7030    9.2440    7.4540 C   0  0  0  0  0  0  0  0  0  0  0  0
    8.8270   12.5640    8.1320 C   0  0  0  0  0  0  0  0  0  0  0  0
    7.4640   10.4690    8.3510 C   0  0  1  0  0  0  0  0  0  0  0  0
    7.2560   10.1000    9.8240 C   0  0  1  0  0  0  0  0  0  0  0  0
    6.4360   11.2840   10.3130 C   0  0  1  0  0  0  0  0  0  0  0  0
   12.2290   11.5390    7.3990 C   0  0  0  0  0  0  0  0  0  0  0  0
    5.5370   11.5670    9.1210 C   0  0  2  0  0  0  0  0  0  0  0  0
    9.9110   10.6970    7.8610 C   0  0  0  0  0  0  0  0  0  0  0  0
   10.8160   11.8390    7.7020 C   0  0  0  0  0  0  0  0  0  0  0  0
    5.7653   14.5293    9.9746 H   0  0  0  0  0  0  0  0  0  0  0  0
    5.9267    8.9059   10.7036 H   0  0  0  0  0  0  0  0  0  0  0  0
    6.2732   11.2633   12.2998 H   0  0  0  0  0  0  0  0  0  0  0  0
   12.8228   13.4956    7.3294 H   0  0  0  0  0  0  0  0  0  0  0  0
   14.0783   12.3377    7.0413 H   0  0  0  0  0  0  0  0  0  0  0  0
    4.5212   13.0812    8.1483 H   0  0  0  0  0  0  0  0  0  0  0  0
    4.2893   13.0834    9.7647 H   0  0  0  0  0  0  0  0  0  0  0  0
   12.0293    8.3025    7.3698 H   0  0  0  0  0  0  0  0  0  0  0  0
    8.0628   13.1872    8.2983 H   0  0  0  0  0  0  0  0  0  0  0  0
    7.4623    9.6393    7.7927 H   0  0  0  0  0  0  0  0  0  0  0  0
    8.1202   10.0058   10.3182 H   0  0  0  0  0  0  0  0  0  0  0  0
    7.0426   12.0654   10.4596 H   0  0  0  0  0  0  0  0  0  0  0  0
    4.7830   10.9102    9.1230 H   0  0  0  0  0  0  0  0  0  0  0  0
  1 10  1  0  0  0  0
  2 14  1  0  0  0  0
  3 15  1  0  0  0  0
  4 13  1  0  0  0  0
  4 17  1  0  0  0  0
  5 16  1  0  0  0  0
  6 11  1  0  0  0  0
  6 16  2  0  0  0  0
  7 11  2  0  0  0  0
  7 18  1  0  0  0  0
  8 12  2  0  0  0  0
  8 19  1  0  0  0  0
  9 12  1  0  0  0  0
  9 13  1  0  0  0  0
  9 18  1  0  0  0  0
 10 17  1  0  0  0  0
 13 14  1  0  0  0  0
 14 15  1  0  0  0  0
 15 17  1  0  0  0  0
 16 19  1  0  0  0  0
 18 19  2  0  0  0  0
  1 20  1  0  0  0  0
  2 21  1  0  0  0  0
  3 22  1  0  0  0  0
  5 23  1  0  0  0  0
  5 24  1  0  0  0  0
 10 25  1  0  0  0  0
 10 26  1  0  0  0  0
 11 27  1  0  0  0  0
 12 28  1  0  0  0  0
 13 29  1  0  0  0  0
 14 30  1  0  0  0  0
 15 31  1  0  0  0  0
 17 32  1  0  0  0  0
M  END
$$$$
6EMA_RIP_C_101
prProtoss 08292323543D 1   1.00000     0.00000     0
Protoss beta proteinsplus
 20 20  0  0  0  0            999 V2000
   -4.2910   13.0380   12.1820 O   0  0  0  0  0  0  0  0  0  0  0  0
   -2.6350   11.8480    8.3150 O   0  0  0  0  0  0  0  0  0  0  0  0
   -1.7480   11.0770   10.7390 O   0  0  0  0  0  0  0  0  0  0  0  0
   -4.1850    9.9530    9.7080 O   0  0  0  0  0  0  0  0  0  0  0  0
   -2.7370   13.7520   10.5630 O   0  0  0  0  0  0  0  0  0  0  0  0
   -3.6900   13.6620    9.4930 C   0  0  0  0  0  0  0  0  0  0  0  0
   -3.0170   12.8870   11.6650 C   0  0  2  0  0  0  0  0  0  0  0  0
   -3.8330   12.2370    8.9870 C   0  0  2  0  0  0  0  0  0  0  0  0
   -3.0340   11.4490   11.2200 C   0  0  1  0  0  0  0  0  0  0  0  0
   -4.1100   11.3010   10.1550 C   0  0  2  0  0  0  0  0  0  0  0  0
   -4.6019   12.1669   12.5622 H   0  0  0  0  0  0  0  0  0  0  0  0
   -2.4721   12.4613    7.5421 H   0  0  0  0  0  0  0  0  0  0  0  0
   -1.6929   11.2615    9.7577 H   0  0  0  0  0  0  0  0  0  0  0  0
   -4.3672    9.3531   10.4871 H   0  0  0  0  0  0  0  0  0  0  0  0
   -3.3868   14.2448    8.7391 H   0  0  0  0  0  0  0  0  0  0  0  0
   -4.5789   13.9795    9.8231 H   0  0  0  0  0  0  0  0  0  0  0  0
   -2.3357   13.0162   12.3855 H   0  0  0  0  0  0  0  0  0  0  0  0
   -4.5977   12.1932    8.3441 H   0  0  0  0  0  0  0  0  0  0  0  0
   -3.2684   10.8702   12.0010 H   0  0  0  0  0  0  0  0  0  0  0  0
   -4.9906   11.5501   10.5581 H   0  0  0  0  0  0  0  0  0  0  0  0
  1  7  1  0  0  0  0
  2  8  1  0  0  0  0
  3  9  1  0  0  0  0
  4 10  1  0  0  0  0
  5  6  1  0  0  0  0
  5  7  1  0  0  0  0
  6  8  1  0  0  0  0
  7  9  1  0  0  0  0
  8 10  1  0  0  0  0
  9 10  1  0  0  0  0
  1 11  1  0  0  0  0
  2 12  1  0  0  0  0
  3 13  1  0  0  0  0
  4 14  1  0  0  0  0
  6 15  1  0  0  0  0
  6 16  1  0  0  0  0
  7 17  1  0  0  0  0
  8 18  1  0  0  0  0
  9 19  1  0  0  0  0
 10 20  1  0  0  0  0
M  END
$$$$
6Y8C_ATP_A_402
prProtoss 08182322593D 1   1.00000     0.00000     0
Protoss beta proteinsplus
 39 41  0  0  0  0            999 V2000
   11.2720  -22.0360  -24.3790 P   0  0  0  0  0  0  0  0  0  0  0  0
   12.2170  -22.7220  -21.7040 P   0  0  0  0  0  0  0  0  0  0  0  0
   11.8960  -22.4360  -25.6920 O   0  0  0  0  0  0  0  0  0  0  0  0
    9.9260  -22.6220  -24.0080 O   0  5  0  0  0  0  0  0  0  0  0  0
   11.2260  -20.4480  -24.3200 O   0  5  0  0  0  0  0  0  0  0  0  0
   10.7840  -23.0230  -21.3830 O   0  0  0  0  0  0  0  0  0  0  0  0
   12.9430  -21.6560  -20.9000 O   0  5  0  0  0  0  0  0  0  0  0  0
   12.3040  -28.8690  -19.9220 O   0  0  0  0  0  0  0  0  0  0  0  0
   10.5460  -26.7990  -20.6200 O   0  0  0  0  0  0  0  0  0  0  0  0
   12.3820  -22.4180  -23.2740 O   0  0  0  0  0  0  0  0  0  0  0  0
   13.0570  -24.0840  -21.6060 O   0  0  0  0  0  0  0  0  0  0  0  0
   14.1140  -26.6710  -21.1170 O   0  0  0  0  0  0  0  0  0  0  0  0
   16.9080  -24.2820  -15.2850 N   0  0  0  0  0  0  0  0  0  0  0  0
   16.8720  -26.6580  -15.4560 N   0  0  0  0  0  0  0  0  0  0  0  0
   15.7740  -27.7820  -17.2250 N   0  0  0  0  0  0  0  0  0  0  0  0
   15.2100  -24.3610  -17.9030 N   0  0  0  0  0  0  0  0  0  0  0  0
   14.6600  -26.2970  -18.8620 N   0  0  0  0  0  0  0  0  0  0  0  0
   12.6320  -25.2000  -22.3910 C   0  0  0  0  0  0  0  0  0  0  0  0
   16.5040  -27.7910  -16.0860 C   0  0  0  0  0  0  0  0  0  0  0  0
   14.5720  -24.9520  -18.9400 C   0  0  0  0  0  0  0  0  0  0  0  0
   12.6250  -27.5330  -19.4940 C   0  0  2  0  0  0  0  0  0  0  0  0
   11.9170  -26.4940  -20.3370 C   0  0  1  0  0  0  0  0  0  0  0  0
   14.0850  -27.2730  -19.8210 C   0  0  1  0  0  0  0  0  0  0  0  0
   16.5300  -25.4240  -15.9100 C   0  0  0  0  0  0  0  0  0  0  0  0
   12.7800  -26.4910  -21.6000 C   0  0  2  0  0  0  0  0  0  0  0  0
   15.3780  -26.6190  -17.7860 C   0  0  0  0  0  0  0  0  0  0  0  0
   15.7440  -25.3470  -17.1510 C   0  0  0  0  0  0  0  0  0  0  0  0
   11.3181  -29.0164  -19.8432 H   0  0  0  0  0  0  0  0  0  0  0  0
    9.9642  -26.4143  -19.9034 H   0  0  0  0  0  0  0  0  0  0  0  0
   16.6329  -23.3948  -15.6553 H   0  0  0  0  0  0  0  0  0  0  0  0
   17.4619  -24.3268  -14.4536 H   0  0  0  0  0  0  0  0  0  0  0  0
   13.1921  -25.2539  -23.2177 H   0  0  0  0  0  0  0  0  0  0  0  0
   11.6728  -25.0776  -22.6457 H   0  0  0  0  0  0  0  0  0  0  0  0
   16.7805  -28.6700  -15.6976 H   0  0  0  0  0  0  0  0  0  0  0  0
   14.0977  -24.4574  -19.6683 H   0  0  0  0  0  0  0  0  0  0  0  0
   12.4384  -27.4047  -18.5200 H   0  0  0  0  0  0  0  0  0  0  0  0
   11.9761  -25.6020  -19.8888 H   0  0  0  0  0  0  0  0  0  0  0  0
   14.6070  -28.1259  -19.8146 H   0  0  0  0  0  0  0  0  0  0  0  0
   12.5274  -27.2669  -22.1781 H   0  0  0  0  0  0  0  0  0  0  0  0
  1  3  2  0  0  0  0
  1  4  1  0  0  0  0
  1  5  1  0  0  0  0
  1 10  1  0  0  0  0
  2  6  2  0  0  0  0
  2  7  1  0  0  0  0
  2 10  1  0  0  0  0
  2 11  1  0  0  0  0
  8 21  1  0  0  0  0
  9 22  1  0  0  0  0
 11 18  1  0  0  0  0
 12 23  1  0  0  0  0
 12 25  1  0  0  0  0
 13 24  1  0  0  0  0
 14 19  1  0  0  0  0
 14 24  2  0  0  0  0
 15 19  2  0  0  0  0
 15 26  1  0  0  0  0
 16 20  2  0  0  0  0
 16 27  1  0  0  0  0
 17 20  1  0  0  0  0
 17 23  1  0  0  0  0
 17 26  1  0  0  0  0
 18 25  1  0  0  0  0
 21 22  1  0  0  0  0
 21 23  1  0  0  0  0
 22 25  1  0  0  0  0
 24 27  1  0  0  0  0
 26 27  2  0  0  0  0
 25 39  1  0  0  0  0
 23 38  1  0  0  0  0
 22 37  1  0  0  0  0
  8 28  1  0  0  0  0
  9 29  1  0  0  0  0
 13 30  1  0  0  0  0
 13 31  1  0  0  0  0
 18 32  1  0  0  0  0
 18 33  1  0  0  0  0
 19 34  1  0  0  0  0
 20 35  1  0  0  0  0
 21 36  1  0  0  0  0
M  CHG  3   4  -1   5  -1   7  -1
M  END
$$$$
6Y8C_DMS_A_403
prProtoss 08182322593D 1   1.00000     0.00000     0
Protoss beta proteinsplus
 10  9  0  0  0  0            999 V2000
   33.5370  -13.4630  -18.7720 S   0  0  0  0  0  0  0  0  0  0  0  0
   33.3730  -12.9370  -20.1390 O   0  0  0  0  0  0  0  0  0  0  0  0
   35.2330  -13.9810  -18.7210 C   0  0  0  0  0  0  0  0  0  0  0  0
   33.6410  -12.0160  -17.7510 C   0  0  0  0  0  0  0  0  0  0  0  0
   35.4395  -14.3575  -17.8179 H   0  0  0  0  0  0  0  0  0  0  0  0
   35.3887  -14.6813  -19.4176 H   0  0  0  0  0  0  0  0  0  0  0  0
   35.8267  -13.1962  -18.8987 H   0  0  0  0  0  0  0  0  0  0  0  0
   33.7546  -12.2895  -16.7959 H   0  0  0  0  0  0  0  0  0  0  0  0
   34.4245  -11.4633  -18.0350 H   0  0  0  0  0  0  0  0  0  0  0  0
   32.8025  -11.4796  -17.8466 H   0  0  0  0  0  0  0  0  0  0  0  0
  1  2  2  0  0  0  0
  1  3  1  0  0  0  0
  1  4  1  0  0  0  0
  3  5  1  0  0  0  0
  3  6  1  0  0  0  0
  3  7  1  0  0  0  0
  4  8  1  0  0  0  0
  4  9  1  0  0  0  0
  4 10  1  0  0  0  0
M  END
$$$$
6Y8C_DMS_A_404
prProtoss 08182322593D 1   1.00000     0.00000     0
Protoss beta proteinsplus
 10  9  0  0  0  0            999 V2000
    1.3010  -27.2630    4.3390 S   0  0  0  0  0  0  0  0  0  0  0  0
    1.1260  -25.8810    3.8800 O   0  0  0  0  0  0  0  0  0  0  0  0
    1.0890  -27.1200    6.0930 C   0  0  0  0  0  0  0  0  0  0  0  0
   -0.1860  -28.1420    3.9250 C   0  0  0  0  0  0  0  0  0  0  0  0
    1.1898  -28.0208    6.5155 H   0  0  0  0  0  0  0  0  0  0  0  0
    1.7802  -26.4992    6.4628 H   0  0  0  0  0  0  0  0  0  0  0  0
    0.1774  -26.7594    6.2903 H   0  0  0  0  0  0  0  0  0  0  0  0
   -0.1051  -29.0930    4.2234 H   0  0  0  0  0  0  0  0  0  0  0  0
   -0.9649  -27.7139    4.3834 H   0  0  0  0  0  0  0  0  0  0  0  0
   -0.3252  -28.1139    2.9351 H   0  0  0  0  0  0  0  0  0  0  0  0
  1  2  2  0  0  0  0
  1  3  1  0  0  0  0
  1  4  1  0  0  0  0
  3  5  1  0  0  0  0
  3  6  1  0  0  0  0
  3  7  1  0  0  0  0
  4  8  1  0  0  0  0
  4  9  1  0  0  0  0
  4 10  1  0  0  0  0
M  END
$$$$
6Y8C_DMS_A_405
prProtoss 08182322593D 1   1.00000     0.00000     0
Protoss beta proteinsplus
 10  9  0  0  0  0            999 V2000
   19.1800   -0.8380  -20.1360 S   0  0  0  0  0  0  0  0  0  0  0  0
   18.5080   -2.1460  -20.0530 O   0  0  0  0  0  0  0  0  0  0  0  0
   19.1320   -0.1650  -18.5000 C   0  0  0  0  0  0  0  0  0  0  0  0
   20.9030   -1.2220  -20.2410 C   0  0  0  0  0  0  0  0  0  0  0  0
   19.5774    0.7303  -18.4947 H   0  0  0  0  0  0  0  0  0  0  0  0
   18.1807   -0.0658  -18.2082 H   0  0  0  0  0  0  0  0  0  0  0  0
   19.6108   -0.7792  -17.8727 H   0  0  0  0  0  0  0  0  0  0  0  0
   21.4303   -0.3745  -20.3010 H   0  0  0  0  0  0  0  0  0  0  0  0
   21.1814   -1.7309  -19.4264 H   0  0  0  0  0  0  0  0  0  0  0  0
   21.0716   -1.7778  -21.0550 H   0  0  0  0  0  0  0  0  0  0  0  0
  1  2  2  0  0  0  0
  1  3  1  0  0  0  0
  1  4  1  0  0  0  0
  3  5  1  0  0  0  0
  3  6  1  0  0  0  0
  3  7  1  0  0  0  0
  4  8  1  0  0  0  0
  4  9  1  0  0  0  0
  4 10  1  0  0  0  0
M  END
$$$$
6Y8C_DMS_A_406
prProtoss 08182322593D 1   1.00000     0.00000     0
Protoss beta proteinsplus
 10  9  0  0  0  0            999 V2000
   25.0390  -13.1370  -13.2810 S   0  0  0  0  0  0  0  0  0  0  0  0
   25.3950  -12.9910  -14.7020 O   0  0  0  0  0  0  0  0  0  0  0  0
   25.3350  -11.5540  -12.5340 C   0  0  0  0  0  0  0  0  0  0  0  0
   23.2700  -13.2110  -13.2930 C   0  0  0  0  0  0  0  0  0  0  0  0
   25.1079  -11.5968  -11.5611 H   0  0  0  0  0  0  0  0  0  0  0  0
   26.2989  -11.3100  -12.6409 H   0  0  0  0  0  0  0  0  0  0  0  0
   24.7650  -10.8635  -12.9793 H   0  0  0  0  0  0  0  0  0  0  0  0
   22.9342  -13.3115  -12.3564 H   0  0  0  0  0  0  0  0  0  0  0  0
   22.9039  -12.3693  -13.6898 H   0  0  0  0  0  0  0  0  0  0  0  0
   22.9728  -13.9940  -13.8395 H   0  0  0  0  0  0  0  0  0  0  0  0
  1  2  2  0  0  0  0
  1  3  1  0  0  0  0
  1  4  1  0  0  0  0
  3  5  1  0  0  0  0
  3  6  1  0  0  0  0
  3  7  1  0  0  0  0
  4  8  1  0  0  0  0
  4  9  1  0  0  0  0
  4 10  1  0  0  0  0
M  END
$$$$
6Y8C_MPD_A_407
prProtoss 08182322593D 1   1.00000     0.00000     0
Protoss beta proteinsplus
 22 21  0  0  0  0            999 V2000
    4.2610  -12.2240    0.7100 O   0  0  0  0  0  0  0  0  0  0  0  0
    4.5930  -13.4140    2.8160 O   0  0  0  0  0  0  0  0  0  0  0  0
    5.4200  -12.9330   -1.2730 C   0  0  0  0  0  0  0  0  0  0  0  0
    6.2530  -15.1320    2.8910 C   0  0  0  0  0  0  0  0  0  0  0  0
    6.8430  -12.7570    3.3720 C   0  0  0  0  0  0  0  0  0  0  0  0
    6.2960  -13.4440    1.0400 C   0  0  0  0  0  0  0  0  0  0  0  0
    5.0530  -13.2590    0.1770 C   0  0  1  0  0  0  0  0  0  0  0  0
    5.9880  -13.6830    2.5180 C   0  0  0  0  0  0  0  0  0  0  0  0
    4.5060  -11.3583    0.2736 H   0  0  0  0  0  0  0  0  0  0  0  0
    4.2460  -12.7182    2.1872 H   0  0  0  0  0  0  0  0  0  0  0  0
    5.9823  -13.6699   -1.6483 H   0  0  0  0  0  0  0  0  0  0  0  0
    4.5851  -12.8414   -1.8157 H   0  0  0  0  0  0  0  0  0  0  0  0
    5.9324  -12.0748   -1.3023 H   0  0  0  0  0  0  0  0  0  0  0  0
    7.2085  -15.3562    2.6992 H   0  0  0  0  0  0  0  0  0  0  0  0
    6.0685  -15.2646    3.8649 H   0  0  0  0  0  0  0  0  0  0  0  0
    5.6564  -15.7288    2.3544 H   0  0  0  0  0  0  0  0  0  0  0  0
    7.8100  -12.9263    3.1817 H   0  0  0  0  0  0  0  0  0  0  0  0
    6.6223  -11.8059    3.1559 H   0  0  0  0  0  0  0  0  0  0  0  0
    6.6583  -12.9305    4.3393 H   0  0  0  0  0  0  0  0  0  0  0  0
    6.8586  -12.6208    0.9639 H   0  0  0  0  0  0  0  0  0  0  0  0
    6.8071  -14.2303    0.6929 H   0  0  0  0  0  0  0  0  0  0  0  0
    4.5238  -14.1074    0.1909 H   0  0  0  0  0  0  0  0  0  0  0  0
  1  7  1  0  0  0  0
  2  8  1  0  0  0  0
  3  7  1  0  0  0  0
  4  8  1  0  0  0  0
  5  8  1  0  0  0  0
  6  7  1  0  0  0  0
  6  8  1  0  0  0  0
  1  9  1  0  0  0  0
  2 10  1  0  0  0  0
  3 11  1  0  0  0  0
  3 12  1  0  0  0  0
  3 13  1  0  0  0  0
  4 14  1  0  0  0  0
  4 15  1  0  0  0  0
  4 16  1  0  0  0  0
  5 17  1  0  0  0  0
  5 18  1  0  0  0  0
  5 19  1  0  0  0  0
  6 20  1  0  0  0  0
  6 21  1  0  0  0  0
  7 22  1  0  0  0  0
M  END
$$$$
6Y8C_MPD_A_408
prProtoss 08182322593D 1   1.00000     0.00000     0
Protoss beta proteinsplus
 22 21  0  0  0  0            999 V2000
   10.5500  -38.0010  -18.6750 O   0  0  0  0  0  0  0  0  0  0  0  0
    8.2060  -39.3090  -15.8160 O   0  0  0  0  0  0  0  0  0  0  0  0
    9.4250  -40.1220  -18.6900 C   0  0  0  0  0  0  0  0  0  0  0  0
    9.9660  -39.8930  -14.2610 C   0  0  0  0  0  0  0  0  0  0  0  0
    9.5790  -37.5230  -14.9650 C   0  0  0  0  0  0  0  0  0  0  0  0
   10.4810  -39.1810  -16.6060 C   0  0  0  0  0  0  0  0  0  0  0  0
    9.7460  -38.8600  -17.9010 C   0  0  1  0  0  0  0  0  0  0  0  0
    9.5590  -38.9780  -15.4100 C   0  0  0  0  0  0  0  0  0  0  0  0
   10.7564  -37.1750  -18.1504 H   0  0  0  0  0  0  0  0  0  0  0  0
    7.6189  -38.5073  -15.7042 H   0  0  0  0  0  0  0  0  0  0  0  0
    8.8543  -40.7265  -18.1342 H   0  0  0  0  0  0  0  0  0  0  0  0
    8.9347  -39.8766  -19.5263 H   0  0  0  0  0  0  0  0  0  0  0  0
   10.2752  -40.5918  -18.9277 H   0  0  0  0  0  0  0  0  0  0  0  0
   10.8981  -39.6727  -13.9735 H   0  0  0  0  0  0  0  0  0  0  0  0
    9.3402  -39.7613  -13.4923 H   0  0  0  0  0  0  0  0  0  0  0  0
    9.9268  -40.8454  -14.5634 H   0  0  0  0  0  0  0  0  0  0  0  0
   10.5048  -37.2742  -14.6804 H   0  0  0  0  0  0  0  0  0  0  0  0
    9.2953  -36.9381  -15.7249 H   0  0  0  0  0  0  0  0  0  0  0  0
    8.9500  -37.4006  -14.1973 H   0  0  0  0  0  0  0  0  0  0  0  0
   11.2732  -38.5771  -16.5180 H   0  0  0  0  0  0  0  0  0  0  0  0
   10.7879  -40.1325  -16.6281 H   0  0  0  0  0  0  0  0  0  0  0  0
    8.8911  -38.3907  -17.6798 H   0  0  0  0  0  0  0  0  0  0  0  0
  1  7  1  0  0  0  0
  2  8  1  0  0  0  0
  3  7  1  0  0  0  0
  4  8  1  0  0  0  0
  5  8  1  0  0  0  0
  6  7  1  0  0  0  0
  6  8  1  0  0  0  0
  1  9  1  0  0  0  0
  2 10  1  0  0  0  0
  3 11  1  0  0  0  0
  3 12  1  0  0  0  0
  3 13  1  0  0  0  0
  4 14  1  0  0  0  0
  4 15  1  0  0  0  0
  4 16  1  0  0  0  0
  5 17  1  0  0  0  0
  5 18  1  0  0  0  0
  5 19  1  0  0  0  0
  6 20  1  0  0  0  0
  6 21  1  0  0  0  0
  7 22  1  0  0  0  0
M  END
$$$$
6Y8C_DMS_B_101
prProtoss 08182322593D 1   1.00000     0.00000     0
Protoss beta proteinsplus
 10  9  0  0  0  0            999 V2000
    0.8000  -28.2100  -29.9460 S   0  0  0  0  0  0  0  0  0  0  0  0
    1.2780  -27.0160  -29.2210 O   0  0  0  0  0  0  0  0  0  0  0  0
    2.2650  -29.0840  -30.4160 C   0  0  0  0  0  0  0  0  0  0  0  0
    0.2020  -29.3120  -28.6940 C   0  0  0  0  0  0  0  0  0  0  0  0
    2.0129  -29.9123  -30.9163 H   0  0  0  0  0  0  0  0  0  0  0  0
    2.8285  -28.5001  -31.0004 H   0  0  0  0  0  0  0  0  0  0  0  0
    2.7815  -29.3335  -29.5969 H   0  0  0  0  0  0  0  0  0  0  0  0
   -0.1395  -30.1488  -29.1219 H   0  0  0  0  0  0  0  0  0  0  0  0
    0.9466  -29.5387  -28.0661 H   0  0  0  0  0  0  0  0  0  0  0  0
   -0.5385  -28.8705  -28.1874 H   0  0  0  0  0  0  0  0  0  0  0  0
  1  2  2  0  0  0  0
  1  3  1  0  0  0  0
  1  4  1  0  0  0  0
  3  5  1  0  0  0  0
  3  6  1  0  0  0  0
  3  7  1  0  0  0  0
  4  8  1  0  0  0  0
  4  9  1  0  0  0  0
  4 10  1  0  0  0  0
M  END
$$$$
6C0U_EE4_A_400
prProtoss 03132510273D 1   1.00000     0.00000     0
Protoss beta proteinsplus
 69 73  0  0  0  0            999 V2000
   -9.1850   55.4120   95.9470 F   0  0  0  0  0  0  0  0  0  0  0  0
   -9.4840   59.6710   88.8440 O   0  0  0  0  0  0  0  0  0  0  0  0
  -13.6720   61.1980   90.1060 O   0  0  0  0  0  0  0  0  0  0  0  0
   -6.7430   55.5440   93.9850 O   0  0  0  0  0  0  0  0  0  0  0  0
   -9.4690   56.0880   98.6420 O   0  0  0  0  0  0  0  0  0  0  0  0
   -5.5390   58.6420   95.4240 O   0  0  0  0  0  0  0  0  0  0  0  0
  -17.3480   61.9960   84.2410 N   0  0  0  0  0  0  0  0  0  0  0  0
  -17.8670   61.2870   85.2820 N   0  0  0  0  0  0  0  0  0  0  0  0
   -9.7100   64.6180   89.3490 N   0  0  0  0  0  0  0  0  0  0  0  0
   -9.7270   61.5180   90.2180 N   0  0  0  0  0  0  0  0  0  0  0  0
  -12.7060   62.7500   88.7430 N   0  0  0  0  0  0  0  0  0  0  0  0
  -10.8950   56.3450   98.2680 C   0  0  0  0  0  0  0  0  0  0  0  0
   -2.9880   61.3350   95.7800 C   0  0  0  0  0  0  0  0  0  0  0  0
   -4.5840   59.3010   96.0850 C   0  0  0  0  0  0  0  0  0  0  0  0
  -16.1410   62.4630   84.6060 C   0  0  0  0  0  0  0  0  0  0  0  0
   -9.1630   63.4650   88.9490 C   0  0  0  0  0  0  0  0  0  0  0  0
  -11.2610   64.3600   89.6990 C   0  0  0  0  0  0  0  0  0  0  0  0
   -3.9730   60.4050   95.0930 C   0  0  0  0  0  0  0  0  0  0  0  0
   -7.6790   57.6760   98.3840 C   0  0  0  0  0  0  0  0  0  0  0  0
   -6.7140   58.3020   97.5960 C   0  0  0  0  0  0  0  0  0  0  0  0
  -17.0800   60.6710   87.6460 C   0  0  0  0  0  0  0  0  0  0  0  0
   -8.6930   59.6690   92.3380 C   0  0  0  0  0  0  0  0  0  0  0  0
   -8.4600   57.7780   90.8020 C   0  0  0  0  0  0  0  0  0  0  0  0
  -16.0100   60.8340   88.5450 C   0  0  0  0  0  0  0  0  0  0  0  0
   -8.2000   58.8430   93.3900 C   0  0  0  0  0  0  0  0  0  0  0  0
   -7.9840   56.9770   91.8210 C   0  0  0  0  0  0  0  0  0  0  0  0
  -14.7980   62.1830   86.8690 C   0  0  0  0  0  0  0  0  0  0  0  0
   -9.3680   60.0870   89.9170 C   0  0  0  0  0  0  0  0  0  0  0  0
  -13.7280   61.7840   89.1020 C   0  0  0  0  0  0  0  0  0  0  0  0
   -8.3870   56.3580   96.5110 C   0  0  0  0  0  0  0  0  0  0  0  0
   -7.2990   56.5840   94.2750 C   0  0  0  0  0  0  0  0  0  0  0  0
   -8.5190   56.7010   97.8370 C   0  0  0  0  0  0  0  0  0  0  0  0
   -6.5860   57.9680   96.2980 C   0  0  0  0  0  0  0  0  0  0  0  0
  -17.0080   61.2760   86.3370 C   0  0  0  0  0  0  0  0  0  0  0  0
  -10.2050   62.3440   89.2030 C   0  0  2  0  0  0  0  0  0  0  0  0
  -11.4940   63.0370   89.6930 C   0  0  2  0  0  0  0  0  0  0  0  0
   -8.8240   59.1650   91.0800 C   0  0  0  0  0  0  0  0  0  0  0  0
  -14.8650   61.5820   88.1590 C   0  0  0  0  0  0  0  0  0  0  0  0
   -7.8490   57.5050   93.1270 C   0  0  0  0  0  0  0  0  0  0  0  0
  -15.8750   62.0180   85.9590 C   0  0  0  0  0  0  0  0  0  0  0  0
   -7.4410   56.9740   95.7370 C   0  0  0  0  0  0  0  0  0  0  0  0
  -18.7592   60.8354   85.2721 H   0  0  0  0  0  0  0  0  0  0  0  0
   -9.6224   61.8753   91.1461 H   0  0  0  0  0  0  0  0  0  0  0  0
  -12.7768   63.2406   87.8745 H   0  0  0  0  0  0  0  0  0  0  0  0
  -11.4983   55.8632   98.9035 H   0  0  0  0  0  0  0  0  0  0  0  0
  -11.0796   57.3268   98.3126 H   0  0  0  0  0  0  0  0  0  0  0  0
  -11.0600   56.0167   97.3380 H   0  0  0  0  0  0  0  0  0  0  0  0
   -2.6401   61.9995   95.1186 H   0  0  0  0  0  0  0  0  0  0  0  0
   -3.4487   61.8166   96.5255 H   0  0  0  0  0  0  0  0  0  0  0  0
   -2.2267   60.8012   96.1481 H   0  0  0  0  0  0  0  0  0  0  0  0
   -3.8666   58.6652   96.3696 H   0  0  0  0  0  0  0  0  0  0  0  0
   -4.9736   59.7464   96.8911 H   0  0  0  0  0  0  0  0  0  0  0  0
  -15.5325   63.0207   84.0415 H   0  0  0  0  0  0  0  0  0  0  0  0
   -8.3303   63.2823   89.4717 H   0  0  0  0  0  0  0  0  0  0  0  0
   -8.9417   63.5115   87.9749 H   0  0  0  0  0  0  0  0  0  0  0  0
  -11.9398   65.0691   89.8897 H   0  0  0  0  0  0  0  0  0  0  0  0
   -3.5018   59.9367   94.3455 H   0  0  0  0  0  0  0  0  0  0  0  0
   -4.7238   60.9521   94.7229 H   0  0  0  0  0  0  0  0  0  0  0  0
   -7.7711   57.9262   99.3478 H   0  0  0  0  0  0  0  0  0  0  0  0
   -6.1174   58.9985   97.9946 H   0  0  0  0  0  0  0  0  0  0  0  0
  -17.8846   60.1399   87.9118 H   0  0  0  0  0  0  0  0  0  0  0  0
   -8.9428   60.6192   92.5241 H   0  0  0  0  0  0  0  0  0  0  0  0
   -8.5552   57.4099   89.8771 H   0  0  0  0  0  0  0  0  0  0  0  0
  -16.0552   60.4234   89.4557 H   0  0  0  0  0  0  0  0  0  0  0  0
   -8.1035   59.2134   94.3138 H   0  0  0  0  0  0  0  0  0  0  0  0
   -7.7353   56.0261   91.6366 H   0  0  0  0  0  0  0  0  0  0  0  0
  -13.9957   62.7188   86.6057 H   0  0  0  0  0  0  0  0  0  0  0  0
  -10.3766   61.8207   88.3683 H   0  0  0  0  0  0  0  0  0  0  0  0
  -11.7113   62.7288   90.6192 H   0  0  0  0  0  0  0  0  0  0  0  0
  1 30  1  0  0  0  0
  2 28  2  0  0  0  0
  3 29  2  0  0  0  0
  4 31  2  0  0  0  0
  5 12  1  0  0  0  0
  5 32  1  0  0  0  0
  6 14  1  0  0  0  0
  6 33  1  0  0  0  0
  7  8  1  0  0  0  0
  7 15  2  0  0  0  0
  8 34  1  0  0  0  0
  9 16  1  0  0  0  0
  9 17  2  0  0  0  0
 10 28  1  0  0  0  0
 10 35  1  0  0  0  0
 11 29  1  0  0  0  0
 11 36  1  0  0  0  0
 13 18  1  0  0  0  0
 14 18  1  0  0  0  0
 15 40  1  0  0  0  0
 16 35  1  0  0  0  0
 17 36  1  0  0  0  0
 19 20  2  0  0  0  0
 19 32  1  0  0  0  0
 20 33  1  0  0  0  0
 21 24  1  0  0  0  0
 21 34  2  0  0  0  0
 22 25  1  0  0  0  0
 22 37  2  0  0  0  0
 23 26  2  0  0  0  0
 23 37  1  0  0  0  0
 24 38  2  0  0  0  0
 25 39  2  0  0  0  0
 26 39  1  0  0  0  0
 27 38  1  0  0  0  0
 27 40  2  0  0  0  0
 28 37  1  0  0  0  0
 29 38  1  0  0  0  0
 30 32  2  0  0  0  0
 30 41  1  0  0  0  0
 31 39  1  0  0  0  0
 31 41  1  0  0  0  0
 33 41  2  0  0  0  0
 34 40  1  0  0  0  0
 35 36  1  0  0  0  0
  8 42  1  0  0  0  0
 10 43  1  0  0  0  0
 11 44  1  0  0  0  0
 12 45  1  0  0  0  0
 12 46  1  0  0  0  0
 12 47  1  0  0  0  0
 13 48  1  0  0  0  0
 13 49  1  0  0  0  0
 13 50  1  0  0  0  0
 14 51  1  0  0  0  0
 14 52  1  0  0  0  0
 15 53  1  0  0  0  0
 16 54  1  0  0  0  0
 16 55  1  0  0  0  0
 17 56  1  0  0  0  0
 18 57  1  0  0  0  0
 18 58  1  0  0  0  0
 19 59  1  0  0  0  0
 20 60  1  0  0  0  0
 21 61  1  0  0  0  0
 22 62  1  0  0  0  0
 23 63  1  0  0  0  0
 24 64  1  0  0  0  0
 25 65  1  0  0  0  0
 26 66  1  0  0  0  0
 27 67  1  0  0  0  0
 35 68  1  0  0  0  0
 36 69  1  0  0  0  0
M  END
$$$$
6C0U_DMS_A_401
prProtoss 03132510273D 1   1.00000     0.00000     0
Protoss beta proteinsplus
 10  9  0  0  0  0            999 V2000
   -8.3000   63.4140   92.9210 S   0  0  0  0  0  0  0  0  0  0  0  0
   -9.5170   63.8440   92.1720 O   0  0  0  0  0  0  0  0  0  0  0  0
   -6.9460   63.0350   91.7770 C   0  0  0  0  0  0  0  0  0  0  0  0
   -7.5870   64.8460   93.7710 C   0  0  0  0  0  0  0  0  0  0  0  0
   -6.1408   62.7493   92.2966 H   0  0  0  0  0  0  0  0  0  0  0  0
   -7.2254   62.2971   91.1626 H   0  0  0  0  0  0  0  0  0  0  0  0
   -6.7249   63.8495   91.2407 H   0  0  0  0  0  0  0  0  0  0  0  0
   -6.7708   64.5624   94.2745 H   0  0  0  0  0  0  0  0  0  0  0  0
   -7.3384   65.5431   93.0985 H   0  0  0  0  0  0  0  0  0  0  0  0
   -8.2582   65.2230   94.4093 H   0  0  0  0  0  0  0  0  0  0  0  0
  1  2  2  0  0  0  0
  1  3  1  0  0  0  0
  1  4  1  0  0  0  0
  3  5  1  0  0  0  0
  3  6  1  0  0  0  0
  3  7  1  0  0  0  0
  4  8  1  0  0  0  0
  4  9  1  0  0  0  0
  4 10  1  0  0  0  0
M  END
$$$$
6C0U_DMS_A_402
prProtoss 03132510273D 1   1.00000     0.00000     0
Protoss beta proteinsplus
 10  9  0  0  0  0            999 V2000
   -7.6110   62.3270   97.0960 S   0  0  0  0  0  0  0  0  0  0  0  0
   -7.7160   63.7930   96.8190 O   0  0  0  0  0  0  0  0  0  0  0  0
   -9.2440   61.6680   97.5240 C   0  0  0  0  0  0  0  0  0  0  0  0
   -7.3600   61.4360   95.5400 C   0  0  0  0  0  0  0  0  0  0  0  0
   -9.1701   60.6880   97.7085 H   0  0  0  0  0  0  0  0  0  0  0  0
   -9.5892   62.1353   98.3379 H   0  0  0  0  0  0  0  0  0  0  0  0
   -9.8739   61.8171   96.7617 H   0  0  0  0  0  0  0  0  0  0  0  0
   -7.2897   60.4557   95.7248 H   0  0  0  0  0  0  0  0  0  0  0  0
   -8.1342   61.6056   94.9301 H   0  0  0  0  0  0  0  0  0  0  0  0
   -6.5175   61.7545   95.1056 H   0  0  0  0  0  0  0  0  0  0  0  0
  1  2  2  0  0  0  0
  1  3  1  0  0  0  0
  1  4  1  0  0  0  0
  3  5  1  0  0  0  0
  3  6  1  0  0  0  0
  3  7  1  0  0  0  0
  4  8  1  0  0  0  0
  4  9  1  0  0  0  0
  4 10  1  0  0  0  0
M  END
$$$$
6C0U_DMS_A_403
prProtoss 03132510273D 1   1.00000     0.00000     0
Protoss beta proteinsplus
 10  9  0  0  0  0            999 V2000
   -5.1130   73.6830   93.7370 S   0  0  0  0  0  0  0  0  0  0  0  0
   -4.5420   72.6150   94.6110 O   0  0  0  0  0  0  0  0  0  0  0  0
   -3.8210   74.8960   93.3470 C   0  0  0  0  0  0  0  0  0  0  0  0
   -5.3840   73.0020   92.0810 C   0  0  0  0  0  0  0  0  0  0  0  0
   -4.2017   75.6119   92.7618 H   0  0  0  0  0  0  0  0  0  0  0  0
   -3.4802   75.3040   94.1940 H   0  0  0  0  0  0  0  0  0  0  0  0
   -3.0691   74.4405   92.8703 H   0  0  0  0  0  0  0  0  0  0  0  0
   -5.7666   73.7103   91.4878 H   0  0  0  0  0  0  0  0  0  0  0  0
   -4.5134   72.6859   91.7040 H   0  0  0  0  0  0  0  0  0  0  0  0
   -6.0217   72.2337   92.1368 H   0  0  0  0  0  0  0  0  0  0  0  0
  1  2  2  0  0  0  0
  1  3  1  0  0  0  0
  1  4  1  0  0  0  0
  3  5  1  0  0  0  0
  3  6  1  0  0  0  0
  3  7  1  0  0  0  0
  4  8  1  0  0  0  0
  4  9  1  0  0  0  0
  4 10  1  0  0  0  0
M  END
$$$$
6C0U_PO4_A_404
prProtoss 03132510273D 1   1.00000     0.00000     0
Protoss beta proteinsplus
  5  4  0  0  0  0            999 V2000
  -23.9470   74.2700  107.9480 P   0  0  0  0  0  0  0  0  0  0  0  0
  -24.6580   73.7620  106.7160 O   0  0  0  0  0  0  0  0  0  0  0  0
  -24.0370   75.7760  107.9790 O   0  5  0  0  0  0  0  0  0  0  0  0
  -22.4970   73.8490  107.9090 O   0  5  0  0  0  0  0  0  0  0  0  0
  -24.6040   73.7020  109.1830 O   0  5  0  0  0  0  0  0  0  0  0  0
  1  2  2  0  0  0  0
  1  3  1  0  0  0  0
  1  4  1  0  0  0  0
  1  5  1  0  0  0  0
M  CHG  3   3  -1   4  -1   5  -1
M  END
$$$$
3BWJ_ARX_A_351
prProtoss 12122423463D 1   1.00000     0.00000     0
Protoss beta proteinsplus
 99101  0  0  0  0            999 V2000
   35.4060   21.3600   13.5000 O   0  0  0  0  0  0  0  0  0  0  0  0
   36.7260   20.1060    6.9220 O   0  0  0  0  0  0  0  0  0  0  0  0
   29.6630   22.8450    9.4920 O   0  0  0  0  0  0  0  0  0  0  0  0
   38.5710   21.0280   10.3210 O   0  0  0  0  0  0  0  0  0  0  0  0
   29.0070   27.9100   10.1370 O   0  0  0  0  0  0  0  0  0  0  0  0
   29.9640   26.1520   11.9030 O   0  0  0  0  0  0  0  0  0  0  0  0
   29.4840   25.5210    8.3440 O   0  0  0  0  0  0  0  0  0  0  0  0
   37.4730   22.2240   13.6370 N   0  0  0  0  0  0  0  0  0  0  0  0
   40.2770   27.4440    9.2820 N   0  3  0  0  0  0  0  0  0  0  0  0
   40.5510   25.8200    7.7540 N   0  0  0  0  0  0  0  0  0  0  0  0
   35.9590   19.0230   15.7930 N   0  3  0  0  0  0  0  0  0  0  0  0
   35.1530   18.0260   13.9310 N   0  0  0  0  0  0  0  0  0  0  0  0
   22.7430   23.9950    7.6090 N   0  0  0  0  0  0  0  0  0  0  0  0
   40.0010   25.3040    9.9650 N   0  0  0  0  0  0  0  0  0  0  0  0
   37.4000   18.1340   14.2020 N   0  0  0  0  0  0  0  0  0  0  0  0
   23.1710   26.3690    7.5560 N   0  0  0  0  0  0  0  0  0  0  0  0
   31.8460   23.4180    9.5940 N   0  0  0  0  0  0  0  0  0  0  0  0
   25.3550   27.2370    7.9450 N   0  0  0  0  0  0  0  0  0  0  0  0
   25.7800   23.7630    8.2720 N   0  0  0  0  0  0  0  0  0  0  0  0
   35.8270   19.3740    8.8720 N   0  0  0  0  0  0  0  0  0  0  0  0
   36.3500   21.5330   10.4370 N   0  0  0  0  0  0  0  0  0  0  0  0
   27.0960   25.5190    8.4280 N   0  0  0  0  0  0  0  0  0  0  0  0
   24.0430   27.3810    7.6620 C   0  0  0  0  0  0  0  0  0  0  0  0
   27.0270   24.1860    8.5130 C   0  0  0  0  0  0  0  0  0  0  0  0
   38.7890   25.3250   10.7680 C   0  0  0  0  0  0  0  0  0  0  0  0
   38.0240   18.8420   13.0850 C   0  0  0  0  0  0  0  0  0  0  0  0
   32.2310   22.0290    9.6720 C   0  0  0  0  0  0  0  0  0  0  0  0
   32.4400   21.4350    8.2830 C   0  0  0  0  0  0  0  0  0  0  0  0
   38.2280   23.9250   11.0120 C   0  0  0  0  0  0  0  0  0  0  0  0
   38.0340   18.0830   11.7410 C   0  0  0  0  0  0  0  0  0  0  0  0
   33.5710   22.0920    7.4870 C   0  0  0  0  0  0  0  0  0  0  0  0
   34.0940   21.1600    6.4050 C   0  0  0  0  0  0  0  0  0  0  0  0
   34.4010   19.7650    6.9550 C   0  0  0  0  0  0  0  0  0  0  0  0
   36.7070   23.9100   11.2190 C   0  0  0  0  0  0  0  0  0  0  0  0
   36.8030   18.3720   10.8750 C   0  0  0  0  0  0  0  0  0  0  0  0
   36.3220   21.9960   12.9650 C   0  0  0  0  0  0  0  0  0  0  0  0
   40.2690   26.2090    9.0070 C   0  0  0  0  0  0  0  0  0  0  0  0
   36.1530   18.3920   14.6260 C   0  0  0  0  0  0  0  0  0  0  0  0
   35.7640   19.7640    7.6010 C   0  0  0  0  0  0  0  0  0  0  0  0
   30.5390   23.7150    9.5380 C   0  0  0  0  0  0  0  0  0  0  0  0
   37.3900   20.7160   10.1890 C   0  0  0  0  0  0  0  0  0  0  0  0
   28.3280   26.3210    8.6350 C   0  0  1  0  0  0  0  0  0  0  0  0
   28.3910   26.6480   10.1030 C   0  0  1  0  0  0  0  0  0  0  0  0
   29.2820   25.6030   10.7420 C   0  0  1  0  0  0  0  0  0  0  0  0
   23.5810   25.0690    7.7130 C   0  0  0  0  0  0  0  0  0  0  0  0
   30.1970   25.1850    9.5590 C   0  0  2  0  0  0  0  0  0  0  0  0
   25.8840   26.0060    8.1280 C   0  0  0  0  0  0  0  0  0  0  0  0
   36.1130   22.5140   11.5270 C   0  0  2  0  0  0  0  0  0  0  0  0
   37.0350   19.3320    9.6920 C   0  0  2  0  0  0  0  0  0  0  0  0
   25.0130   24.8410    8.0200 C   0  0  0  0  0  0  0  0  0  0  0  0
   29.5235   28.0060   10.9879 H   0  0  0  0  0  0  0  0  0  0  0  0
   29.4050   26.0040   12.7188 H   0  0  0  0  0  0  0  0  0  0  0  0
   38.2122   22.7385   13.2024 H   0  0  0  0  0  0  0  0  0  0  0  0
   37.5850   21.8781   14.5686 H   0  0  0  0  0  0  0  0  0  0  0  0
   40.0691   27.7508   10.2108 H   0  0  0  0  0  0  0  0  0  0  0  0
   40.4912   28.1133    8.5706 H   0  0  0  0  0  0  0  0  0  0  0  0
   40.5490   24.8478    7.5199 H   0  0  0  0  0  0  0  0  0  0  0  0
   36.7435   19.3120   16.3416 H   0  0  0  0  0  0  0  0  0  0  0  0
   35.0298   19.2047   16.1148 H   0  0  0  0  0  0  0  0  0  0  0  0
   35.2947   17.5552   13.0602 H   0  0  0  0  0  0  0  0  0  0  0  0
   23.0992   23.0689    7.7336 H   0  0  0  0  0  0  0  0  0  0  0  0
   21.7734   24.1349    7.4083 H   0  0  0  0  0  0  0  0  0  0  0  0
   40.6694   24.5796   10.1337 H   0  0  0  0  0  0  0  0  0  0  0  0
   37.9265   17.4252   14.6714 H   0  0  0  0  0  0  0  0  0  0  0  0
   32.5366   24.1411    9.5820 H   0  0  0  0  0  0  0  0  0  0  0  0
   34.9725   19.0844    9.3033 H   0  0  0  0  0  0  0  0  0  0  0  0
   35.6067   21.4685    9.7711 H   0  0  0  0  0  0  0  0  0  0  0  0
   23.6972   28.3087    7.5215 H   0  0  0  0  0  0  0  0  0  0  0  0
   27.7997   23.5883    8.7269 H   0  0  0  0  0  0  0  0  0  0  0  0
   38.0981   25.8695   10.2925 H   0  0  0  0  0  0  0  0  0  0  0  0
   38.9959   25.7465   11.6509 H   0  0  0  0  0  0  0  0  0  0  0  0
   38.9721   19.0381   13.3354 H   0  0  0  0  0  0  0  0  0  0  0  0
   37.5303   19.7011   12.9502 H   0  0  0  0  0  0  0  0  0  0  0  0
   31.5112   21.5170   10.1407 H   0  0  0  0  0  0  0  0  0  0  0  0
   33.0834   21.9555   10.1897 H   0  0  0  0  0  0  0  0  0  0  0  0
   31.5904   21.5387    7.7658 H   0  0  0  0  0  0  0  0  0  0  0  0
   32.6514   20.4630    8.3855 H   0  0  0  0  0  0  0  0  0  0  0  0
   38.6635   23.5461   11.8285 H   0  0  0  0  0  0  0  0  0  0  0  0
   38.4467   23.3529   10.2216 H   0  0  0  0  0  0  0  0  0  0  0  0
   38.0659   17.1016   11.9305 H   0  0  0  0  0  0  0  0  0  0  0  0
   38.8514   18.3508   11.2309 H   0  0  0  0  0  0  0  0  0  0  0  0
   34.3188   22.3205    8.1104 H   0  0  0  0  0  0  0  0  0  0  0  0
   33.2264   22.9277    7.0593 H   0  0  0  0  0  0  0  0  0  0  0  0
   34.9319   21.5480    6.0210 H   0  0  0  0  0  0  0  0  0  0  0  0
   33.4038   21.0796    5.6859 H   0  0  0  0  0  0  0  0  0  0  0  0
   34.3870   19.1018    6.2067 H   0  0  0  0  0  0  0  0  0  0  0  0
   33.7107   19.5158    7.6342 H   0  0  0  0  0  0  0  0  0  0  0  0
   36.2753   24.2559   10.3860 H   0  0  0  0  0  0  0  0  0  0  0  0
   36.4901   24.5170   11.9836 H   0  0  0  0  0  0  0  0  0  0  0  0
   36.0997   18.7717   11.4628 H   0  0  0  0  0  0  0  0  0  0  0  0
   36.4746   17.5024   10.5063 H   0  0  0  0  0  0  0  0  0  0  0  0
   28.3152   27.1527    8.0799 H   0  0  0  0  0  0  0  0  0  0  0  0
   27.4819   26.6665   10.5193 H   0  0  0  0  0  0  0  0  0  0  0  0
   28.7261   24.8208   11.0234 H   0  0  0  0  0  0  0  0  0  0  0  0
   31.0434   25.7162    9.5979 H   0  0  0  0  0  0  0  0  0  0  0  0
   35.1264   22.6709   11.4822 H   0  0  0  0  0  0  0  0  0  0  0  0
   37.7906   18.9842    9.1369 H   0  0  0  0  0  0  0  0  0  0  0  0
   40.7631   26.5023    7.0544 H   0  0  0  0  0  0  0  0  0  0  0  0
   34.2249   18.2090   14.2552 H   0  0  0  0  0  0  0  0  0  0  0  0
  1 36  2  0  0  0  0
  2 39  2  0  0  0  0
  3 40  2  0  0  0  0
  4 41  2  0  0  0  0
  5 43  1  0  0  0  0
  6 44  1  0  0  0  0
  7 42  1  0  0  0  0
  7 46  1  0  0  0  0
  8 36  1  0  0  0  0
  9 37  2  0  0  0  0
 10 37  1  0  0  0  0
 11 38  2  0  0  0  0
 12 38  1  0  0  0  0
 13 45  1  0  0  0  0
 14 25  1  0  0  0  0
 14 37  1  0  0  0  0
 15 26  1  0  0  0  0
 15 38  1  0  0  0  0
 16 23  1  0  0  0  0
 16 45  2  0  0  0  0
 17 27  1  0  0  0  0
 17 40  1  0  0  0  0
 18 23  2  0  0  0  0
 18 47  1  0  0  0  0
 19 24  2  0  0  0  0
 19 50  1  0  0  0  0
 20 39  1  0  0  0  0
 20 49  1  0  0  0  0
 21 41  1  0  0  0  0
 21 48  1  0  0  0  0
 22 24  1  0  0  0  0
 22 42  1  0  0  0  0
 22 47  1  0  0  0  0
 25 29  1  0  0  0  0
 26 30  1  0  0  0  0
 27 28  1  0  0  0  0
 28 31  1  0  0  0  0
 29 34  1  0  0  0  0
 30 35  1  0  0  0  0
 31 32  1  0  0  0  0
 32 33  1  0  0  0  0
 33 39  1  0  0  0  0
 34 48  1  0  0  0  0
 35 49  1  0  0  0  0
 36 48  1  0  0  0  0
 40 46  1  0  0  0  0
 41 49  1  0  0  0  0
 42 43  1  0  0  0  0
 43 44  1  0  0  0  0
 44 46  1  0  0  0  0
 45 50  1  0  0  0  0
 47 50  2  0  0  0  0
  5 51  1  0  0  0  0
  6 52  1  0  0  0  0
  8 53  1  0  0  0  0
  8 54  1  0  0  0  0
  9 55  1  0  0  0  0
  9 56  1  0  0  0  0
 10 57  1  0  0  0  0
 11 58  1  0  0  0  0
 11 59  1  0  0  0  0
 12 60  1  0  0  0  0
 13 61  1  0  0  0  0
 13 62  1  0  0  0  0
 14 63  1  0  0  0  0
 15 64  1  0  0  0  0
 17 65  1  0  0  0  0
 20 66  1  0  0  0  0
 21 67  1  0  0  0  0
 23 68  1  0  0  0  0
 24 69  1  0  0  0  0
 25 70  1  0  0  0  0
 25 71  1  0  0  0  0
 26 72  1  0  0  0  0
 26 73  1  0  0  0  0
 27 74  1  0  0  0  0
 27 75  1  0  0  0  0
 28 76  1  0  0  0  0
 28 77  1  0  0  0  0
 29 78  1  0  0  0  0
 29 79  1  0  0  0  0
 30 80  1  0  0  0  0
 30 81  1  0  0  0  0
 31 82  1  0  0  0  0
 31 83  1  0  0  0  0
 32 84  1  0  0  0  0
 32 85  1  0  0  0  0
 33 86  1  0  0  0  0
 33 87  1  0  0  0  0
 34 88  1  0  0  0  0
 34 89  1  0  0  0  0
 35 90  1  0  0  0  0
 35 91  1  0  0  0  0
 42 92  1  0  0  0  0
 43 93  1  0  0  0  0
 44 94  1  0  0  0  0
 46 95  1  0  0  0  0
 48 96  1  0  0  0  0
 49 97  1  0  0  0  0
 10 98  1  0  0  0  0
 12 99  1  0  0  0  0
M  CHG  2   9   1  11   1
M  END
$$$$
3BWJ_ARX_A_352
prProtoss 12122423463D 1   1.00000     0.00000     0
Protoss beta proteinsplus
 99101  0  0  0  0            999 V2000
   33.5480   42.0350   30.8330 O   0  0  0  0  0  0  0  0  0  0  0  0
   34.5610   37.5810   33.1460 O   0  0  0  0  0  0  0  0  0  0  0  0
   42.4920   35.8530   31.6630 O   0  0  0  0  0  0  0  0  0  0  0  0
   31.4220   37.9110   31.8660 O   0  0  0  0  0  0  0  0  0  0  0  0
   40.7890   39.1910   27.5900 O   0  0  0  0  0  0  0  0  0  0  0  0
   42.8290   38.8360   29.2140 O   0  0  0  0  0  0  0  0  0  0  0  0
   41.8980   35.9150   28.1470 O   0  0  0  0  0  0  0  0  0  0  0  0
   31.9800   43.0200   32.1120 N   0  0  0  0  0  0  0  0  0  0  0  0
   25.1490   38.4830   29.7520 N   0  3  0  0  0  0  0  0  0  0  0  0
   25.9760   39.8720   31.3410 N   0  0  0  0  0  0  0  0  0  0  0  0
   35.4190   38.5420   25.0750 N   0  3  0  0  0  0  0  0  0  0  0  0
   33.8640   36.9460   24.7590 N   0  0  0  0  0  0  0  0  0  0  0  0
   36.0470   33.3910   25.5600 N   0  0  0  0  0  0  0  0  0  0  0  0
   27.1850   39.5040   29.4200 N   0  0  0  0  0  0  0  0  0  0  0  0
   34.9200   37.0610   26.7610 N   0  0  0  0  0  0  0  0  0  0  0  0
   37.2350   34.9330   24.1780 N   0  0  0  0  0  0  0  0  0  0  0  0
   40.7640   34.8800   30.5760 N   0  0  0  0  0  0  0  0  0  0  0  0
   39.1290   36.2240   24.9830 N   0  0  0  0  0  0  0  0  0  0  0  0
   38.0520   34.3040   27.7660 N   0  0  0  0  0  0  0  0  0  0  0  0
   34.7830   37.9170   30.9770 N   0  0  0  0  0  0  0  0  0  0  0  0
   32.4890   39.6170   30.8650 N   0  0  0  0  0  0  0  0  0  0  0  0
   39.6800   35.8280   27.3410 N   0  0  0  0  0  0  0  0  0  0  0  0
   38.2430   35.8370   24.0280 C   0  0  0  0  0  0  0  0  0  0  0  0
   39.1080   34.9980   28.2590 C   0  0  0  0  0  0  0  0  0  0  0  0
   28.1480   40.5040   29.8270 C   0  0  0  0  0  0  0  0  0  0  0  0
   34.2250   35.9230   27.3050 C   0  0  0  0  0  0  0  0  0  0  0  0
   40.0440   34.4110   31.7630 C   0  0  0  0  0  0  0  0  0  0  0  0
   38.5470   34.7470   31.7450 C   0  0  0  0  0  0  0  0  0  0  0  0
   29.4260   39.9950   30.4600 C   0  0  0  0  0  0  0  0  0  0  0  0
   34.1790   36.0130   28.8000 C   0  0  0  0  0  0  0  0  0  0  0  0
   38.1080   35.9460   32.6110 C   0  0  0  0  0  0  0  0  0  0  0  0
   37.5830   37.0550   31.7160 C   0  0  0  0  0  0  0  0  0  0  0  0
   36.7670   38.1270   32.4440 C   0  0  0  0  0  0  0  0  0  0  0  0
   30.5700   40.9510   30.1710 C   0  0  0  0  0  0  0  0  0  0  0  0
   33.2160   37.1140   29.2240 C   0  0  0  0  0  0  0  0  0  0  0  0
   32.4550   41.9860   31.3990 C   0  0  0  0  0  0  0  0  0  0  0  0
   26.0840   39.2670   30.1560 C   0  0  0  0  0  0  0  0  0  0  0  0
   34.7050   37.5080   25.5220 C   0  0  0  0  0  0  0  0  0  0  0  0
   35.2820   37.8650   32.2030 C   0  0  0  0  0  0  0  0  0  0  0  0
   41.8370   35.7020   30.6400 C   0  0  0  0  0  0  0  0  0  0  0  0
   32.3490   38.3370   31.1860 C   0  0  0  0  0  0  0  0  0  0  0  0
   40.8810   36.7190   27.5200 C   0  0  1  0  0  0  0  0  0  0  0  0
   40.6810   37.9820   28.3780 C   0  0  1  0  0  0  0  0  0  0  0  0
   41.7450   37.9170   29.4570 C   0  0  1  0  0  0  0  0  0  0  0  0
   37.0370   34.3140   25.3680 C   0  0  0  0  0  0  0  0  0  0  0  0
   42.2820   36.4840   29.4180 C   0  0  2  0  0  0  0  0  0  0  0  0
   39.0220   35.6700   26.2080 C   0  0  0  0  0  0  0  0  0  0  0  0
   31.6250   40.7290   31.2560 C   0  0  2  0  0  0  0  0  0  0  0  0
   33.4320   37.4090   30.6990 C   0  0  2  0  0  0  0  0  0  0  0  0
   37.9450   34.6720   26.4840 C   0  0  0  0  0  0  0  0  0  0  0  0
   39.9315   39.7025   27.6451 H   0  0  0  0  0  0  0  0  0  0  0  0
   42.6559   39.3392   28.3673 H   0  0  0  0  0  0  0  0  0  0  0  0
   31.0889   42.9507   32.5605 H   0  0  0  0  0  0  0  0  0  0  0  0
   32.5174   43.8593   32.1945 H   0  0  0  0  0  0  0  0  0  0  0  0
   25.2265   38.0280   28.8649 H   0  0  0  0  0  0  0  0  0  0  0  0
   24.3441   38.3280   30.3248 H   0  0  0  0  0  0  0  0  0  0  0  0
   26.7014   40.4826   31.6586 H   0  0  0  0  0  0  0  0  0  0  0  0
   36.0835   38.9875   25.6750 H   0  0  0  0  0  0  0  0  0  0  0  0
   35.2899   38.8718   24.1398 H   0  0  0  0  0  0  0  0  0  0  0  0
   33.3273   36.1705   25.0915 H   0  0  0  0  0  0  0  0  0  0  0  0
   33.7369   37.2779   23.8243 H   0  0  0  0  0  0  0  0  0  0  0  0
   35.9345   32.9571   26.4539 H   0  0  0  0  0  0  0  0  0  0  0  0
   35.4354   33.1497   24.8065 H   0  0  0  0  0  0  0  0  0  0  0  0
   27.3397   38.9823   28.5810 H   0  0  0  0  0  0  0  0  0  0  0  0
   40.4476   34.5785   29.6766 H   0  0  0  0  0  0  0  0  0  0  0  0
   35.3297   38.3049   30.2349 H   0  0  0  0  0  0  0  0  0  0  0  0
   33.2746   39.8467   30.2905 H   0  0  0  0  0  0  0  0  0  0  0  0
   38.3406   36.2574   23.1259 H   0  0  0  0  0  0  0  0  0  0  0  0
   39.4339   34.9098   29.2003 H   0  0  0  0  0  0  0  0  0  0  0  0
   27.7000   41.1053   30.4887 H   0  0  0  0  0  0  0  0  0  0  0  0
   28.4002   41.0308   29.0152 H   0  0  0  0  0  0  0  0  0  0  0  0
   34.7025   35.0857   27.0387 H   0  0  0  0  0  0  0  0  0  0  0  0
   33.2918   35.9030   26.9461 H   0  0  0  0  0  0  0  0  0  0  0  0
   40.4539   34.8361   32.5700 H   0  0  0  0  0  0  0  0  0  0  0  0
   40.1445   33.4178   31.8220 H   0  0  0  0  0  0  0  0  0  0  0  0
   38.0494   33.9409   32.0652 H   0  0  0  0  0  0  0  0  0  0  0  0
   38.2897   34.9435   30.7989 H   0  0  0  0  0  0  0  0  0  0  0  0
   29.6450   39.0944   30.0844 H   0  0  0  0  0  0  0  0  0  0  0  0
   29.2985   39.9216   31.4491 H   0  0  0  0  0  0  0  0  0  0  0  0
   35.0933   36.2202   29.1479 H   0  0  0  0  0  0  0  0  0  0  0  0
   33.8696   35.1393   29.1753 H   0  0  0  0  0  0  0  0  0  0  0  0
   38.8907   36.2830   33.1343 H   0  0  0  0  0  0  0  0  0  0  0  0
   37.3865   35.6560   33.2398 H   0  0  0  0  0  0  0  0  0  0  0  0
   37.0011   36.6418   31.0156 H   0  0  0  0  0  0  0  0  0  0  0  0
   38.3648   37.5005   31.2796 H   0  0  0  0  0  0  0  0  0  0  0  0
   37.0101   39.0309   32.0920 H   0  0  0  0  0  0  0  0  0  0  0  0
   36.9602   38.0881   33.4244 H   0  0  0  0  0  0  0  0  0  0  0  0
   30.2431   41.8957   30.1983 H   0  0  0  0  0  0  0  0  0  0  0  0
   30.9587   40.7587   29.2699 H   0  0  0  0  0  0  0  0  0  0  0  0
   32.2741   36.8128   29.0755 H   0  0  0  0  0  0  0  0  0  0  0  0
   33.3907   37.9391   28.6867 H   0  0  0  0  0  0  0  0  0  0  0  0
   41.2078   36.9970   26.6167 H   0  0  0  0  0  0  0  0  0  0  0  0
   39.7776   37.9486   28.8055 H   0  0  0  0  0  0  0  0  0  0  0  0
   41.3355   38.1026   30.3502 H   0  0  0  0  0  0  0  0  0  0  0  0
   43.2805   36.5343   29.4379 H   0  0  0  0  0  0  0  0  0  0  0  0
   31.1769   40.5193   32.1251 H   0  0  0  0  0  0  0  0  0  0  0  0
   33.3301   36.5460   31.1938 H   0  0  0  0  0  0  0  0  0  0  0  0
   25.1697   39.7146   31.9111 H   0  0  0  0  0  0  0  0  0  0  0  0
   35.5893   37.5344   27.3336 H   0  0  0  0  0  0  0  0  0  0  0  0
  1 36  2  0  0  0  0
  2 39  2  0  0  0  0
  3 40  2  0  0  0  0
  4 41  2  0  0  0  0
  5 43  1  0  0  0  0
  6 44  1  0  0  0  0
  7 42  1  0  0  0  0
  7 46  1  0  0  0  0
  8 36  1  0  0  0  0
  9 37  2  0  0  0  0
 10 37  1  0  0  0  0
 11 38  2  0  0  0  0
 12 38  1  0  0  0  0
 13 45  1  0  0  0  0
 14 25  1  0  0  0  0
 14 37  1  0  0  0  0
 15 26  1  0  0  0  0
 15 38  1  0  0  0  0
 16 23  1  0  0  0  0
 16 45  2  0  0  0  0
 17 27  1  0  0  0  0
 17 40  1  0  0  0  0
 18 23  2  0  0  0  0
 18 47  1  0  0  0  0
 19 24  2  0  0  0  0
 19 50  1  0  0  0  0
 20 39  1  0  0  0  0
 20 49  1  0  0  0  0
 21 41  1  0  0  0  0
 21 48  1  0  0  0  0
 22 24  1  0  0  0  0
 22 42  1  0  0  0  0
 22 47  1  0  0  0  0
 25 29  1  0  0  0  0
 26 30  1  0  0  0  0
 27 28  1  0  0  0  0
 28 31  1  0  0  0  0
 29 34  1  0  0  0  0
 30 35  1  0  0  0  0
 31 32  1  0  0  0  0
 32 33  1  0  0  0  0
 33 39  1  0  0  0  0
 34 48  1  0  0  0  0
 35 49  1  0  0  0  0
 36 48  1  0  0  0  0
 40 46  1  0  0  0  0
 41 49  1  0  0  0  0
 42 43  1  0  0  0  0
 43 44  1  0  0  0  0
 44 46  1  0  0  0  0
 45 50  1  0  0  0  0
 47 50  2  0  0  0  0
  5 51  1  0  0  0  0
  6 52  1  0  0  0  0
  8 53  1  0  0  0  0
  8 54  1  0  0  0  0
  9 55  1  0  0  0  0
  9 56  1  0  0  0  0
 10 57  1  0  0  0  0
 11 58  1  0  0  0  0
 11 59  1  0  0  0  0
 12 60  1  0  0  0  0
 12 61  1  0  0  0  0
 13 62  1  0  0  0  0
 13 63  1  0  0  0  0
 14 64  1  0  0  0  0
 17 65  1  0  0  0  0
 20 66  1  0  0  0  0
 21 67  1  0  0  0  0
 23 68  1  0  0  0  0
 24 69  1  0  0  0  0
 25 70  1  0  0  0  0
 25 71  1  0  0  0  0
 26 72  1  0  0  0  0
 26 73  1  0  0  0  0
 27 74  1  0  0  0  0
 27 75  1  0  0  0  0
 28 76  1  0  0  0  0
 28 77  1  0  0  0  0
 29 78  1  0  0  0  0
 29 79  1  0  0  0  0
 30 80  1  0  0  0  0
 30 81  1  0  0  0  0
 31 82  1  0  0  0  0
 31 83  1  0  0  0  0
 32 84  1  0  0  0  0
 32 85  1  0  0  0  0
 33 86  1  0  0  0  0
 33 87  1  0  0  0  0
 34 88  1  0  0  0  0
 34 89  1  0  0  0  0
 35 90  1  0  0  0  0
 35 91  1  0  0  0  0
 42 92  1  0  0  0  0
 43 93  1  0  0  0  0
 44 94  1  0  0  0  0
 46 95  1  0  0  0  0
 48 96  1  0  0  0  0
 49 97  1  0  0  0  0
 10 98  1  0  0  0  0
 15 99  1  0  0  0  0
M  CHG  2   9   1  11   1
M  END
$$$$
3AGL_A03_A_351
prProtoss 11272416273D 1   1.00000     0.00000     0
Protoss beta proteinsplus
128130  0  0  0  0            999 V2000
  -25.0690    2.3520   17.2220 O   0  0  0  0  0  0  0  0  0  0  0  0
  -14.7380   13.5310   12.1730 O   0  0  0  0  0  0  0  0  0  0  0  0
  -19.4620    5.2980   17.7220 O   0  0  0  0  0  0  0  0  0  0  0  0
  -16.5820    7.5410    6.9640 O   0  0  0  0  0  0  0  0  0  0  0  0
  -15.3050   11.6350   15.0070 O   0  0  0  0  0  0  0  0  0  0  0  0
  -22.3320    5.3900   18.7350 O   0  0  0  0  0  0  0  0  0  0  0  0
  -20.9760    5.0680    5.9800 O   0  0  0  0  0  0  0  0  0  0  0  0
  -19.0490    4.6600    7.9310 O   0  0  0  0  0  0  0  0  0  0  0  0
  -19.1020    7.4150    5.6860 O   0  0  0  0  0  0  0  0  0  0  0  0
  -20.2810   -2.2420   18.0560 N   0  3  0  0  0  0  0  0  0  0  0  0
  -19.7320   -2.2320   15.8290 N   0  0  0  0  0  0  0  0  0  0  0  0
  -21.4910    5.1310   10.6380 N   0  3  0  0  0  0  0  0  0  0  0  0
  -23.1650    3.9260   11.7290 N   0  0  0  0  0  0  0  0  0  0  0  0
  -24.8180    1.4570   19.2660 N   0  0  0  0  0  0  0  0  0  0  0  0
  -16.1020    5.4980   -0.1930 N   0  0  0  0  0  0  0  0  0  0  0  0
  -18.4220    5.2210   -0.1900 N   0  0  0  0  0  0  0  0  0  0  0  0
  -19.6070   -0.2720   17.0280 N   0  0  0  0  0  0  0  0  0  0  0  0
  -22.5020    6.0120   12.4970 N   0  0  0  0  0  0  0  0  0  0  0  0
  -19.6940    5.5280    1.7340 N   0  0  0  0  0  0  0  0  0  0  0  0
  -17.7790    8.0170    8.8360 N   0  0  0  0  0  0  0  0  0  0  0  0
  -15.2310    9.9700   13.4820 N   0  0  0  0  0  0  0  0  0  0  0  0
  -16.4400    6.1770    2.7130 N   0  0  0  0  0  0  0  0  0  0  0  0
  -13.3680   11.7160   12.1430 N   0  0  0  0  0  0  0  0  0  0  0  0
  -20.9280    6.8090   16.7380 N   0  0  0  0  0  0  0  0  0  0  0  0
  -22.6230    3.6530   17.3070 N   0  0  0  0  0  0  0  0  0  0  0  0
  -18.3750    6.1940    3.7040 N   0  0  0  0  0  0  0  0  0  0  0  0
  -12.2620   10.5300   14.0170 C   0  0  0  0  0  0  0  0  0  0  0  0
  -19.5910    5.2260    0.4450 C   0  0  0  0  0  0  0  0  0  0  0  0
  -17.0650    6.3890    3.8660 C   0  0  0  0  0  0  0  0  0  0  0  0
  -19.7280    0.4670   18.3100 C   0  0  0  0  0  0  0  0  0  0  0  0
  -23.4690    6.0140   13.5950 C   0  0  0  0  0  0  0  0  0  0  0  0
  -16.6920    8.7180    9.5380 C   0  0  0  0  0  0  0  0  0  0  0  0
  -16.5180    9.3810   13.8750 C   0  0  0  0  0  0  0  0  0  0  0  0
  -16.7020   10.2080    9.1740 C   0  0  0  0  0  0  0  0  0  0  0  0
  -16.2550    8.2790   14.8910 C   0  0  0  0  0  0  0  0  0  0  0  0
  -15.3670   10.7830    9.6380 C   0  0  0  0  0  0  0  0  0  0  0  0
  -16.8650    8.5730   16.2650 C   0  0  0  0  0  0  0  0  0  0  0  0
  -20.5220    1.7670   18.0620 C   0  0  0  0  0  0  0  0  0  0  0  0
  -23.1280    7.1460   14.5720 C   0  0  0  0  0  0  0  0  0  0  0  0
  -15.1950   12.2730    9.3360 C   0  0  0  0  0  0  0  0  0  0  0  0
  -18.3510    8.2120   16.2720 C   0  0  0  0  0  0  0  0  0  0  0  0
  -13.9360   12.7930   10.0380 C   0  0  0  0  0  0  0  0  0  0  0  0
  -18.8130    7.6420   17.5990 C   0  0  0  0  0  0  0  0  0  0  0  0
  -22.0170    1.4180   18.1680 C   0  0  0  0  0  0  0  0  0  0  0  0
  -23.2580    6.6220   16.0060 C   0  0  0  0  0  0  0  0  0  0  0  0
  -19.8750   -1.5790   16.9750 C   0  0  0  0  0  0  0  0  0  0  0  0
  -22.3880    5.0030   11.6280 C   0  0  0  0  0  0  0  0  0  0  0  0
  -24.3870    2.1400   18.2230 C   0  0  0  0  0  0  0  0  0  0  0  0
  -14.0520   12.7150   11.5640 C   0  0  0  0  0  0  0  0  0  0  0  0
  -19.7760    6.4650   17.3600 C   0  0  0  0  0  0  0  0  0  0  0  0
  -17.6330    7.5010    7.6130 C   0  0  0  0  0  0  0  0  0  0  0  0
  -14.7430   11.0530   14.0800 C   0  0  0  0  0  0  0  0  0  0  0  0
  -22.3410    4.9300   17.6000 C   0  0  0  0  0  0  0  0  0  0  0  0
  -19.4260    6.3390    4.7530 C   0  0  1  0  0  0  0  0  0  0  0  0
  -17.2790    5.5120    0.4510 C   0  0  0  0  0  0  0  0  0  0  0  0
  -19.6050    5.0900    5.5950 C   0  0  1  0  0  0  0  0  0  0  0  0
  -18.6520    5.3600    6.7770 C   0  0  1  0  0  0  0  0  0  0  0  0
  -18.8720    6.8420    7.0060 C   0  0  2  0  0  0  0  0  0  0  0  0
  -18.5890    5.8530    2.4360 C   0  0  0  0  0  0  0  0  0  0  0  0
  -13.3630   11.5250   13.5870 C   0  0  2  0  0  0  0  0  0  0  0  0
  -22.9330    2.6370   18.3280 C   0  0  2  0  0  0  0  0  0  0  0  0
  -22.0070    5.8370   16.4130 C   0  0  2  0  0  0  0  0  0  0  0  0
  -17.3510    5.8490    1.8040 C   0  0  0  0  0  0  0  0  0  0  0  0
  -21.0661    4.6134    6.8661 H   0  0  0  0  0  0  0  0  0  0  0  0
  -18.6109    3.7611    7.9428 H   0  0  0  0  0  0  0  0  0  0  0  0
  -20.3924   -1.7605   18.9253 H   0  0  0  0  0  0  0  0  0  0  0  0
  -20.4745   -3.2214   17.9985 H   0  0  0  0  0  0  0  0  0  0  0  0
  -19.4277   -1.7447   15.0105 H   0  0  0  0  0  0  0  0  0  0  0  0
  -20.9192    5.9496   10.5841 H   0  0  0  0  0  0  0  0  0  0  0  0
  -21.3944    4.4077    9.9542 H   0  0  0  0  0  0  0  0  0  0  0  0
  -23.8258    3.8545   12.4761 H   0  0  0  0  0  0  0  0  0  0  0  0
  -23.0876    3.1889   11.0577 H   0  0  0  0  0  0  0  0  0  0  0  0
  -24.2183    1.3157   20.0537 H   0  0  0  0  0  0  0  0  0  0  0  0
  -25.7444    1.0805   19.2690 H   0  0  0  0  0  0  0  0  0  0  0  0
  -15.2599    5.7173    0.2996 H   0  0  0  0  0  0  0  0  0  0  0  0
  -16.0669    5.2683   -1.1656 H   0  0  0  0  0  0  0  0  0  0  0  0
  -19.3233    0.2116   16.1999 H   0  0  0  0  0  0  0  0  0  0  0  0
  -18.6632    7.9232    9.2936 H   0  0  0  0  0  0  0  0  0  0  0  0
  -14.7071    9.5447   12.7440 H   0  0  0  0  0  0  0  0  0  0  0  0
  -12.8475   11.0854   11.5673 H   0  0  0  0  0  0  0  0  0  0  0  0
  -21.0610    7.7669   16.4834 H   0  0  0  0  0  0  0  0  0  0  0  0
  -22.6230    3.3755   16.3463 H   0  0  0  0  0  0  0  0  0  0  0  0
  -12.2826   10.4191   15.0106 H   0  0  0  0  0  0  0  0  0  0  0  0
  -12.4228    9.6453   13.5794 H   0  0  0  0  0  0  0  0  0  0  0  0
  -11.3680   10.8816   13.7393 H   0  0  0  0  0  0  0  0  0  0  0  0
  -20.4194    4.9947   -0.0652 H   0  0  0  0  0  0  0  0  0  0  0  0
  -16.6222    6.6537    4.7227 H   0  0  0  0  0  0  0  0  0  0  0  0
  -18.8169    0.6906   18.6563 H   0  0  0  0  0  0  0  0  0  0  0  0
  -20.2096   -0.0984   18.9796 H   0  0  0  0  0  0  0  0  0  0  0  0
  -23.4315    5.1371   14.0742 H   0  0  0  0  0  0  0  0  0  0  0  0
  -24.3889    6.1549   13.2291 H   0  0  0  0  0  0  0  0  0  0  0  0
  -15.8148    8.3186    9.2715 H   0  0  0  0  0  0  0  0  0  0  0  0
  -16.8176    8.6181   10.5250 H   0  0  0  0  0  0  0  0  0  0  0  0
  -16.9727    8.9972   13.0713 H   0  0  0  0  0  0  0  0  0  0  0  0
  -17.1001   10.0842   14.2833 H   0  0  0  0  0  0  0  0  0  0  0  0
  -17.4567   10.6711    9.6388 H   0  0  0  0  0  0  0  0  0  0  0  0
  -16.8004   10.3204    8.1852 H   0  0  0  0  0  0  0  0  0  0  0  0
  -15.2663    8.1731   14.9974 H   0  0  0  0  0  0  0  0  0  0  0  0
  -16.6462    7.4264   14.5446 H   0  0  0  0  0  0  0  0  0  0  0  0
  -14.6324   10.2822    9.1803 H   0  0  0  0  0  0  0  0  0  0  0  0
  -15.2943   10.6517   10.6267 H   0  0  0  0  0  0  0  0  0  0  0  0
  -16.7606    9.5459   16.4713 H   0  0  0  0  0  0  0  0  0  0  0  0
  -16.3905    8.0322   16.9595 H   0  0  0  0  0  0  0  0  0  0  0  0
  -20.3178    2.1240   17.1505 H   0  0  0  0  0  0  0  0  0  0  0  0
  -20.2809    2.4516   18.7498 H   0  0  0  0  0  0  0  0  0  0  0  0
  -23.7598    7.9089   14.4351 H   0  0  0  0  0  0  0  0  0  0  0  0
  -22.1909    7.4563   14.4119 H   0  0  0  0  0  0  0  0  0  0  0  0
  -15.9935   12.7750    9.6681 H   0  0  0  0  0  0  0  0  0  0  0  0
  -15.1051   12.4051    8.3488 H   0  0  0  0  0  0  0  0  0  0  0  0
  -18.5178    7.5326   15.5574 H   0  0  0  0  0  0  0  0  0  0  0  0
  -18.8809    9.0374   16.0774 H   0  0  0  0  0  0  0  0  0  0  0  0
  -13.7904   13.7465    9.7742 H   0  0  0  0  0  0  0  0  0  0  0  0
  -13.1536   12.2431    9.7457 H   0  0  0  0  0  0  0  0  0  0  0  0
  -19.2836    8.3544   18.1195 H   0  0  0  0  0  0  0  0  0  0  0  0
  -18.0194    7.3208   18.1157 H   0  0  0  0  0  0  0  0  0  0  0  0
  -22.1452    0.8223   18.9609 H   0  0  0  0  0  0  0  0  0  0  0  0
  -22.2855    0.9300   17.3375 H   0  0  0  0  0  0  0  0  0  0  0  0
  -24.0555    6.0216   16.0647 H   0  0  0  0  0  0  0  0  0  0  0  0
  -23.3767    7.3957   16.6284 H   0  0  0  0  0  0  0  0  0  0  0  0
  -20.2956    6.5523    4.3077 H   0  0  0  0  0  0  0  0  0  0  0  0
  -19.3478    4.2644    5.0927 H   0  0  0  0  0  0  0  0  0  0  0  0
  -17.7019    5.1623    6.5358 H   0  0  0  0  0  0  0  0  0  0  0  0
  -19.6679    6.9894    7.5932 H   0  0  0  0  0  0  0  0  0  0  0  0
  -13.1668   12.4072   14.0150 H   0  0  0  0  0  0  0  0  0  0  0  0
  -22.7901    3.0337   19.2347 H   0  0  0  0  0  0  0  0  0  0  0  0
  -21.7135    5.2704   15.6430 H   0  0  0  0  0  0  0  0  0  0  0  0
  -19.9285   -3.2115   15.7837 H   0  0  0  0  0  0  0  0  0  0  0  0
  -21.8983    6.8023   12.3919 H   0  0  0  0  0  0  0  0  0  0  0  0
  1 48  2  0  0  0  0
  2 49  2  0  0  0  0
  3 50  2  0  0  0  0
  4 51  2  0  0  0  0
  5 52  2  0  0  0  0
  6 53  2  0  0  0  0
  7 56  1  0  0  0  0
  8 57  1  0  0  0  0
  9 54  1  0  0  0  0
  9 58  1  0  0  0  0
 10 46  2  0  0  0  0
 11 46  1  0  0  0  0
 12 47  2  0  0  0  0
 13 47  1  0  0  0  0
 14 48  1  0  0  0  0
 15 55  1  0  0  0  0
 16 28  1  0  0  0  0
 16 55  2  0  0  0  0
 17 30  1  0  0  0  0
 17 46  1  0  0  0  0
 18 31  1  0  0  0  0
 18 47  1  0  0  0  0
 19 28  2  0  0  0  0
 19 59  1  0  0  0  0
 20 32  1  0  0  0  0
 20 51  1  0  0  0  0
 21 33  1  0  0  0  0
 21 52  1  0  0  0  0
 22 29  2  0  0  0  0
 22 63  1  0  0  0  0
 23 49  1  0  0  0  0
 23 60  1  0  0  0  0
 24 50  1  0  0  0  0
 24 62  1  0  0  0  0
 25 53  1  0  0  0  0
 25 61  1  0  0  0  0
 26 29  1  0  0  0  0
 26 54  1  0  0  0  0
 26 59  1  0  0  0  0
 27 60  1  0  0  0  0
 30 38  1  0  0  0  0
 31 39  1  0  0  0  0
 32 34  1  0  0  0  0
 33 35  1  0  0  0  0
 34 36  1  0  0  0  0
 35 37  1  0  0  0  0
 36 40  1  0  0  0  0
 37 41  1  0  0  0  0
 38 44  1  0  0  0  0
 39 45  1  0  0  0  0
 40 42  1  0  0  0  0
 41 43  1  0  0  0  0
 42 49  1  0  0  0  0
 43 50  1  0  0  0  0
 44 61  1  0  0  0  0
 45 62  1  0  0  0  0
 48 61  1  0  0  0  0
 51 58  1  0  0  0  0
 52 60  1  0  0  0  0
 53 62  1  0  0  0  0
 54 56  1  0  0  0  0
 55 63  1  0  0  0  0
 56 57  1  0  0  0  0
 57 58  1  0  0  0  0
 59 63  2  0  0  0  0
  7 64  1  0  0  0  0
  8 65  1  0  0  0  0
 10 66  1  0  0  0  0
 10 67  1  0  0  0  0
 11 68  1  0  0  0  0
 12 69  1  0  0  0  0
 12 70  1  0  0  0  0
 13 71  1  0  0  0  0
 13 72  1  0  0  0  0
 14 73  1  0  0  0  0
 14 74  1  0  0  0  0
 15 75  1  0  0  0  0
 15 76  1  0  0  0  0
 17 77  1  0  0  0  0
 20 78  1  0  0  0  0
 21 79  1  0  0  0  0
 23 80  1  0  0  0  0
 24 81  1  0  0  0  0
 25 82  1  0  0  0  0
 27 83  1  0  0  0  0
 27 84  1  0  0  0  0
 27 85  1  0  0  0  0
 28 86  1  0  0  0  0
 29 87  1  0  0  0  0
 30 88  1  0  0  0  0
 30 89  1  0  0  0  0
 31 90  1  0  0  0  0
 31 91  1  0  0  0  0
 32 92  1  0  0  0  0
 32 93  1  0  0  0  0
 33 94  1  0  0  0  0
 33 95  1  0  0  0  0
 34 96  1  0  0  0  0
 34 97  1  0  0  0  0
 35 98  1  0  0  0  0
 35 99  1  0  0  0  0
 36100  1  0  0  0  0
 36101  1  0  0  0  0
 37102  1  0  0  0  0
 37103  1  0  0  0  0
 38104  1  0  0  0  0
 38105  1  0  0  0  0
 39106  1  0  0  0  0
 39107  1  0  0  0  0
 40108  1  0  0  0  0
 40109  1  0  0  0  0
 41110  1  0  0  0  0
 41111  1  0  0  0  0
 42112  1  0  0  0  0
 42113  1  0  0  0  0
 43114  1  0  0  0  0
 43115  1  0  0  0  0
 44116  1  0  0  0  0
 44117  1  0  0  0  0
 45118  1  0  0  0  0
 45119  1  0  0  0  0
 54120  1  0  0  0  0
 56121  1  0  0  0  0
 57122  1  0  0  0  0
 58123  1  0  0  0  0
 60124  1  0  0  0  0
 61125  1  0  0  0  0
 62126  1  0  0  0  0
 11127  1  0  0  0  0
 18128  1  0  0  0  0
M  CHG  2  10   1  12   1
M  END
$$$$
3AGL_A03_B_351
prProtoss 11272416273D 1   1.00000     0.00000     0
Protoss beta proteinsplus
128130  0  0  0  0            999 V2000
  -25.4030   51.4620  -15.7080 O   0  0  0  0  0  0  0  0  0  0  0  0
  -15.5470   62.9180  -20.6760 O   0  0  0  0  0  0  0  0  0  0  0  0
  -19.5960   54.5810  -15.7930 O   0  0  0  0  0  0  0  0  0  0  0  0
  -17.0620   56.7910  -25.7710 O   0  0  0  0  0  0  0  0  0  0  0  0
  -16.0210   61.0120  -17.8820 O   0  0  0  0  0  0  0  0  0  0  0  0
  -22.5980   54.4640  -14.1900 O   0  0  0  0  0  0  0  0  0  0  0  0
  -21.2830   54.4660  -27.0720 O   0  0  0  0  0  0  0  0  0  0  0  0
  -19.3720   54.1670  -25.1610 O   0  0  0  0  0  0  0  0  0  0  0  0
  -19.5610   56.9940  -27.3980 O   0  0  0  0  0  0  0  0  0  0  0  0
  -20.3580   46.8320  -15.2410 N   0  3  0  0  0  0  0  0  0  0  0  0
  -20.0330   47.1110  -17.4980 N   0  0  0  0  0  0  0  0  0  0  0  0
  -21.7610   54.4390  -22.4510 N   0  3  0  0  0  0  0  0  0  0  0  0
  -23.5620   53.2220  -21.6700 N   0  0  0  0  0  0  0  0  0  0  0  0
  -24.9610   50.6680  -13.6390 N   0  0  0  0  0  0  0  0  0  0  0  0
  -16.2710   55.0290  -33.1830 N   0  0  0  0  0  0  0  0  0  0  0  0
  -18.5840   54.7200  -33.2560 N   0  0  0  0  0  0  0  0  0  0  0  0
  -20.0200   48.9610  -16.1190 N   0  0  0  0  0  0  0  0  0  0  0  0
  -22.8090   55.1320  -20.5450 N   0  0  0  0  0  0  0  0  0  0  0  0
  -19.9320   55.1150  -31.3940 N   0  0  0  0  0  0  0  0  0  0  0  0
  -18.4360   57.6650  -24.2120 N   0  0  0  0  0  0  0  0  0  0  0  0
  -15.9340   59.3800  -19.4510 N   0  0  0  0  0  0  0  0  0  0  0  0
  -16.7120   55.7660  -30.2980 N   0  0  0  0  0  0  0  0  0  0  0  0
  -14.0590   61.1840  -20.7120 N   0  0  0  0  0  0  0  0  0  0  0  0
  -21.2950   56.0840  -16.0140 N   0  0  0  0  0  0  0  0  0  0  0  0
  -22.9340   52.8720  -15.7740 N   0  0  0  0  0  0  0  0  0  0  0  0
  -18.7000   55.7980  -29.3860 N   0  0  0  0  0  0  0  0  0  0  0  0
  -13.0090   59.8550  -18.8760 C   0  0  0  0  0  0  0  0  0  0  0  0
  -19.7830   54.7640  -32.6690 C   0  0  0  0  0  0  0  0  0  0  0  0
  -17.3940   55.9890  -29.1730 C   0  0  0  0  0  0  0  0  0  0  0  0
  -20.0330   49.6050  -14.7860 C   0  0  0  0  0  0  0  0  0  0  0  0
  -23.8070   55.0820  -19.4620 C   0  0  0  0  0  0  0  0  0  0  0  0
  -17.3400   58.2850  -23.4480 C   0  0  0  0  0  0  0  0  0  0  0  0
  -17.2410   58.7660  -19.1200 C   0  0  0  0  0  0  0  0  0  0  0  0
  -17.3370   59.7930  -23.7300 C   0  0  0  0  0  0  0  0  0  0  0  0
  -17.0270   57.5480  -18.1870 C   0  0  0  0  0  0  0  0  0  0  0  0
  -15.9230   60.3390  -23.6190 C   0  0  0  0  0  0  0  0  0  0  0  0
  -17.2880   57.8640  -16.7030 C   0  0  0  0  0  0  0  0  0  0  0  0
  -20.8220   50.9040  -14.8130 C   0  0  0  0  0  0  0  0  0  0  0  0
  -23.4850   56.2200  -18.4660 C   0  0  0  0  0  0  0  0  0  0  0  0
  -15.8940   61.8690  -23.5320 C   0  0  0  0  0  0  0  0  0  0  0  0
  -18.7820   57.8260  -16.3670 C   0  0  0  0  0  0  0  0  0  0  0  0
  -14.6210   62.2970  -22.7990 C   0  0  0  0  0  0  0  0  0  0  0  0
  -19.1150   56.8580  -15.2160 C   0  0  0  0  0  0  0  0  0  0  0  0
  -22.2680   50.6030  -15.2070 C   0  0  0  0  0  0  0  0  0  0  0  0
  -23.5870   55.7760  -16.9950 C   0  0  0  0  0  0  0  0  0  0  0  0
  -20.1420   47.6370  -16.2820 C   0  0  0  0  0  0  0  0  0  0  0  0
  -22.7290   54.2610  -21.5540 C   0  0  0  0  0  0  0  0  0  0  0  0
  -24.6340   51.2920  -14.7660 C   0  0  0  0  0  0  0  0  0  0  0  0
  -14.7830   62.1610  -21.2790 C   0  0  0  0  0  0  0  0  0  0  0  0
  -20.0400   55.7280  -15.6950 C   0  0  0  0  0  0  0  0  0  0  0  0
  -18.1940   56.9770  -25.3270 C   0  0  0  0  0  0  0  0  0  0  0  0
  -15.4410   60.4290  -18.7890 C   0  0  0  0  0  0  0  0  0  0  0  0
  -22.6230   54.1040  -15.3690 C   0  0  0  0  0  0  0  0  0  0  0  0
  -19.8310   55.9310  -28.3660 C   0  0  1  0  0  0  0  0  0  0  0  0
  -17.4670   55.0520  -32.5790 C   0  0  0  0  0  0  0  0  0  0  0  0
  -19.9440   54.6290  -27.5320 C   0  0  1  0  0  0  0  0  0  0  0  0
  -19.0350   54.9260  -26.3350 C   0  0  1  0  0  0  0  0  0  0  0  0
  -19.3810   56.3840  -26.0740 C   0  0  2  0  0  0  0  0  0  0  0  0
  -18.8510   55.4460  -30.6580 C   0  0  0  0  0  0  0  0  0  0  0  0
  -14.0630   60.9040  -19.2520 C   0  0  2  0  0  0  0  0  0  0  0  0
  -23.1720   51.7700  -14.8190 C   0  0  2  0  0  0  0  0  0  0  0  0
  -22.2960   55.1020  -16.5000 C   0  0  2  0  0  0  0  0  0  0  0  0
  -17.5880   55.4270  -31.2390 C   0  0  0  0  0  0  0  0  0  0  0  0
  -21.2788   53.9742  -26.2013 H   0  0  0  0  0  0  0  0  0  0  0  0
  -19.2950   53.1904  -25.3619 H   0  0  0  0  0  0  0  0  0  0  0  0
  -20.4418   47.2155  -14.3213 H   0  0  0  0  0  0  0  0  0  0  0  0
  -20.4361   45.8448  -15.3801 H   0  0  0  0  0  0  0  0  0  0  0  0
  -19.8710   47.7041  -18.2867 H   0  0  0  0  0  0  0  0  0  0  0  0
  -21.1370   55.2157  -22.3657 H   0  0  0  0  0  0  0  0  0  0  0  0
  -21.6581   53.7959  -23.2099 H   0  0  0  0  0  0  0  0  0  0  0  0
  -24.2895   53.0868  -20.9973 H   0  0  0  0  0  0  0  0  0  0  0  0
  -23.4577   52.5799  -22.4295 H   0  0  0  0  0  0  0  0  0  0  0  0
  -24.2840   50.5642  -12.9104 H   0  0  0  0  0  0  0  0  0  0  0  0
  -25.8840   50.3023  -13.5197 H   0  0  0  0  0  0  0  0  0  0  0  0
  -15.4480   55.2771  -32.6720 H   0  0  0  0  0  0  0  0  0  0  0  0
  -16.2015   54.7638  -34.1447 H   0  0  0  0  0  0  0  0  0  0  0  0
  -19.9160   49.5371  -16.9297 H   0  0  0  0  0  0  0  0  0  0  0  0
  -19.3772   57.7620  -23.8885 H   0  0  0  0  0  0  0  0  0  0  0  0
  -15.3989   58.9924  -20.2016 H   0  0  0  0  0  0  0  0  0  0  0  0
  -13.4869   60.6145  -21.3022 H   0  0  0  0  0  0  0  0  0  0  0  0
  -21.5640   57.0426  -15.9210 H   0  0  0  0  0  0  0  0  0  0  0  0
  -23.0084   52.6884  -16.7542 H   0  0  0  0  0  0  0  0  0  0  0  0
  -13.0388   59.6910  -17.8900 H   0  0  0  0  0  0  0  0  0  0  0  0
  -13.1997   59.0019  -19.3617 H   0  0  0  0  0  0  0  0  0  0  0  0
  -12.1013   60.1881  -19.1312 H   0  0  0  0  0  0  0  0  0  0  0  0
  -20.5936   54.5259  -33.2040 H   0  0  0  0  0  0  0  0  0  0  0  0
  -16.9883   56.2590  -28.2998 H   0  0  0  0  0  0  0  0  0  0  0  0
  -19.0923   49.8000  -14.5084 H   0  0  0  0  0  0  0  0  0  0  0  0
  -20.4528   48.9816  -14.1263 H   0  0  0  0  0  0  0  0  0  0  0  0
  -23.7585   54.1986  -18.9958 H   0  0  0  0  0  0  0  0  0  0  0  0
  -24.7243   55.2100  -19.8391 H   0  0  0  0  0  0  0  0  0  0  0  0
  -16.4665   57.8880  -23.7299 H   0  0  0  0  0  0  0  0  0  0  0  0
  -17.4787   58.1255  -22.4706 H   0  0  0  0  0  0  0  0  0  0  0  0
  -17.6890   58.4648  -19.9618 H   0  0  0  0  0  0  0  0  0  0  0  0
  -17.8174   59.4405  -18.6586 H   0  0  0  0  0  0  0  0  0  0  0  0
  -17.9238   60.2555  -23.0654 H   0  0  0  0  0  0  0  0  0  0  0  0
  -17.6844   59.9581  -24.6531 H   0  0  0  0  0  0  0  0  0  0  0  0
  -16.0817   57.2364  -18.2836 H   0  0  0  0  0  0  0  0  0  0  0  0
  -17.6491   56.8181  -18.4702 H   0  0  0  0  0  0  0  0  0  0  0  0
  -15.4039   60.0530  -24.4245 H   0  0  0  0  0  0  0  0  0  0  0  0
  -15.4967   59.9622  -22.7966 H   0  0  0  0  0  0  0  0  0  0  0  0
  -16.9336   58.7766  -16.4993 H   0  0  0  0  0  0  0  0  0  0  0  0
  -16.8124   57.1883  -16.1398 H   0  0  0  0  0  0  0  0  0  0  0  0
  -20.4162   51.5285  -15.4804 H   0  0  0  0  0  0  0  0  0  0  0  0
  -20.8029   51.3263  -13.9067 H   0  0  0  0  0  0  0  0  0  0  0  0
  -24.1294   56.9693  -18.6185 H   0  0  0  0  0  0  0  0  0  0  0  0
  -22.5538   56.5410  -18.6385 H   0  0  0  0  0  0  0  0  0  0  0  0
  -16.6959   62.1924  -23.0297 H   0  0  0  0  0  0  0  0  0  0  0  0
  -15.8984   62.2582  -24.4532 H   0  0  0  0  0  0  0  0  0  0  0  0
  -19.2847   57.5373  -17.1818 H   0  0  0  0  0  0  0  0  0  0  0  0
  -19.0731   58.7459  -16.1042 H   0  0  0  0  0  0  0  0  0  0  0  0
  -14.4217   63.2513  -23.0216 H   0  0  0  0  0  0  0  0  0  0  0  0
  -13.8620   61.7192  -23.0991 H   0  0  0  0  0  0  0  0  0  0  0  0
  -19.5703   57.3649  -14.4841 H   0  0  0  0  0  0  0  0  0  0  0  0
  -18.2662   56.4601  -14.8678 H   0  0  0  0  0  0  0  0  0  0  0  0
  -22.5741   49.7764  -14.7347 H   0  0  0  0  0  0  0  0  0  0  0  0
  -22.3184   50.4602  -16.1955 H   0  0  0  0  0  0  0  0  0  0  0  0
  -24.3431   55.1277  -16.9061 H   0  0  0  0  0  0  0  0  0  0  0  0
  -23.7685   56.5795  -16.4280 H   0  0  0  0  0  0  0  0  0  0  0  0
  -20.6949   56.1102  -28.8367 H   0  0  0  0  0  0  0  0  0  0  0  0
  -19.6297   53.8313  -28.0466 H   0  0  0  0  0  0  0  0  0  0  0  0
  -18.0701   54.8177  -26.5744 H   0  0  0  0  0  0  0  0  0  0  0  0
  -20.2171   56.4596  -25.5307 H   0  0  0  0  0  0  0  0  0  0  0  0
  -13.8460   61.7528  -18.7698 H   0  0  0  0  0  0  0  0  0  0  0  0
  -22.9093   52.0820  -13.9060 H   0  0  0  0  0  0  0  0  0  0  0  0
  -21.8942   54.5938  -17.2618 H   0  0  0  0  0  0  0  0  0  0  0  0
  -20.1130   46.1222  -17.6241 H   0  0  0  0  0  0  0  0  0  0  0  0
  -22.1403   55.8752  -20.5226 H   0  0  0  0  0  0  0  0  0  0  0  0
  1 48  2  0  0  0  0
  2 49  2  0  0  0  0
  3 50  2  0  0  0  0
  4 51  2  0  0  0  0
  5 52  2  0  0  0  0
  6 53  2  0  0  0  0
  7 56  1  0  0  0  0
  8 57  1  0  0  0  0
  9 54  1  0  0  0  0
  9 58  1  0  0  0  0
 10 46  2  0  0  0  0
 11 46  1  0  0  0  0
 12 47  2  0  0  0  0
 13 47  1  0  0  0  0
 14 48  1  0  0  0  0
 15 55  1  0  0  0  0
 16 28  1  0  0  0  0
 16 55  2  0  0  0  0
 17 30  1  0  0  0  0
 17 46  1  0  0  0  0
 18 31  1  0  0  0  0
 18 47  1  0  0  0  0
 19 28  2  0  0  0  0
 19 59  1  0  0  0  0
 20 32  1  0  0  0  0
 20 51  1  0  0  0  0
 21 33  1  0  0  0  0
 21 52  1  0  0  0  0
 22 29  2  0  0  0  0
 22 63  1  0  0  0  0
 23 49  1  0  0  0  0
 23 60  1  0  0  0  0
 24 50  1  0  0  0  0
 24 62  1  0  0  0  0
 25 53  1  0  0  0  0
 25 61  1  0  0  0  0
 26 29  1  0  0  0  0
 26 54  1  0  0  0  0
 26 59  1  0  0  0  0
 27 60  1  0  0  0  0
 30 38  1  0  0  0  0
 31 39  1  0  0  0  0
 32 34  1  0  0  0  0
 33 35  1  0  0  0  0
 34 36  1  0  0  0  0
 35 37  1  0  0  0  0
 36 40  1  0  0  0  0
 37 41  1  0  0  0  0
 38 44  1  0  0  0  0
 39 45  1  0  0  0  0
 40 42  1  0  0  0  0
 41 43  1  0  0  0  0
 42 49  1  0  0  0  0
 43 50  1  0  0  0  0
 44 61  1  0  0  0  0
 45 62  1  0  0  0  0
 48 61  1  0  0  0  0
 51 58  1  0  0  0  0
 52 60  1  0  0  0  0
 53 62  1  0  0  0  0
 54 56  1  0  0  0  0
 55 63  1  0  0  0  0
 56 57  1  0  0  0  0
 57 58  1  0  0  0  0
 59 63  2  0  0  0  0
  7 64  1  0  0  0  0
  8 65  1  0  0  0  0
 10 66  1  0  0  0  0
 10 67  1  0  0  0  0
 11 68  1  0  0  0  0
 12 69  1  0  0  0  0
 12 70  1  0  0  0  0
 13 71  1  0  0  0  0
 13 72  1  0  0  0  0
 14 73  1  0  0  0  0
 14 74  1  0  0  0  0
 15 75  1  0  0  0  0
 15 76  1  0  0  0  0
 17 77  1  0  0  0  0
 20 78  1  0  0  0  0
 21 79  1  0  0  0  0
 23 80  1  0  0  0  0
 24 81  1  0  0  0  0
 25 82  1  0  0  0  0
 27 83  1  0  0  0  0
 27 84  1  0  0  0  0
 27 85  1  0  0  0  0
 28 86  1  0  0  0  0
 29 87  1  0  0  0  0
 30 88  1  0  0  0  0
 30 89  1  0  0  0  0
 31 90  1  0  0  0  0
 31 91  1  0  0  0  0
 32 92  1  0  0  0  0
 32 93  1  0  0  0  0
 33 94  1  0  0  0  0
 33 95  1  0  0  0  0
 34 96  1  0  0  0  0
 34 97  1  0  0  0  0
 35 98  1  0  0  0  0
 35 99  1  0  0  0  0
 36100  1  0  0  0  0
 36101  1  0  0  0  0
 37102  1  0  0  0  0
 37103  1  0  0  0  0
 38104  1  0  0  0  0
 38105  1  0  0  0  0
 39106  1  0  0  0  0
 39107  1  0  0  0  0
 40108  1  0  0  0  0
 40109  1  0  0  0  0
 41110  1  0  0  0  0
 41111  1  0  0  0  0
 42112  1  0  0  0  0
 42113  1  0  0  0  0
 43114  1  0  0  0  0
 43115  1  0  0  0  0
 44116  1  0  0  0  0
 44117  1  0  0  0  0
 45118  1  0  0  0  0
 45119  1  0  0  0  0
 54120  1  0  0  0  0
 56121  1  0  0  0  0
 57122  1  0  0  0  0
 58123  1  0  0  0  0
 60124  1  0  0  0  0
 61125  1  0  0  0  0
 62126  1  0  0  0  0
 11127  1  0  0  0  0
 18128  1  0  0  0  0
M  CHG  2  10   1  12   1
M  END
$$$$
3AG9_A02_B_351
prProtoss 11272416273D 1   1.00000     0.00000     0
Protoss beta proteinsplus
140142  0  0  0  0            999 V2000
   14.8180   17.0370    3.1090 O   0  0  0  0  0  0  0  0  0  0  0  0
   15.9480    1.3040    4.6780 O   0  0  0  0  0  0  0  0  0  0  0  0
   17.5310   11.4240    1.2740 O   0  0  0  0  0  0  0  0  0  0  0  0
   11.5190    4.3030   10.5370 O   0  0  0  0  0  0  0  0  0  0  0  0
   15.7310    4.6850    5.0080 O   0  0  0  0  0  0  0  0  0  0  0  0
   16.2800   14.1540    1.4550 O   0  0  0  0  0  0  0  0  0  0  0  0
    9.7350    8.0680   12.4790 O   0  0  0  0  0  0  0  0  0  0  0  0
    8.3910    7.5990   10.2280 O   0  0  0  0  0  0  0  0  0  0  0  0
    8.9100    4.8170   11.2340 O   0  0  0  0  0  0  0  0  0  0  0  0
   20.2100    8.2020    8.2270 N   0  3  0  0  0  0  0  0  0  0  0  0
   16.1500   17.9510    1.5300 N   0  0  0  0  0  0  0  0  0  0  0  0
   16.9670   17.9090    9.1010 N   0  3  0  0  0  0  0  0  0  0  0  0
   18.1780   19.8160    8.6480 N   0  0  0  0  0  0  0  0  0  0  0  0
   12.2550   15.4440    1.0400 N   0  3  0  0  0  0  0  0  0  0  0  0
   12.3120   13.6200   -0.3520 N   0  0  0  0  0  0  0  0  0  0  0  0
   10.1900    3.1300   17.6810 N   0  0  0  0  0  0  0  0  0  0  0  0
    8.1330    4.1030   17.1980 N   0  0  0  0  0  0  0  0  0  0  0  0
   18.3430   18.0710    7.2130 N   0  0  0  0  0  0  0  0  0  0  0  0
   12.7560   13.3160    1.8780 N   0  0  0  0  0  0  0  0  0  0  0  0
    7.7330    5.1070   15.1410 N   0  0  0  0  0  0  0  0  0  0  0  0
   11.1750    4.8980    8.3660 N   0  0  0  0  0  0  0  0  0  0  0  0
   16.9520    4.6450    3.1120 N   0  0  0  0  0  0  0  0  0  0  0  0
   10.9870    3.9300   14.9430 N   0  0  0  0  0  0  0  0  0  0  0  0
   17.1720    2.5850    6.1140 N   0  0  0  0  0  0  0  0  0  0  0  0
   15.5410   11.6900    2.3450 N   0  0  0  0  0  0  0  0  0  0  0  0
   16.7690   14.9850    3.5020 N   0  0  0  0  0  0  0  0  0  0  0  0
    9.6260    5.0080   13.5880 N   0  0  0  0  0  0  0  0  0  0  0  0
    7.3260    4.7630   16.3560 C   0  0  0  0  0  0  0  0  0  0  0  0
   19.8140    6.7850    8.3170 C   0  0  0  0  0  0  0  0  0  0  0  0
   10.8470    4.4670   13.7260 C   0  0  0  0  0  0  0  0  0  0  0  0
   18.0520   16.7450    6.6770 C   0  0  0  0  0  0  0  0  0  0  0  0
   12.9210   13.7540    3.2770 C   0  0  0  0  0  0  0  0  0  0  0  0
   12.4690    4.4440    7.8270 C   0  0  0  0  0  0  0  0  0  0  0  0
   16.0230    5.4860    2.3230 C   0  0  0  0  0  0  0  0  0  0  0  0
   19.9630    6.1100    6.9450 C   0  0  0  0  0  0  0  0  0  0  0  0
   12.5930    2.9190    7.7970 C   0  0  0  0  0  0  0  0  0  0  0  0
   16.6190    6.8800    2.0970 C   0  0  0  0  0  0  0  0  0  0  0  0
   17.0880   16.9250    5.5090 C   0  0  0  0  0  0  0  0  0  0  0  0
   13.5280   12.5910    4.0780 C   0  0  0  0  0  0  0  0  0  0  0  0
   13.9760    2.5800    7.2340 C   0  0  0  0  0  0  0  0  0  0  0  0
   15.6320    7.7690    1.3310 C   0  0  0  0  0  0  0  0  0  0  0  0
   18.6760    5.3540    6.5530 C   0  0  0  0  0  0  0  0  0  0  0  0
   14.2840    1.0790    7.2730 C   0  0  0  0  0  0  0  0  0  0  0  0
   16.3530    8.7960    0.4520 C   0  0  0  0  0  0  0  0  0  0  0  0
   15.7840    0.8100    7.0410 C   0  0  0  0  0  0  0  0  0  0  0  0
   15.6390   10.1580    0.4650 C   0  0  0  0  0  0  0  0  0  0  0  0
   17.8410   17.0950    4.1880 C   0  0  0  0  0  0  0  0  0  0  0  0
   14.9850   12.8640    4.4900 C   0  0  0  0  0  0  0  0  0  0  0  0
   19.0060    4.2140    5.5840 C   0  0  0  0  0  0  0  0  0  0  0  0
   15.9170   17.1400    2.5600 C   0  0  0  0  0  0  0  0  0  0  0  0
   17.8120   18.5840    8.3220 C   0  0  0  0  0  0  0  0  0  0  0  0
   12.4380   14.1360    0.8670 C   0  0  0  0  0  0  0  0  0  0  0  0
   16.3250    1.5850    5.8220 C   0  0  0  0  0  0  0  0  0  0  0  0
   16.3330   11.1550    1.4080 C   0  0  0  0  0  0  0  0  0  0  0  0
   10.8260    4.8240    9.6510 C   0  0  0  0  0  0  0  0  0  0  0  0
   16.7230    4.3270    4.3850 C   0  0  0  0  0  0  0  0  0  0  0  0
   16.3700   14.0160    2.6750 C   0  0  0  0  0  0  0  0  0  0  0  0
    9.0810    5.7280   12.3590 C   0  0  1  0  0  0  0  0  0  0  0  0
   10.0240    6.8320   11.8420 C   0  0  1  0  0  0  0  0  0  0  0  0
    9.6510    6.9150   10.3730 C   0  0  1  0  0  0  0  0  0  0  0  0
    9.3850    3.7730   16.8420 C   0  0  0  0  0  0  0  0  0  0  0  0
    9.4640    5.4380   10.0260 C   0  0  2  0  0  0  0  0  0  0  0  0
    8.9690    4.7920   14.7230 C   0  0  0  0  0  0  0  0  0  0  0  0
   17.1480   16.3410    3.0460 C   0  0  2  0  0  0  0  0  0  0  0  0
   17.7880    3.4240    5.0540 C   0  0  2  0  0  0  0  0  0  0  0  0
   16.0220   12.6680    3.3520 C   0  0  2  0  0  0  0  0  0  0  0  0
    9.8310    4.1170   15.5770 C   0  0  0  0  0  0  0  0  0  0  0  0
    9.0504    8.5655   11.9463 H   0  0  0  0  0  0  0  0  0  0  0  0
    7.6448    6.9342   10.2634 H   0  0  0  0  0  0  0  0  0  0  0  0
   19.4114    8.7572    7.9947 H   0  0  0  0  0  0  0  0  0  0  0  0
   20.5796    8.5013    9.1067 H   0  0  0  0  0  0  0  0  0  0  0  0
   17.0627   17.9937    1.1237 H   0  0  0  0  0  0  0  0  0  0  0  0
   15.4122   18.5174    1.1627 H   0  0  0  0  0  0  0  0  0  0  0  0
   16.6922   16.9799    8.8534 H   0  0  0  0  0  0  0  0  0  0  0  0
   16.6078   18.3316    9.9331 H   0  0  0  0  0  0  0  0  0  0  0  0
   18.8121   20.3208    8.0622 H   0  0  0  0  0  0  0  0  0  0  0  0
   12.3466   15.8455    1.9513 H   0  0  0  0  0  0  0  0  0  0  0  0
   12.0260   16.0245    0.2586 H   0  0  0  0  0  0  0  0  0  0  0  0
   12.4466   12.6397   -0.4964 H   0  0  0  0  0  0  0  0  0  0  0  0
   12.0826   14.2123   -1.1244 H   0  0  0  0  0  0  0  0  0  0  0  0
   11.1194    2.8922   17.3988 H   0  0  0  0  0  0  0  0  0  0  0  0
    9.8664    2.8838   18.5946 H   0  0  0  0  0  0  0  0  0  0  0  0
   18.9924   18.6395    6.7078 H   0  0  0  0  0  0  0  0  0  0  0  0
   10.5139    5.2879    7.7250 H   0  0  0  0  0  0  0  0  0  0  0  0
   17.7826    4.3029    2.6725 H   0  0  0  0  0  0  0  0  0  0  0  0
   17.3943    2.7701    7.0712 H   0  0  0  0  0  0  0  0  0  0  0  0
   14.5791   11.4176    2.3675 H   0  0  0  0  0  0  0  0  0  0  0  0
   16.8142   14.7842    4.4806 H   0  0  0  0  0  0  0  0  0  0  0  0
    6.3999    5.0006   16.6489 H   0  0  0  0  0  0  0  0  0  0  0  0
   18.8608    6.7257    8.6136 H   0  0  0  0  0  0  0  0  0  0  0  0
   20.3992    6.3191    8.9807 H   0  0  0  0  0  0  0  0  0  0  0  0
   11.5531    4.4657   13.0179 H   0  0  0  0  0  0  0  0  0  0  0  0
   17.6305   16.1761    7.3832 H   0  0  0  0  0  0  0  0  0  0  0  0
   18.8958   16.3121    6.3598 H   0  0  0  0  0  0  0  0  0  0  0  0
   12.0314   14.0013    3.6611 H   0  0  0  0  0  0  0  0  0  0  0  0
   13.5316   14.5451    3.3139 H   0  0  0  0  0  0  0  0  0  0  0  0
   13.2013    4.8135    8.3990 H   0  0  0  0  0  0  0  0  0  0  0  0
   12.5669    4.7915    6.8944 H   0  0  0  0  0  0  0  0  0  0  0  0
   15.1585    5.5742    2.8178 H   0  0  0  0  0  0  0  0  0  0  0  0
   15.8575    5.0516    1.4376 H   0  0  0  0  0  0  0  0  0  0  0  0
   20.7239    5.4621    6.9810 H   0  0  0  0  0  0  0  0  0  0  0  0
   20.1532    6.8095    6.2561 H   0  0  0  0  0  0  0  0  0  0  0  0
   11.8815    2.5302    7.2117 H   0  0  0  0  0  0  0  0  0  0  0  0
   12.5015    2.5509    8.7223 H   0  0  0  0  0  0  0  0  0  0  0  0
   17.4636    6.7949    1.5685 H   0  0  0  0  0  0  0  0  0  0  0  0
   16.8205    7.2991    2.9823 H   0  0  0  0  0  0  0  0  0  0  0  0
   16.5276   17.7371    5.6714 H   0  0  0  0  0  0  0  0  0  0  0  0
   16.4981   16.1200    5.4464 H   0  0  0  0  0  0  0  0  0  0  0  0
   13.5023   11.7648    3.5152 H   0  0  0  0  0  0  0  0  0  0  0  0
   12.9815   12.4492    4.9034 H   0  0  0  0  0  0  0  0  0  0  0  0
   14.6669    3.0617    7.7732 H   0  0  0  0  0  0  0  0  0  0  0  0
   14.0187    2.8900    6.2842 H   0  0  0  0  0  0  0  0  0  0  0  0
   15.0558    8.2540    1.9889 H   0  0  0  0  0  0  0  0  0  0  0  0
   15.0598    7.1906    0.7496 H   0  0  0  0  0  0  0  0  0  0  0  0
   18.0413    5.9888    6.1123 H   0  0  0  0  0  0  0  0  0  0  0  0
   18.2516    4.9757    7.3757 H   0  0  0  0  0  0  0  0  0  0  0  0
   13.7561    0.6193    6.5588 H   0  0  0  0  0  0  0  0  0  0  0  0
   14.0222    0.7157    8.1671 H   0  0  0  0  0  0  0  0  0  0  0  0
   16.3824    8.4546   -0.4875 H   0  0  0  0  0  0  0  0  0  0  0  0
   17.2856    8.9159    0.7924 H   0  0  0  0  0  0  0  0  0  0  0  0
   15.9169   -0.1691    6.8867 H   0  0  0  0  0  0  0  0  0  0  0  0
   16.2926    1.0913    7.8547 H   0  0  0  0  0  0  0  0  0  0  0  0
   14.6957   10.0265    0.7698 H   0  0  0  0  0  0  0  0  0  0  0  0
   15.6406   10.5336   -0.4618 H   0  0  0  0  0  0  0  0  0  0  0  0
   18.7698   16.7403    4.2952 H   0  0  0  0  0  0  0  0  0  0  0  0
   17.8800   18.0676    3.9589 H   0  0  0  0  0  0  0  0  0  0  0  0
   15.2201   12.2427    5.2375 H   0  0  0  0  0  0  0  0  0  0  0  0
   15.0473   13.8093    4.8102 H   0  0  0  0  0  0  0  0  0  0  0  0
   19.6090    3.5715    6.0568 H   0  0  0  0  0  0  0  0  0  0  0  0
   19.4859    4.6052    4.7987 H   0  0  0  0  0  0  0  0  0  0  0  0
    8.1963    6.1352   12.5857 H   0  0  0  0  0  0  0  0  0  0  0  0
   10.9835    6.5766   11.9605 H   0  0  0  0  0  0  0  0  0  0  0  0
   10.3729    7.3397    9.8266 H   0  0  0  0  0  0  0  0  0  0  0  0
    8.8224    5.3422    9.2650 H   0  0  0  0  0  0  0  0  0  0  0  0
   17.7914   16.2532    2.2855 H   0  0  0  0  0  0  0  0  0  0  0  0
   18.1278    2.8014    4.3491 H   0  0  0  0  0  0  0  0  0  0  0  0
   16.8595   12.3033    3.7589 H   0  0  0  0  0  0  0  0  0  0  0  0
   20.9077    8.3088    7.5186 H   0  0  0  0  0  0  0  0  0  0  0  0
   17.8200   20.2404    9.4797 H   0  0  0  0  0  0  0  0  0  0  0  0
   12.8898   12.3468    1.6713 H   0  0  0  0  0  0  0  0  0  0  0  0
  1 50  2  0  0  0  0
  2 53  2  0  0  0  0
  3 54  2  0  0  0  0
  4 55  2  0  0  0  0
  5 56  2  0  0  0  0
  6 57  2  0  0  0  0
  7 59  1  0  0  0  0
  8 60  1  0  0  0  0
  9 58  1  0  0  0  0
  9 62  1  0  0  0  0
 10 29  1  0  0  0  0
 11 50  1  0  0  0  0
 12 51  2  0  0  0  0
 13 51  1  0  0  0  0
 14 52  2  0  0  0  0
 15 52  1  0  0  0  0
 16 61  1  0  0  0  0
 17 28  1  0  0  0  0
 17 61  2  0  0  0  0
 18 31  1  0  0  0  0
 18 51  1  0  0  0  0
 19 32  1  0  0  0  0
 19 52  1  0  0  0  0
 20 28  2  0  0  0  0
 20 63  1  0  0  0  0
 21 33  1  0  0  0  0
 21 55  1  0  0  0  0
 22 34  1  0  0  0  0
 22 56  1  0  0  0  0
 23 30  2  0  0  0  0
 23 67  1  0  0  0  0
 24 53  1  0  0  0  0
 24 65  1  0  0  0  0
 25 54  1  0  0  0  0
 25 66  1  0  0  0  0
 26 57  1  0  0  0  0
 26 64  1  0  0  0  0
 27 30  1  0  0  0  0
 27 58  1  0  0  0  0
 27 63  1  0  0  0  0
 29 35  1  0  0  0  0
 31 38  1  0  0  0  0
 32 39  1  0  0  0  0
 33 36  1  0  0  0  0
 34 37  1  0  0  0  0
 35 42  1  0  0  0  0
 36 40  1  0  0  0  0
 37 41  1  0  0  0  0
 38 47  1  0  0  0  0
 39 48  1  0  0  0  0
 40 43  1  0  0  0  0
 41 44  1  0  0  0  0
 42 49  1  0  0  0  0
 43 45  1  0  0  0  0
 44 46  1  0  0  0  0
 45 53  1  0  0  0  0
 46 54  1  0  0  0  0
 47 64  1  0  0  0  0
 48 66  1  0  0  0  0
 49 65  1  0  0  0  0
 50 64  1  0  0  0  0
 55 62  1  0  0  0  0
 56 65  1  0  0  0  0
 57 66  1  0  0  0  0
 58 59  1  0  0  0  0
 59 60  1  0  0  0  0
 60 62  1  0  0  0  0
 61 67  1  0  0  0  0
 63 67  2  0  0  0  0
  7 68  1  0  0  0  0
  8 69  1  0  0  0  0
 10 70  1  0  0  0  0
 10 71  1  0  0  0  0
 11 72  1  0  0  0  0
 11 73  1  0  0  0  0
 12 74  1  0  0  0  0
 12 75  1  0  0  0  0
 13 76  1  0  0  0  0
 14 77  1  0  0  0  0
 14 78  1  0  0  0  0
 15 79  1  0  0  0  0
 15 80  1  0  0  0  0
 16 81  1  0  0  0  0
 16 82  1  0  0  0  0
 18 83  1  0  0  0  0
 21 84  1  0  0  0  0
 22 85  1  0  0  0  0
 24 86  1  0  0  0  0
 25 87  1  0  0  0  0
 26 88  1  0  0  0  0
 28 89  1  0  0  0  0
 29 90  1  0  0  0  0
 29 91  1  0  0  0  0
 30 92  1  0  0  0  0
 31 93  1  0  0  0  0
 31 94  1  0  0  0  0
 32 95  1  0  0  0  0
 32 96  1  0  0  0  0
 33 97  1  0  0  0  0
 33 98  1  0  0  0  0
 34 99  1  0  0  0  0
 34100  1  0  0  0  0
 35101  1  0  0  0  0
 35102  1  0  0  0  0
 36103  1  0  0  0  0
 36104  1  0  0  0  0
 37105  1  0  0  0  0
 37106  1  0  0  0  0
 38107  1  0  0  0  0
 38108  1  0  0  0  0
 39109  1  0  0  0  0
 39110  1  0  0  0  0
 40111  1  0  0  0  0
 40112  1  0  0  0  0
 41113  1  0  0  0  0
 41114  1  0  0  0  0
 42115  1  0  0  0  0
 42116  1  0  0  0  0
 43117  1  0  0  0  0
 43118  1  0  0  0  0
 44119  1  0  0  0  0
 44120  1  0  0  0  0
 45121  1  0  0  0  0
 45122  1  0  0  0  0
 46123  1  0  0  0  0
 46124  1  0  0  0  0
 47125  1  0  0  0  0
 47126  1  0  0  0  0
 48127  1  0  0  0  0
 48128  1  0  0  0  0
 49129  1  0  0  0  0
 49130  1  0  0  0  0
 58131  1  0  0  0  0
 59132  1  0  0  0  0
 60133  1  0  0  0  0
 62134  1  0  0  0  0
 64135  1  0  0  0  0
 65136  1  0  0  0  0
 66137  1  0  0  0  0
 10138  1  0  0  0  0
 13139  1  0  0  0  0
 19140  1  0  0  0  0
M  CHG  3  10   1  12   1  14   1
M  END
$$$$
